MODEL 1
REMARK VINA RESULT:    -7.360      0.000      0.000
REMARK INTER + INTRA:          -9.917
REMARK INTER:                  -9.081
REMARK INTRA:                  -0.836
REMARK UNBOUND:                -0.836
REMARK  Name = 
REMARK  4 active torsions:
REMARK  status: ('A' for Active; 'I' for Inactive)
REMARK    1  A    between atoms: C_4  and  C_5
REMARK    2  A    between atoms: C_7  and  C_8
REMARK    3  A    between atoms: C_8  and  O_9
REMARK    4  A    between atoms: O_9  and  C_10
REMARK                            x       y       z     vdW  Elec       q    Type
REMARK                         _______ _______ _______ _____ _____    ______ ____
ROOT
ATOM      1  C   UNL     1      47.247   5.758  12.810  0.00  0.00    +0.000 A 
ATOM      2  C   UNL     1      46.093   5.807  12.022  0.00  0.00    +0.000 A 
ATOM      3  C   UNL     1      45.166   4.753  12.039  0.00  0.00    +0.000 A 
ATOM      4  C   UNL     1      45.477   3.650  12.842  0.00  0.00    +0.000 A 
ATOM      5  C   UNL     1      46.639   3.663  13.590  0.00  0.00    +0.000 A 
ATOM      6  N   UNL     1      47.519   4.682  13.592  0.00  0.00    +0.000 NA
ENDROOT
BRANCH   1  10
ATOM      7  C   UNL     1      50.153   8.942  12.948  0.00  0.00    +0.000 A 
ATOM      8  C   UNL     1      49.930   8.155  14.074  0.00  0.00    +0.000 A 
ATOM      9  C   UNL     1      48.983   7.126  14.038  0.00  0.00    +0.000 A 
ATOM     10  C   UNL     1      48.234   6.858  12.877  0.00  0.00    +0.000 A 
ATOM     11  C   UNL     1      48.484   7.670  11.752  0.00  0.00    +0.000 A 
ATOM     12  C   UNL     1      49.429   8.700  11.785  0.00  0.00    +0.000 A 
ENDBRANCH   1  10
BRANCH   3  13
ATOM     13  C   UNL     1      43.873   4.817  11.240  0.00  0.00    +0.000 C 
ATOM     14  C   UNL     1      43.192   6.154  11.026  0.00  0.00    +0.000 C 
ATOM     15  C   UNL     1      42.594   5.185  11.988  0.00  0.00    +0.000 C 
BRANCH  13  16
ATOM     16  O   UNL     1      43.639   3.739  10.301  0.00  0.00    +0.000 OA
BRANCH  16  17
ATOM     17  C   UNL     1      44.639   3.458   9.384  0.00  0.00    +0.000 A 
ATOM     18  C   UNL     1      45.034   2.128   9.314  0.00  0.00    +0.000 A 
ATOM     19  C   UNL     1      45.981   1.766   8.362  0.00  0.00    +0.000 A 
ATOM     20  C   UNL     1      46.493   2.741   7.512  0.00  0.00    +0.000 A 
ATOM     21  C   UNL     1      46.039   4.042   7.659  0.00  0.00    +0.000 A 
ATOM     22  N   UNL     1      45.127   4.426   8.579  0.00  0.00    +0.000 NA
ENDBRANCH  16  17
ENDBRANCH  13  16
ENDBRANCH   3  13
TORSDOF 4
ENDMDL
MODEL 2
REMARK VINA RESULT:    -6.890      1.967      6.547
REMARK INTER + INTRA:          -9.338
REMARK INTER:                  -8.659
REMARK INTRA:                  -0.678
REMARK UNBOUND:                -0.836
REMARK  Name = 
REMARK  4 active torsions:
REMARK  status: ('A' for Active; 'I' for Inactive)
REMARK    1  A    between atoms: C_4  and  C_5
REMARK    2  A    between atoms: C_7  and  C_8
REMARK    3  A    between atoms: C_8  and  O_9
REMARK    4  A    between atoms: O_9  and  C_10
REMARK                            x       y       z     vdW  Elec       q    Type
REMARK                         _______ _______ _______ _____ _____    ______ ____
ROOT
ATOM      1  C   UNL     1      45.268   3.304   9.278  0.00  0.00    +0.000 A 
ATOM      2  C   UNL     1      45.724   4.451   9.932  0.00  0.00    +0.000 A 
ATOM      3  C   UNL     1      45.084   4.922  11.089  0.00  0.00    +0.000 A 
ATOM      4  C   UNL     1      43.955   4.215  11.518  0.00  0.00    +0.000 A 
ATOM      5  C   UNL     1      43.552   3.092  10.820  0.00  0.00    +0.000 A 
ATOM      6  N   UNL     1      44.178   2.627   9.723  0.00  0.00    +0.000 NA
ENDROOT
BRANCH   1  10
ATOM      7  C   UNL     1      47.252   1.601   5.847  0.00  0.00    +0.000 A 
ATOM      8  C   UNL     1      46.841   2.931   5.823  0.00  0.00    +0.000 A 
ATOM      9  C   UNL     1      46.190   3.487   6.930  0.00  0.00    +0.000 A 
ATOM     10  C   UNL     1      45.931   2.728   8.087  0.00  0.00    +0.000 A 
ATOM     11  C   UNL     1      46.363   1.387   8.083  0.00  0.00    +0.000 A 
ATOM     12  C   UNL     1      47.013   0.828   6.978  0.00  0.00    +0.000 A 
ENDBRANCH   1  10
BRANCH   3  13
ATOM     13  C   UNL     1      45.604   6.131  11.853  0.00  0.00    +0.000 C 
ATOM     14  C   UNL     1      44.645   6.956  12.687  0.00  0.00    +0.000 C 
ATOM     15  C   UNL     1      45.141   7.512  11.396  0.00  0.00    +0.000 C 
BRANCH  13  16
ATOM     16  O   UNL     1      47.016   6.132  12.177  0.00  0.00    +0.000 OA
BRANCH  16  17
ATOM     17  C   UNL     1      47.380   5.751  13.458  0.00  0.00    +0.000 A 
ATOM     18  C   UNL     1      48.165   6.660  14.156  0.00  0.00    +0.000 A 
ATOM     19  C   UNL     1      48.504   6.371  15.473  0.00  0.00    +0.000 A 
ATOM     20  C   UNL     1      48.042   5.192  16.048  0.00  0.00    +0.000 A 
ATOM     21  C   UNL     1      47.265   4.346  15.272  0.00  0.00    +0.000 A 
ATOM     22  N   UNL     1      46.927   4.594  13.987  0.00  0.00    +0.000 NA
ENDBRANCH  16  17
ENDBRANCH  13  16
ENDBRANCH   3  13
TORSDOF 4
ENDMDL
MODEL 3
REMARK VINA RESULT:    -6.884      3.019      6.624
REMARK INTER + INTRA:          -9.330
REMARK INTER:                  -8.635
REMARK INTRA:                  -0.695
REMARK UNBOUND:                -0.836
REMARK  Name = 
REMARK  4 active torsions:
REMARK  status: ('A' for Active; 'I' for Inactive)
REMARK    1  A    between atoms: C_4  and  C_5
REMARK    2  A    between atoms: C_7  and  C_8
REMARK    3  A    between atoms: C_8  and  O_9
REMARK    4  A    between atoms: O_9  and  C_10
REMARK                            x       y       z     vdW  Elec       q    Type
REMARK                         _______ _______ _______ _____ _____    ______ ____
ROOT
ATOM      1  C   UNL     1      45.036   4.449   9.786  0.00  0.00    +0.000 A 
ATOM      2  C   UNL     1      45.727   5.492  10.406  0.00  0.00    +0.000 A 
ATOM      3  C   UNL     1      45.111   6.273  11.398  0.00  0.00    +0.000 A 
ATOM      4  C   UNL     1      43.775   5.979  11.693  0.00  0.00    +0.000 A 
ATOM      5  C   UNL     1      43.148   4.937  11.036  0.00  0.00    +0.000 A 
ATOM      6  N   UNL     1      43.744   4.174  10.100  0.00  0.00    +0.000 NA
ENDROOT
BRANCH   1  10
ATOM      7  C   UNL     1      46.848   1.819   6.886  0.00  0.00    +0.000 A 
ATOM      8  C   UNL     1      46.896   3.198   6.699  0.00  0.00    +0.000 A 
ATOM      9  C   UNL     1      46.303   4.055   7.633  0.00  0.00    +0.000 A 
ATOM     10  C   UNL     1      45.647   3.558   8.774  0.00  0.00    +0.000 A 
ATOM     11  C   UNL     1      45.619   2.158   8.937  0.00  0.00    +0.000 A 
ATOM     12  C   UNL     1      46.209   1.298   8.006  0.00  0.00    +0.000 A 
ENDBRANCH   1  10
BRANCH   3  13
ATOM     13  C   UNL     1      45.866   7.371  12.132  0.00  0.00    +0.000 C 
ATOM     14  C   UNL     1      47.360   7.518  11.922  0.00  0.00    +0.000 C 
ATOM     15  C   UNL     1      46.864   6.948  13.207  0.00  0.00    +0.000 C 
BRANCH  13  16
ATOM     16  O   UNL     1      45.089   8.516  12.559  0.00  0.00    +0.000 OA
BRANCH  16  17
ATOM     17  C   UNL     1      45.020   9.601  11.701  0.00  0.00    +0.000 A 
ATOM     18  C   UNL     1      43.979   9.576  10.782  0.00  0.00    +0.000 A 
ATOM     19  C   UNL     1      43.809  10.669   9.940  0.00  0.00    +0.000 A 
ATOM     20  C   UNL     1      44.678  11.750  10.051  0.00  0.00    +0.000 A 
ATOM     21  C   UNL     1      45.688  11.684  10.997  0.00  0.00    +0.000 A 
ATOM     22  N   UNL     1      45.884  10.632  11.823  0.00  0.00    +0.000 NA
ENDBRANCH  16  17
ENDBRANCH  13  16
ENDBRANCH   3  13
TORSDOF 4
ENDMDL
MODEL 4
REMARK VINA RESULT:    -6.542      2.195      3.425
REMARK INTER + INTRA:          -8.908
REMARK INTER:                  -8.748
REMARK INTRA:                  -0.160
REMARK UNBOUND:                -0.836
REMARK  Name = 
REMARK  4 active torsions:
REMARK  status: ('A' for Active; 'I' for Inactive)
REMARK    1  A    between atoms: C_4  and  C_5
REMARK    2  A    between atoms: C_7  and  C_8
REMARK    3  A    between atoms: C_8  and  O_9
REMARK    4  A    between atoms: O_9  and  C_10
REMARK                            x       y       z     vdW  Elec       q    Type
REMARK                         _______ _______ _______ _____ _____    ______ ____
ROOT
ATOM      1  C   UNL     1      47.249   5.165  14.562  0.00  0.00    +0.000 A 
ATOM      2  C   UNL     1      46.018   4.826  13.995  0.00  0.00    +0.000 A 
ATOM      3  C   UNL     1      45.647   5.321  12.734  0.00  0.00    +0.000 A 
ATOM      4  C   UNL     1      46.545   6.192  12.107  0.00  0.00    +0.000 A 
ATOM      5  C   UNL     1      47.743   6.492  12.728  0.00  0.00    +0.000 A 
ATOM      6  N   UNL     1      48.110   6.002  13.927  0.00  0.00    +0.000 NA
ENDROOT
BRANCH   1  10
ATOM      7  C   UNL     1      48.685   3.641  18.333  0.00  0.00    +0.000 A 
ATOM      8  C   UNL     1      47.929   2.825  17.496  0.00  0.00    +0.000 A 
ATOM      9  C   UNL     1      47.454   3.317  16.275  0.00  0.00    +0.000 A 
ATOM     10  C   UNL     1      47.720   4.635  15.860  0.00  0.00    +0.000 A 
ATOM     11  C   UNL     1      48.491   5.435  16.727  0.00  0.00    +0.000 A 
ATOM     12  C   UNL     1      48.966   4.947  17.949  0.00  0.00    +0.000 A 
ENDBRANCH   1  10
BRANCH   3  13
ATOM     13  C   UNL     1      44.340   4.911  12.070  0.00  0.00    +0.000 C 
ATOM     14  C   UNL     1      43.357   5.980  11.635  0.00  0.00    +0.000 C 
ATOM     15  C   UNL     1      43.046   5.160  12.840  0.00  0.00    +0.000 C 
BRANCH  13  16
ATOM     16  O   UNL     1      44.323   3.618  11.418  0.00  0.00    +0.000 OA
BRANCH  16  17
ATOM     17  C   UNL     1      44.907   3.523  10.166  0.00  0.00    +0.000 A 
ATOM     18  C   UNL     1      45.064   2.235   9.672  0.00  0.00    +0.000 A 
ATOM     19  C   UNL     1      45.577   2.072   8.390  0.00  0.00    +0.000 A 
ATOM     20  C   UNL     1      45.907   3.200   7.645  0.00  0.00    +0.000 A 
ATOM     21  C   UNL     1      45.716   4.445   8.223  0.00  0.00    +0.000 A 
ATOM     22  N   UNL     1      45.229   4.635   9.470  0.00  0.00    +0.000 NA
ENDBRANCH  16  17
ENDBRANCH  13  16
ENDBRANCH   3  13
TORSDOF 4
ENDMDL
MODEL 5
REMARK VINA RESULT:    -6.495      2.183      6.505
REMARK INTER + INTRA:          -8.850
REMARK INTER:                  -8.154
REMARK INTRA:                  -0.696
REMARK UNBOUND:                -0.836
REMARK  Name = 
REMARK  4 active torsions:
REMARK  status: ('A' for Active; 'I' for Inactive)
REMARK    1  A    between atoms: C_4  and  C_5
REMARK    2  A    between atoms: C_7  and  C_8
REMARK    3  A    between atoms: C_8  and  O_9
REMARK    4  A    between atoms: O_9  and  C_10
REMARK                            x       y       z     vdW  Elec       q    Type
REMARK                         _______ _______ _______ _____ _____    ______ ____
ROOT
ATOM      1  C   UNL     1      45.099   4.965  10.200  0.00  0.00    +0.000 A 
ATOM      2  C   UNL     1      46.031   5.796  10.829  0.00  0.00    +0.000 A 
ATOM      3  C   UNL     1      45.631   6.695  11.830  0.00  0.00    +0.000 A 
ATOM      4  C   UNL     1      44.265   6.743  12.128  0.00  0.00    +0.000 A 
ATOM      5  C   UNL     1      43.396   5.898  11.463  0.00  0.00    +0.000 A 
ATOM      6  N   UNL     1      43.780   5.020  10.518  0.00  0.00    +0.000 NA
ENDROOT
BRANCH   1  10
ATOM      7  C   UNL     1      46.204   2.004   7.265  0.00  0.00    +0.000 A 
ATOM      8  C   UNL     1      46.318   3.358   6.963  0.00  0.00    +0.000 A 
ATOM      9  C   UNL     1      45.954   4.323   7.909  0.00  0.00    +0.000 A 
ATOM     10  C   UNL     1      45.465   3.960   9.178  0.00  0.00    +0.000 A 
ATOM     11  C   UNL     1      45.365   2.582   9.455  0.00  0.00    +0.000 A 
ATOM     12  C   UNL     1      45.727   1.614   8.512  0.00  0.00    +0.000 A 
ENDBRANCH   1  10
BRANCH   3  13
ATOM     13  C   UNL     1      46.639   7.561  12.572  0.00  0.00    +0.000 C 
ATOM     14  C   UNL     1      46.160   8.790  13.319  0.00  0.00    +0.000 C 
ATOM     15  C   UNL     1      46.897   8.966  12.035  0.00  0.00    +0.000 C 
BRANCH  13  16
ATOM     16  O   UNL     1      47.873   6.918  12.973  0.00  0.00    +0.000 OA
BRANCH  16  17
ATOM     17  C   UNL     1      47.884   6.251  14.187  0.00  0.00    +0.000 A 
ATOM     18  C   UNL     1      47.166   5.063  14.227  0.00  0.00    +0.000 A 
ATOM     19  C   UNL     1      47.197   4.306  15.393  0.00  0.00    +0.000 A 
ATOM     20  C   UNL     1      47.948   4.758  16.473  0.00  0.00    +0.000 A 
ATOM     21  C   UNL     1      48.631   5.957  16.340  0.00  0.00    +0.000 A 
ATOM     22  N   UNL     1      48.613   6.719  15.223  0.00  0.00    +0.000 NA
ENDBRANCH  16  17
ENDBRANCH  13  16
ENDBRANCH   3  13
TORSDOF 4
ENDMDL
MODEL 6
REMARK VINA RESULT:    -6.457      1.936      6.552
REMARK INTER + INTRA:          -8.803
REMARK INTER:                  -8.494
REMARK INTRA:                  -0.309
REMARK UNBOUND:                -0.836
REMARK  Name = 
REMARK  4 active torsions:
REMARK  status: ('A' for Active; 'I' for Inactive)
REMARK    1  A    between atoms: C_4  and  C_5
REMARK    2  A    between atoms: C_7  and  C_8
REMARK    3  A    between atoms: C_8  and  O_9
REMARK    4  A    between atoms: O_9  and  C_10
REMARK                            x       y       z     vdW  Elec       q    Type
REMARK                         _______ _______ _______ _____ _____    ______ ____
ROOT
ATOM      1  C   UNL     1      45.329   3.295   9.145  0.00  0.00    +0.000 A 
ATOM      2  C   UNL     1      45.685   4.551   9.644  0.00  0.00    +0.000 A 
ATOM      3  C   UNL     1      45.067   5.069  10.794  0.00  0.00    +0.000 A 
ATOM      4  C   UNL     1      44.061   4.290  11.376  0.00  0.00    +0.000 A 
ATOM      5  C   UNL     1      43.753   3.060  10.827  0.00  0.00    +0.000 A 
ATOM      6  N   UNL     1      44.359   2.551   9.737  0.00  0.00    +0.000 NA
ENDROOT
BRANCH   1  10
ATOM      7  C   UNL     1      47.278   1.458   5.764  0.00  0.00    +0.000 A 
ATOM      8  C   UNL     1      46.838   2.776   5.681  0.00  0.00    +0.000 A 
ATOM      9  C   UNL     1      46.199   3.375   6.772  0.00  0.00    +0.000 A 
ATOM     10  C   UNL     1      45.980   2.672   7.972  0.00  0.00    +0.000 A 
ATOM     11  C   UNL     1      46.440   1.341   8.026  0.00  0.00    +0.000 A 
ATOM     12  C   UNL     1      47.078   0.739   6.938  0.00  0.00    +0.000 A 
ENDBRANCH   1  10
BRANCH   3  13
ATOM     13  C   UNL     1      45.486   6.405  11.390  0.00  0.00    +0.000 C 
ATOM     14  C   UNL     1      44.791   6.916  12.637  0.00  0.00    +0.000 C 
ATOM     15  C   UNL     1      44.485   7.555  11.325  0.00  0.00    +0.000 C 
BRANCH  13  16
ATOM     16  O   UNL     1      46.827   6.858  11.084  0.00  0.00    +0.000 OA
BRANCH  16  17
ATOM     17  C   UNL     1      47.580   7.382  12.122  0.00  0.00    +0.000 A 
ATOM     18  C   UNL     1      48.184   6.450  12.957  0.00  0.00    +0.000 A 
ATOM     19  C   UNL     1      49.014   6.908  13.974  0.00  0.00    +0.000 A 
ATOM     20  C   UNL     1      49.217   8.277  14.116  0.00  0.00    +0.000 A 
ATOM     21  C   UNL     1      48.570   9.130  13.236  0.00  0.00    +0.000 A 
ATOM     22  N   UNL     1      47.751   8.716  12.244  0.00  0.00    +0.000 NA
ENDBRANCH  16  17
ENDBRANCH  13  16
ENDBRANCH   3  13
TORSDOF 4
ENDMDL
MODEL 7
REMARK VINA RESULT:    -6.186      2.767      6.925
REMARK INTER + INTRA:          -8.469
REMARK INTER:                  -7.825
REMARK INTRA:                  -0.643
REMARK UNBOUND:                -0.836
REMARK  Name = 
REMARK  4 active torsions:
REMARK  status: ('A' for Active; 'I' for Inactive)
REMARK    1  A    between atoms: C_4  and  C_5
REMARK    2  A    between atoms: C_7  and  C_8
REMARK    3  A    between atoms: C_8  and  O_9
REMARK    4  A    between atoms: O_9  and  C_10
REMARK                            x       y       z     vdW  Elec       q    Type
REMARK                         _______ _______ _______ _____ _____    ______ ____
ROOT
ATOM      1  C   UNL     1      45.715   6.181  11.395  0.00  0.00    +0.000 A 
ATOM      2  C   UNL     1      46.874   6.247  12.172  0.00  0.00    +0.000 A 
ATOM      3  C   UNL     1      47.107   7.339  13.024  0.00  0.00    +0.000 A 
ATOM      4  C   UNL     1      46.150   8.360  13.018  0.00  0.00    +0.000 A 
ATOM      5  C   UNL     1      45.029   8.235  12.219  0.00  0.00    +0.000 A 
ATOM      6  N   UNL     1      44.794   7.179  11.418  0.00  0.00    +0.000 NA
ENDROOT
BRANCH   1  10
ATOM      7  C   UNL     1      44.731   2.880   8.799  0.00  0.00    +0.000 A 
ATOM      8  C   UNL     1      44.383   2.832  10.146  0.00  0.00    +0.000 A 
ATOM      9  C   UNL     1      44.707   3.897  10.994  0.00  0.00    +0.000 A 
ATOM     10  C   UNL     1      45.387   5.034  10.520  0.00  0.00    +0.000 A 
ATOM     11  C   UNL     1      45.722   5.054   9.151  0.00  0.00    +0.000 A 
ATOM     12  C   UNL     1      45.401   3.991   8.300  0.00  0.00    +0.000 A 
ENDBRANCH   1  10
BRANCH   3  13
ATOM     13  C   UNL     1      48.330   7.399  13.927  0.00  0.00    +0.000 C 
ATOM     14  C   UNL     1      48.632   8.673  14.691  0.00  0.00    +0.000 C 
ATOM     15  C   UNL     1      49.473   8.321  13.511  0.00  0.00    +0.000 C 
BRANCH  13  16
ATOM     16  O   UNL     1      48.830   6.134  14.423  0.00  0.00    +0.000 OA
BRANCH  16  17
ATOM     17  C   UNL     1      48.332   5.676  15.632  0.00  0.00    +0.000 A 
ATOM     18  C   UNL     1      47.438   4.617  15.552  0.00  0.00    +0.000 A 
ATOM     19  C   UNL     1      46.957   4.062  16.733  0.00  0.00    +0.000 A 
ATOM     20  C   UNL     1      47.392   4.579  17.949  0.00  0.00    +0.000 A 
ATOM     21  C   UNL     1      48.285   5.638  17.929  0.00  0.00    +0.000 A 
ATOM     22  N   UNL     1      48.763   6.204  16.798  0.00  0.00    +0.000 NA
ENDBRANCH  16  17
ENDBRANCH  13  16
ENDBRANCH   3  13
TORSDOF 4
ENDMDL
MODEL 8
REMARK VINA RESULT:    -5.753      2.453      7.148
REMARK INTER + INTRA:          -7.935
REMARK INTER:                  -7.272
REMARK INTRA:                  -0.662
REMARK UNBOUND:                -0.836
REMARK  Name = 
REMARK  4 active torsions:
REMARK  status: ('A' for Active; 'I' for Inactive)
REMARK    1  A    between atoms: C_4  and  C_5
REMARK    2  A    between atoms: C_7  and  C_8
REMARK    3  A    between atoms: C_8  and  O_9
REMARK    4  A    between atoms: O_9  and  C_10
REMARK                            x       y       z     vdW  Elec       q    Type
REMARK                         _______ _______ _______ _____ _____    ______ ____
ROOT
ATOM      1  C   UNL     1      45.703   6.186  11.185  0.00  0.00    +0.000 A 
ATOM      2  C   UNL     1      47.005   6.649  11.384  0.00  0.00    +0.000 A 
ATOM      3  C   UNL     1      47.263   7.714  12.264  0.00  0.00    +0.000 A 
ATOM      4  C   UNL     1      46.156   8.302  12.884  0.00  0.00    +0.000 A 
ATOM      5  C   UNL     1      44.892   7.799  12.636  0.00  0.00    +0.000 A 
ATOM      6  N   UNL     1      44.646   6.765  11.811  0.00  0.00    +0.000 NA
ENDROOT
BRANCH   1  10
ATOM      7  C   UNL     1      44.767   2.791   8.694  0.00  0.00    +0.000 A 
ATOM      8  C   UNL     1      45.457   3.876   8.160  0.00  0.00    +0.000 A 
ATOM      9  C   UNL     1      45.756   4.983   8.961  0.00  0.00    +0.000 A 
ATOM     10  C   UNL     1      45.373   5.036  10.314  0.00  0.00    +0.000 A 
ATOM     11  C   UNL     1      44.680   3.921  10.827  0.00  0.00    +0.000 A 
ATOM     12  C   UNL     1      44.378   2.813  10.029  0.00  0.00    +0.000 A 
ENDBRANCH   1  10
BRANCH   3  13
ATOM     13  C   UNL     1      48.680   8.190  12.545  0.00  0.00    +0.000 C 
ATOM     14  C   UNL     1      48.949   9.671  12.721  0.00  0.00    +0.000 C 
ATOM     15  C   UNL     1      49.383   9.004  11.461  0.00  0.00    +0.000 C 
BRANCH  13  16
ATOM     16  O   UNL     1      49.580   7.226  13.143  0.00  0.00    +0.000 OA
BRANCH  16  17
ATOM     17  C   UNL     1      49.450   6.982  14.501  0.00  0.00    +0.000 A 
ATOM     18  C   UNL     1      50.164   7.832  15.335  0.00  0.00    +0.000 A 
ATOM     19  C   UNL     1      50.019   7.689  16.711  0.00  0.00    +0.000 A 
ATOM     20  C   UNL     1      49.162   6.710  17.202  0.00  0.00    +0.000 A 
ATOM     21  C   UNL     1      48.493   5.908  16.292  0.00  0.00    +0.000 A 
ATOM     22  N   UNL     1      48.620   6.017  14.950  0.00  0.00    +0.000 NA
ENDBRANCH  16  17
ENDBRANCH  13  16
ENDBRANCH   3  13
TORSDOF 4
ENDMDL
MODEL 9
REMARK VINA RESULT:    -5.536      4.398      8.305
REMARK INTER + INTRA:          -7.666
REMARK INTER:                  -7.214
REMARK INTRA:                  -0.453
REMARK UNBOUND:                -0.836
REMARK  Name = 
REMARK  4 active torsions:
REMARK  status: ('A' for Active; 'I' for Inactive)
REMARK    1  A    between atoms: C_4  and  C_5
REMARK    2  A    between atoms: C_7  and  C_8
REMARK    3  A    between atoms: C_8  and  O_9
REMARK    4  A    between atoms: O_9  and  C_10
REMARK                            x       y       z     vdW  Elec       q    Type
REMARK                         _______ _______ _______ _____ _____    ______ ____
ROOT
ATOM      1  C   UNL     1      47.088   5.258  13.866  0.00  0.00    +0.000 A 
ATOM      2  C   UNL     1      46.971   4.659  15.123  0.00  0.00    +0.000 A 
ATOM      3  C   UNL     1      47.795   5.057  16.188  0.00  0.00    +0.000 A 
ATOM      4  C   UNL     1      48.752   6.040  15.913  0.00  0.00    +0.000 A 
ATOM      5  C   UNL     1      48.819   6.586  14.645  0.00  0.00    +0.000 A 
ATOM      6  N   UNL     1      48.016   6.220  13.628  0.00  0.00    +0.000 NA
ENDROOT
BRANCH   1  10
ATOM      7  C   UNL     1      44.575   4.216  10.519  0.00  0.00    +0.000 A 
ATOM      8  C   UNL     1      45.219   5.449  10.546  0.00  0.00    +0.000 A 
ATOM      9  C   UNL     1      46.030   5.796  11.633  0.00  0.00    +0.000 A 
ATOM     10  C   UNL     1      46.215   4.920  12.720  0.00  0.00    +0.000 A 
ATOM     11  C   UNL     1      45.553   3.678  12.661  0.00  0.00    +0.000 A 
ATOM     12  C   UNL     1      44.741   3.329  11.577  0.00  0.00    +0.000 A 
ENDBRANCH   1  10
BRANCH   3  13
ATOM     13  C   UNL     1      47.639   4.464  17.581  0.00  0.00    +0.000 C 
ATOM     14  C   UNL     1      48.787   3.686  18.193  0.00  0.00    +0.000 C 
ATOM     15  C   UNL     1      47.591   2.943  17.702  0.00  0.00    +0.000 C 
BRANCH  13  16
ATOM     16  O   UNL     1      46.661   5.091  18.445  0.00  0.00    +0.000 OA
BRANCH  16  17
ATOM     17  C   UNL     1      47.100   6.102  19.284  0.00  0.00    +0.000 A 
ATOM     18  C   UNL     1      47.267   5.748  20.617  0.00  0.00    +0.000 A 
ATOM     19  C   UNL     1      47.776   6.696  21.498  0.00  0.00    +0.000 A 
ATOM     20  C   UNL     1      48.105   7.958  21.016  0.00  0.00    +0.000 A 
ATOM     21  C   UNL     1      47.902   8.220  19.670  0.00  0.00    +0.000 A 
ATOM     22  N   UNL     1      47.401   7.323  18.792  0.00  0.00    +0.000 NA
ENDBRANCH  16  17
ENDBRANCH  13  16
ENDBRANCH   3  13
TORSDOF 4
ENDMDL
