MODEL 1
REMARK VINA RESULT:    -7.693      0.000      0.000
REMARK INTER + INTRA:         -10.619
REMARK INTER:                  -9.941
REMARK INTRA:                  -0.678
REMARK UNBOUND:                -0.678
REMARK  Name = 
REMARK  5 active torsions:
REMARK  status: ('A' for Active; 'I' for Inactive)
REMARK    1  A    between atoms: C_2  and  C_3
REMARK    2  A    between atoms: C_6  and  O_7
REMARK    3  A    between atoms: O_7  and  C_8
REMARK    4  A    between atoms: C_8  and  C_9
REMARK    5  A    between atoms: C_14  and  C_15
REMARK                            x       y       z     vdW  Elec       q    Type
REMARK                         _______ _______ _______ _____ _____    ______ ____
ROOT
ATOM      1  C   UNL     1      44.527   5.100  10.673  0.00  0.00    +0.000 A 
ATOM      2  C   UNL     1      43.721   4.225  11.405  0.00  0.00    +0.000 A 
ATOM      3  C   UNL     1      43.637   2.894  11.026  0.00  0.00    +0.000 A 
ATOM      4  F   UNL     1      42.868   2.056  11.736  0.00  0.00    +0.000 F 
ATOM      5  C   UNL     1      44.349   2.406   9.935  0.00  0.00    +0.000 A 
ATOM      6  C   UNL     1      45.168   3.251   9.167  0.00  0.00    +0.000 A 
ATOM      7  C   UNL     1      45.232   4.606   9.557  0.00  0.00    +0.000 A 
ENDROOT
BRANCH   6   8
ATOM      8  C   UNL     1      45.947   2.731   8.015  0.00  0.00    +0.000 A 
ATOM      9  C   UNL     1      46.456   1.418   8.003  0.00  0.00    +0.000 A 
ATOM     10  C   UNL     1      47.225   0.936   6.938  0.00  0.00    +0.000 A 
ATOM     11  C   UNL     1      47.488   1.753   5.844  0.00  0.00    +0.000 A 
ATOM     12  C   UNL     1      46.984   3.048   5.816  0.00  0.00    +0.000 A 
ATOM     13  C   UNL     1      46.228   3.531   6.891  0.00  0.00    +0.000 A 
ENDBRANCH   6   8
BRANCH   1  14
ATOM     14  C   UNL     1      44.688   6.539  11.107  0.00  0.00    +0.000 C 
BRANCH  14  15
ATOM     15  O   UNL     1      44.737   6.605  12.534  0.00  0.00    +0.000 OA
BRANCH  15  19
ATOM     16  C   UNL     1      48.501   7.233  13.934  0.00  0.00    +0.000 A 
ATOM     17  C   UNL     1      47.670   8.306  13.651  0.00  0.00    +0.000 A 
ATOM     18  N   UNL     1      46.408   8.149  13.178  0.00  0.00    +0.000 NA
ATOM     19  C   UNL     1      46.006   6.870  12.998  0.00  0.00    +0.000 A 
ATOM     20  C   UNL     1      46.840   5.795  13.274  0.00  0.00    +0.000 A 
ATOM     21  N   UNL     1      48.104   5.948  13.750  0.00  0.00    +0.000 NA
BRANCH  16  23
ATOM     22  N   UNL     1      50.909   7.625  14.813  0.00  0.00    +0.000 NA
ATOM     23  C   UNL     1      49.820   7.450  14.449  0.00  0.00    +0.000 C 
ENDBRANCH  16  23
ENDBRANCH  15  19
ENDBRANCH  14  15
ENDBRANCH   1  14
TORSDOF 5
ENDMDL
MODEL 2
REMARK VINA RESULT:    -7.679      3.420      6.936
REMARK INTER + INTRA:         -10.601
REMARK INTER:                  -9.991
REMARK INTRA:                  -0.610
REMARK UNBOUND:                -0.678
REMARK  Name = 
REMARK  5 active torsions:
REMARK  status: ('A' for Active; 'I' for Inactive)
REMARK    1  A    between atoms: C_2  and  C_3
REMARK    2  A    between atoms: C_6  and  O_7
REMARK    3  A    between atoms: O_7  and  C_8
REMARK    4  A    between atoms: C_8  and  C_9
REMARK    5  A    between atoms: C_14  and  C_15
REMARK                            x       y       z     vdW  Elec       q    Type
REMARK                         _______ _______ _______ _____ _____    ______ ____
ROOT
ATOM      1  C   UNL     1      45.114   4.275  11.919  0.00  0.00    +0.000 A 
ATOM      2  C   UNL     1      45.736   3.515  12.914  0.00  0.00    +0.000 A 
ATOM      3  C   UNL     1      46.757   4.077  13.666  0.00  0.00    +0.000 A 
ATOM      4  F   UNL     1      47.344   3.348  14.624  0.00  0.00    +0.000 F 
ATOM      5  C   UNL     1      47.171   5.389  13.458  0.00  0.00    +0.000 A 
ATOM      6  C   UNL     1      46.578   6.188  12.466  0.00  0.00    +0.000 A 
ATOM      7  C   UNL     1      45.550   5.597  11.699  0.00  0.00    +0.000 A 
ENDROOT
BRANCH   6   8
ATOM      8  C   UNL     1      47.001   7.595  12.254  0.00  0.00    +0.000 A 
ATOM      9  C   UNL     1      46.082   8.659  12.329  0.00  0.00    +0.000 A 
ATOM     10  C   UNL     1      46.468   9.983  12.090  0.00  0.00    +0.000 A 
ATOM     11  C   UNL     1      47.793  10.278  11.788  0.00  0.00    +0.000 A 
ATOM     12  C   UNL     1      48.729   9.253  11.726  0.00  0.00    +0.000 A 
ATOM     13  C   UNL     1      48.335   7.928  11.950  0.00  0.00    +0.000 A 
ENDBRANCH   6   8
BRANCH   1  14
ATOM     14  C   UNL     1      43.956   3.707  11.133  0.00  0.00    +0.000 C 
BRANCH  14  15
ATOM     15  O   UNL     1      43.929   4.296   9.830  0.00  0.00    +0.000 OA
BRANCH  15  19
ATOM     16  C   UNL     1      46.594   2.433   7.392  0.00  0.00    +0.000 A 
ATOM     17  C   UNL     1      46.404   3.804   7.305  0.00  0.00    +0.000 A 
ATOM     18  N   UNL     1      45.524   4.471   8.093  0.00  0.00    +0.000 NA
ATOM     19  C   UNL     1      44.837   3.710   8.977  0.00  0.00    +0.000 A 
ATOM     20  C   UNL     1      45.022   2.337   9.059  0.00  0.00    +0.000 A 
ATOM     21  N   UNL     1      45.904   1.665   8.273  0.00  0.00    +0.000 NA
BRANCH  16  23
ATOM     22  N   UNL     1      48.284   1.244   5.825  0.00  0.00    +0.000 NA
ATOM     23  C   UNL     1      47.549   1.777   6.549  0.00  0.00    +0.000 C 
ENDBRANCH  16  23
ENDBRANCH  15  19
ENDBRANCH  14  15
ENDBRANCH   1  14
TORSDOF 5
ENDMDL
MODEL 3
REMARK VINA RESULT:    -7.308      2.315      2.843
REMARK INTER + INTRA:         -10.122
REMARK INTER:                  -9.512
REMARK INTRA:                  -0.610
REMARK UNBOUND:                -0.678
REMARK  Name = 
REMARK  5 active torsions:
REMARK  status: ('A' for Active; 'I' for Inactive)
REMARK    1  A    between atoms: C_2  and  C_3
REMARK    2  A    between atoms: C_6  and  O_7
REMARK    3  A    between atoms: O_7  and  C_8
REMARK    4  A    between atoms: C_8  and  C_9
REMARK    5  A    between atoms: C_14  and  C_15
REMARK                            x       y       z     vdW  Elec       q    Type
REMARK                         _______ _______ _______ _____ _____    ______ ____
ROOT
ATOM      1  C   UNL     1      45.245   6.239  11.918  0.00  0.00    +0.000 A 
ATOM      2  C   UNL     1      43.869   6.225  12.157  0.00  0.00    +0.000 A 
ATOM      3  C   UNL     1      43.048   5.423  11.379  0.00  0.00    +0.000 A 
ATOM      4  F   UNL     1      41.729   5.406  11.617  0.00  0.00    +0.000 F 
ATOM      5  C   UNL     1      43.568   4.620  10.368  0.00  0.00    +0.000 A 
ATOM      6  C   UNL     1      44.945   4.607  10.089  0.00  0.00    +0.000 A 
ATOM      7  C   UNL     1      45.766   5.439  10.880  0.00  0.00    +0.000 A 
ENDROOT
BRANCH   6   8
ATOM      8  C   UNL     1      45.508   3.736   9.026  0.00  0.00    +0.000 A 
ATOM      9  C   UNL     1      45.487   2.332   9.137  0.00  0.00    +0.000 A 
ATOM     10  C   UNL     1      46.052   1.509   8.157  0.00  0.00    +0.000 A 
ATOM     11  C   UNL     1      46.638   2.071   7.028  0.00  0.00    +0.000 A 
ATOM     12  C   UNL     1      46.658   3.452   6.879  0.00  0.00    +0.000 A 
ATOM     13  C   UNL     1      46.105   4.274   7.869  0.00  0.00    +0.000 A 
ENDBRANCH   6   8
BRANCH   1  14
ATOM     14  C   UNL     1      46.167   7.054  12.795  0.00  0.00    +0.000 C 
BRANCH  14  15
ATOM     15  O   UNL     1      47.444   6.415  12.868  0.00  0.00    +0.000 OA
BRANCH  15  19
ATOM     16  C   UNL     1      47.958   4.559  16.447  0.00  0.00    +0.000 A 
ATOM     17  C   UNL     1      48.634   5.736  16.164  0.00  0.00    +0.000 A 
ATOM     18  N   UNL     1      48.501   6.391  14.984  0.00  0.00    +0.000 NA
ATOM     19  C   UNL     1      47.658   5.820  14.091  0.00  0.00    +0.000 A 
ATOM     20  C   UNL     1      46.986   4.638  14.371  0.00  0.00    +0.000 A 
ATOM     21  N   UNL     1      47.117   3.980  15.553  0.00  0.00    +0.000 NA
BRANCH  16  23
ATOM     22  N   UNL     1      48.201   3.365  18.736  0.00  0.00    +0.000 NA
ATOM     23  C   UNL     1      48.120   3.915  17.716  0.00  0.00    +0.000 C 
ENDBRANCH  16  23
ENDBRANCH  15  19
ENDBRANCH  14  15
ENDBRANCH   1  14
TORSDOF 5
ENDMDL
MODEL 4
REMARK VINA RESULT:    -7.299      3.881      7.652
REMARK INTER + INTRA:         -10.111
REMARK INTER:                  -9.501
REMARK INTRA:                  -0.610
REMARK UNBOUND:                -0.678
REMARK  Name = 
REMARK  5 active torsions:
REMARK  status: ('A' for Active; 'I' for Inactive)
REMARK    1  A    between atoms: C_2  and  C_3
REMARK    2  A    between atoms: C_6  and  O_7
REMARK    3  A    between atoms: O_7  and  C_8
REMARK    4  A    between atoms: C_8  and  C_9
REMARK    5  A    between atoms: C_14  and  C_15
REMARK                            x       y       z     vdW  Elec       q    Type
REMARK                         _______ _______ _______ _____ _____    ______ ____
ROOT
ATOM      1  C   UNL     1      45.574   4.909  12.205  0.00  0.00    +0.000 A 
ATOM      2  C   UNL     1      46.021   6.113  11.656  0.00  0.00    +0.000 A 
ATOM      3  C   UNL     1      46.967   6.866  12.336  0.00  0.00    +0.000 A 
ATOM      4  F   UNL     1      47.399   8.016  11.802  0.00  0.00    +0.000 F 
ATOM      5  C   UNL     1      47.490   6.441  13.554  0.00  0.00    +0.000 A 
ATOM      6  C   UNL     1      47.066   5.239  14.145  0.00  0.00    +0.000 A 
ATOM      7  C   UNL     1      46.093   4.492  13.448  0.00  0.00    +0.000 A 
ENDROOT
BRANCH   6   8
ATOM      8  C   UNL     1      47.637   4.770  15.433  0.00  0.00    +0.000 A 
ATOM      9  C   UNL     1      48.475   5.594  16.209  0.00  0.00    +0.000 A 
ATOM     10  C   UNL     1      49.048   5.143  17.404  0.00  0.00    +0.000 A 
ATOM     11  C   UNL     1      48.781   3.858  17.863  0.00  0.00    +0.000 A 
ATOM     12  C   UNL     1      47.942   3.026  17.130  0.00  0.00    +0.000 A 
ATOM     13  C   UNL     1      47.383   3.476  15.927  0.00  0.00    +0.000 A 
ENDBRANCH   6   8
BRANCH   1  14
ATOM     14  C   UNL     1      44.594   4.040  11.452  0.00  0.00    +0.000 C 
BRANCH  14  15
ATOM     15  O   UNL     1      44.395   4.572  10.139  0.00  0.00    +0.000 OA
BRANCH  15  19
ATOM     16  C   UNL     1      46.619   2.517   7.429  0.00  0.00    +0.000 A 
ATOM     17  C   UNL     1      46.563   3.902   7.384  0.00  0.00    +0.000 A 
ATOM     18  N   UNL     1      45.832   4.633   8.263  0.00  0.00    +0.000 NA
ATOM     19  C   UNL     1      45.156   3.922   9.194  0.00  0.00    +0.000 A 
ATOM     20  C   UNL     1      45.205   2.535   9.234  0.00  0.00    +0.000 A 
ATOM     21  N   UNL     1      45.938   1.799   8.357  0.00  0.00    +0.000 NA
BRANCH  16  23
ATOM     22  N   UNL     1      48.093   1.253   5.710  0.00  0.00    +0.000 NA
ATOM     23  C   UNL     1      47.420   1.792   6.488  0.00  0.00    +0.000 C 
ENDBRANCH  16  23
ENDBRANCH  15  19
ENDBRANCH  14  15
ENDBRANCH   1  14
TORSDOF 5
ENDMDL
MODEL 5
REMARK VINA RESULT:    -7.090      3.421      6.955
REMARK INTER + INTRA:          -9.841
REMARK INTER:                  -9.095
REMARK INTRA:                  -0.746
REMARK UNBOUND:                -0.678
REMARK  Name = 
REMARK  5 active torsions:
REMARK  status: ('A' for Active; 'I' for Inactive)
REMARK    1  A    between atoms: C_2  and  C_3
REMARK    2  A    between atoms: C_6  and  O_7
REMARK    3  A    between atoms: O_7  and  C_8
REMARK    4  A    between atoms: C_8  and  C_9
REMARK    5  A    between atoms: C_14  and  C_15
REMARK                            x       y       z     vdW  Elec       q    Type
REMARK                         _______ _______ _______ _____ _____    ______ ____
ROOT
ATOM      1  C   UNL     1      44.586   5.005  11.567  0.00  0.00    +0.000 A 
ATOM      2  C   UNL     1      43.690   6.021  11.226  0.00  0.00    +0.000 A 
ATOM      3  C   UNL     1      44.083   7.346  11.339  0.00  0.00    +0.000 A 
ATOM      4  F   UNL     1      43.222   8.317  11.004  0.00  0.00    +0.000 F 
ATOM      5  C   UNL     1      45.359   7.688  11.777  0.00  0.00    +0.000 A 
ATOM      6  C   UNL     1      46.291   6.699  12.135  0.00  0.00    +0.000 A 
ATOM      7  C   UNL     1      45.871   5.355  12.028  0.00  0.00    +0.000 A 
ENDROOT
BRANCH   6   8
ATOM      8  C   UNL     1      47.661   7.057  12.583  0.00  0.00    +0.000 A 
ATOM      9  C   UNL     1      48.074   6.862  13.915  0.00  0.00    +0.000 A 
ATOM     10  C   UNL     1      49.350   7.235  14.351  0.00  0.00    +0.000 A 
ATOM     11  C   UNL     1      50.255   7.797  13.457  0.00  0.00    +0.000 A 
ATOM     12  C   UNL     1      49.884   7.986  12.131  0.00  0.00    +0.000 A 
ATOM     13  C   UNL     1      48.601   7.625  11.702  0.00  0.00    +0.000 A 
ENDBRANCH   6   8
BRANCH   1  14
ATOM     14  C   UNL     1      44.204   3.554  11.388  0.00  0.00    +0.000 C 
BRANCH  14  15
ATOM     15  O   UNL     1      43.654   3.362  10.082  0.00  0.00    +0.000 OA
BRANCH  15  19
ATOM     16  C   UNL     1      46.505   2.183   7.437  0.00  0.00    +0.000 A 
ATOM     17  C   UNL     1      46.031   3.486   7.423  0.00  0.00    +0.000 A 
ATOM     18  N   UNL     1      45.078   3.927   8.281  0.00  0.00    +0.000 NA
ATOM     19  C   UNL     1      44.614   3.009   9.160  0.00  0.00    +0.000 A 
ATOM     20  C   UNL     1      45.082   1.703   9.171  0.00  0.00    +0.000 A 
ATOM     21  N   UNL     1      46.038   1.257   8.314  0.00  0.00    +0.000 NA
BRANCH  16  23
ATOM     22  N   UNL     1      48.341   1.482   5.746  0.00  0.00    +0.000 NA
ATOM     23  C   UNL     1      47.526   1.770   6.521  0.00  0.00    +0.000 C 
ENDBRANCH  16  23
ENDBRANCH  15  19
ENDBRANCH  14  15
ENDBRANCH   1  14
TORSDOF 5
ENDMDL
MODEL 6
REMARK VINA RESULT:    -6.728      3.929      7.630
REMARK INTER + INTRA:          -9.373
REMARK INTER:                  -8.747
REMARK INTRA:                  -0.626
REMARK UNBOUND:                -0.678
REMARK  Name = 
REMARK  5 active torsions:
REMARK  status: ('A' for Active; 'I' for Inactive)
REMARK    1  A    between atoms: C_2  and  C_3
REMARK    2  A    between atoms: C_6  and  O_7
REMARK    3  A    between atoms: O_7  and  C_8
REMARK    4  A    between atoms: C_8  and  C_9
REMARK    5  A    between atoms: C_14  and  C_15
REMARK                            x       y       z     vdW  Elec       q    Type
REMARK                         _______ _______ _______ _____ _____    ______ ____
ROOT
ATOM      1  C   UNL     1      44.627   4.435  10.425  0.00  0.00    +0.000 A 
ATOM      2  C   UNL     1      43.587   4.300  11.348  0.00  0.00    +0.000 A 
ATOM      3  C   UNL     1      43.503   5.179  12.418  0.00  0.00    +0.000 A 
ATOM      4  F   UNL     1      42.499   5.051  13.296  0.00  0.00    +0.000 F 
ATOM      5  C   UNL     1      44.430   6.203  12.587  0.00  0.00    +0.000 A 
ATOM      6  C   UNL     1      45.495   6.373  11.686  0.00  0.00    +0.000 A 
ATOM      7  C   UNL     1      45.575   5.462  10.611  0.00  0.00    +0.000 A 
ENDROOT
BRANCH   6   8
ATOM      8  C   UNL     1      46.475   7.477  11.849  0.00  0.00    +0.000 A 
ATOM      9  C   UNL     1      46.062   8.788  12.155  0.00  0.00    +0.000 A 
ATOM     10  C   UNL     1      46.977   9.840  12.271  0.00  0.00    +0.000 A 
ATOM     11  C   UNL     1      48.337   9.602  12.101  0.00  0.00    +0.000 A 
ATOM     12  C   UNL     1      48.779   8.315  11.817  0.00  0.00    +0.000 A 
ATOM     13  C   UNL     1      47.858   7.268  11.688  0.00  0.00    +0.000 A 
ENDBRANCH   6   8
BRANCH   1  14
ATOM     14  C   UNL     1      44.701   3.532   9.216  0.00  0.00    +0.000 C 
BRANCH  14  15
ATOM     15  O   UNL     1      45.894   2.746   9.279  0.00  0.00    +0.000 OA
BRANCH  15  19
ATOM     16  C   UNL     1      46.905   1.410   5.577  0.00  0.00    +0.000 A 
ATOM     17  C   UNL     1      46.947   0.554   6.667  0.00  0.00    +0.000 A 
ATOM     18  N   UNL     1      46.624   0.952   7.923  0.00  0.00    +0.000 NA
ATOM     19  C   UNL     1      46.254   2.248   8.047  0.00  0.00    +0.000 A 
ATOM     20  C   UNL     1      46.219   3.107   6.958  0.00  0.00    +0.000 A 
ATOM     21  N   UNL     1      46.540   2.711   5.698  0.00  0.00    +0.000 NA
BRANCH  16  23
ATOM     22  N   UNL     1      47.519   0.499   3.228  0.00  0.00    +0.000 NA
ATOM     23  C   UNL     1      47.239   0.936   4.267  0.00  0.00    +0.000 C 
ENDBRANCH  16  23
ENDBRANCH  15  19
ENDBRANCH  14  15
ENDBRANCH   1  14
TORSDOF 5
ENDMDL
MODEL 7
REMARK VINA RESULT:    -6.437      3.583      4.929
REMARK INTER + INTRA:          -8.997
REMARK INTER:                  -8.367
REMARK INTRA:                  -0.630
REMARK UNBOUND:                -0.678
REMARK  Name = 
REMARK  5 active torsions:
REMARK  status: ('A' for Active; 'I' for Inactive)
REMARK    1  A    between atoms: C_2  and  C_3
REMARK    2  A    between atoms: C_6  and  O_7
REMARK    3  A    between atoms: O_7  and  C_8
REMARK    4  A    between atoms: C_8  and  C_9
REMARK    5  A    between atoms: C_14  and  C_15
REMARK                            x       y       z     vdW  Elec       q    Type
REMARK                         _______ _______ _______ _____ _____    ______ ____
ROOT
ATOM      1  C   UNL     1      47.103   7.001  13.306  0.00  0.00    +0.000 A 
ATOM      2  C   UNL     1      46.420   8.218  13.260  0.00  0.00    +0.000 A 
ATOM      3  C   UNL     1      45.410   8.402  12.327  0.00  0.00    +0.000 A 
ATOM      4  F   UNL     1      44.753   9.569  12.292  0.00  0.00    +0.000 F 
ATOM      5  C   UNL     1      45.054   7.392  11.439  0.00  0.00    +0.000 A 
ATOM      6  C   UNL     1      45.717   6.152  11.446  0.00  0.00    +0.000 A 
ATOM      7  C   UNL     1      46.751   5.987  12.392  0.00  0.00    +0.000 A 
ENDROOT
BRANCH   6   8
ATOM      8  C   UNL     1      45.325   5.063  10.516  0.00  0.00    +0.000 A 
ATOM      9  C   UNL     1      44.579   3.953  10.955  0.00  0.00    +0.000 A 
ATOM     10  C   UNL     1      44.243   2.905  10.091  0.00  0.00    +0.000 A 
ATOM     11  C   UNL     1      44.630   2.951   8.756  0.00  0.00    +0.000 A 
ATOM     12  C   UNL     1      45.350   4.043   8.287  0.00  0.00    +0.000 A 
ATOM     13  C   UNL     1      45.698   5.082   9.158  0.00  0.00    +0.000 A 
ENDBRANCH   6   8
BRANCH   1  14
ATOM     14  C   UNL     1      48.161   6.754  14.356  0.00  0.00    +0.000 C 
BRANCH  14  15
ATOM     15  O   UNL     1      48.115   5.385  14.767  0.00  0.00    +0.000 OA
BRANCH  15  19
ATOM     16  C   UNL     1      48.427   4.846  18.783  0.00  0.00    +0.000 A 
ATOM     17  C   UNL     1      48.866   6.024  18.198  0.00  0.00    +0.000 A 
ATOM     18  N   UNL     1      48.788   6.251  16.863  0.00  0.00    +0.000 NA
ATOM     19  C   UNL     1      48.251   5.247  16.131  0.00  0.00    +0.000 A 
ATOM     20  C   UNL     1      47.818   4.065  16.715  0.00  0.00    +0.000 A 
ATOM     21  N   UNL     1      47.893   3.835  18.052  0.00  0.00    +0.000 NA
BRANCH  16  23
ATOM     22  N   UNL     1      48.630   4.477  21.342  0.00  0.00    +0.000 NA
ATOM     23  C   UNL     1      48.515   4.663  20.201  0.00  0.00    +0.000 C 
ENDBRANCH  16  23
ENDBRANCH  15  19
ENDBRANCH  14  15
ENDBRANCH   1  14
TORSDOF 5
ENDMDL
MODEL 8
REMARK VINA RESULT:    -6.358      1.666      2.281
REMARK INTER + INTRA:          -8.895
REMARK INTER:                  -8.098
REMARK INTRA:                  -0.797
REMARK UNBOUND:                -0.678
REMARK  Name = 
REMARK  5 active torsions:
REMARK  status: ('A' for Active; 'I' for Inactive)
REMARK    1  A    between atoms: C_2  and  C_3
REMARK    2  A    between atoms: C_6  and  O_7
REMARK    3  A    between atoms: O_7  and  C_8
REMARK    4  A    between atoms: C_8  and  C_9
REMARK    5  A    between atoms: C_14  and  C_15
REMARK                            x       y       z     vdW  Elec       q    Type
REMARK                         _______ _______ _______ _____ _____    ______ ____
ROOT
ATOM      1  C   UNL     1      44.633   6.210  11.483  0.00  0.00    +0.000 A 
ATOM      2  C   UNL     1      43.934   5.475  12.444  0.00  0.00    +0.000 A 
ATOM      3  C   UNL     1      43.784   4.106  12.282  0.00  0.00    +0.000 A 
ATOM      4  F   UNL     1      43.119   3.404  13.210  0.00  0.00    +0.000 F 
ATOM      5  C   UNL     1      44.326   3.444  11.185  0.00  0.00    +0.000 A 
ATOM      6  C   UNL     1      45.032   4.144  10.192  0.00  0.00    +0.000 A 
ATOM      7  C   UNL     1      45.164   5.538  10.364  0.00  0.00    +0.000 A 
ENDROOT
BRANCH   6   8
ATOM      8  C   UNL     1      45.631   3.439   9.030  0.00  0.00    +0.000 A 
ATOM      9  C   UNL     1      46.127   4.144   7.917  0.00  0.00    +0.000 A 
ATOM     10  C   UNL     1      46.655   3.483   6.802  0.00  0.00    +0.000 A 
ATOM     11  C   UNL     1      46.718   2.094   6.782  0.00  0.00    +0.000 A 
ATOM     12  C   UNL     1      46.254   1.369   7.873  0.00  0.00    +0.000 A 
ATOM     13  C   UNL     1      45.712   2.034   8.980  0.00  0.00    +0.000 A 
ENDBRANCH   6   8
BRANCH   1  14
ATOM     14  C   UNL     1      44.867   7.691  11.672  0.00  0.00    +0.000 C 
BRANCH  14  15
ATOM     15  O   UNL     1      45.620   7.908  12.867  0.00  0.00    +0.000 OA
BRANCH  15  19
ATOM     16  C   UNL     1      49.602   8.150  12.088  0.00  0.00    +0.000 A 
ATOM     17  C   UNL     1      49.058   6.984  12.606  0.00  0.00    +0.000 A 
ATOM     18  N   UNL     1      47.737   6.854  12.887  0.00  0.00    +0.000 NA
ATOM     19  C   UNL     1      46.976   7.943  12.628  0.00  0.00    +0.000 A 
ATOM     20  C   UNL     1      47.520   9.112  12.117  0.00  0.00    +0.000 A 
ATOM     21  N   UNL     1      48.842   9.245  11.832  0.00  0.00    +0.000 NA
BRANCH  16  23
ATOM     22  N   UNL     1      52.131   8.353  11.554  0.00  0.00    +0.000 NA
ATOM     23  C   UNL     1      51.001   8.230  11.792  0.00  0.00    +0.000 C 
ENDBRANCH  16  23
ENDBRANCH  15  19
ENDBRANCH  14  15
ENDBRANCH   1  14
TORSDOF 5
ENDMDL
MODEL 9
REMARK VINA RESULT:    -6.294      4.068      6.260
REMARK INTER + INTRA:          -8.812
REMARK INTER:                  -8.081
REMARK INTRA:                  -0.731
REMARK UNBOUND:                -0.678
REMARK  Name = 
REMARK  5 active torsions:
REMARK  status: ('A' for Active; 'I' for Inactive)
REMARK    1  A    between atoms: C_2  and  C_3
REMARK    2  A    between atoms: C_6  and  O_7
REMARK    3  A    between atoms: O_7  and  C_8
REMARK    4  A    between atoms: C_8  and  C_9
REMARK    5  A    between atoms: C_14  and  C_15
REMARK                            x       y       z     vdW  Elec       q    Type
REMARK                         _______ _______ _______ _____ _____    ______ ____
ROOT
ATOM      1  C   UNL     1      48.288   6.565  14.353  0.00  0.00    +0.000 A 
ATOM      2  C   UNL     1      48.882   7.468  13.468  0.00  0.00    +0.000 A 
ATOM      3  C   UNL     1      48.390   7.584  12.176  0.00  0.00    +0.000 A 
ATOM      4  F   UNL     1      48.958   8.457  11.334  0.00  0.00    +0.000 F 
ATOM      5  C   UNL     1      47.307   6.825  11.743  0.00  0.00    +0.000 A 
ATOM      6  C   UNL     1      46.682   5.901  12.598  0.00  0.00    +0.000 A 
ATOM      7  C   UNL     1      47.203   5.784  13.904  0.00  0.00    +0.000 A 
ENDROOT
BRANCH   6   8
ATOM      8  C   UNL     1      45.512   5.105  12.148  0.00  0.00    +0.000 A 
ATOM      9  C   UNL     1      45.143   5.042  10.790  0.00  0.00    +0.000 A 
ATOM     10  C   UNL     1      44.018   4.326  10.366  0.00  0.00    +0.000 A 
ATOM     11  C   UNL     1      43.242   3.636  11.291  0.00  0.00    +0.000 A 
ATOM     12  C   UNL     1      43.590   3.663  12.636  0.00  0.00    +0.000 A 
ATOM     13  C   UNL     1      44.708   4.393  13.059  0.00  0.00    +0.000 A 
ENDBRANCH   6   8
BRANCH   1  14
ATOM     14  C   UNL     1      48.763   6.469  15.784  0.00  0.00    +0.000 C 
BRANCH  14  15
ATOM     15  O   UNL     1      48.095   5.385  16.437  0.00  0.00    +0.000 OA
BRANCH  15  19
ATOM     16  C   UNL     1      50.750   2.470  17.420  0.00  0.00    +0.000 A 
ATOM     17  C   UNL     1      49.551   2.147  16.803  0.00  0.00    +0.000 A 
ATOM     18  N   UNL     1      48.630   3.082  16.459  0.00  0.00    +0.000 NA
ATOM     19  C   UNL     1      48.958   4.361  16.757  0.00  0.00    +0.000 A 
ATOM     20  C   UNL     1      50.154   4.684  17.382  0.00  0.00    +0.000 A 
ATOM     21  N   UNL     1      51.080   3.750  17.726  0.00  0.00    +0.000 NA
BRANCH  16  23
ATOM     22  N   UNL     1      52.446   0.586  17.968  0.00  0.00    +0.000 NA
ATOM     23  C   UNL     1      51.698   1.447  17.747  0.00  0.00    +0.000 C 
ENDBRANCH  16  23
ENDBRANCH  15  19
ENDBRANCH  14  15
ENDBRANCH   1  14
TORSDOF 5
ENDMDL
