MODEL 1
REMARK VINA RESULT:    -7.925      0.000      0.000
REMARK INTER + INTRA:         -12.815
REMARK INTER:                 -11.632
REMARK INTRA:                  -1.183
REMARK UNBOUND:                -1.183
REMARK  Name = 
REMARK  9 active torsions:
REMARK  status: ('A' for Active; 'I' for Inactive)
REMARK    1  A    between atoms: C_1  and  O_2
REMARK    2  A    between atoms: O_2  and  C_3
REMARK    3  A    between atoms: C_7  and  C_8
REMARK    4  A    between atoms: C_8  and  O_9
REMARK    5  A    between atoms: O_9  and  C_10
REMARK    6  A    between atoms: C_10  and  C_11
REMARK    7  A    between atoms: C_14  and  C_15
REMARK    8  A    between atoms: C_15  and  N_16
REMARK    9  A    between atoms: C_17  and  C_19
REMARK                            x       y       z     vdW  Elec       q    Type
REMARK                         _______ _______ _______ _____ _____    ______ ____
ROOT
ATOM      1  C   UNL     1      44.593   4.333  12.229  0.00  0.00    +0.000 A 
ATOM      2  C   UNL     1      44.969   5.473  11.519  0.00  0.00    +0.000 A 
ATOM      3  C   UNL     1      46.076   6.202  11.944  0.00  0.00    +0.000 A 
ATOM      4  C   UNL     1      46.794   5.775  13.062  0.00  0.00    +0.000 A 
ATOM      5  C   UNL     1      46.322   4.651  13.731  0.00  0.00    +0.000 A 
ATOM      6  N   UNL     1      45.247   3.926  13.345  0.00  0.00    +0.000 NA
ENDROOT
BRANCH   1   7
ATOM      7  C   UNL     1      43.459   3.474  11.722  0.00  0.00    +0.000 C 
BRANCH   7   8
ATOM      8  O   UNL     1      43.586   3.384  10.305  0.00  0.00    +0.000 OA
BRANCH   8   9
ATOM      9  C   UNL     1      44.285   2.215   9.888  0.00  0.00    +0.000 C 
BRANCH   9  14
ATOM     10  C   UNL     1      46.948   1.889   7.367  0.00  0.00    +0.000 A 
ATOM     11  C   UNL     1      47.170   3.177   6.907  0.00  0.00    +0.000 A 
ATOM     12  C   UNL     1      46.430   4.211   7.467  0.00  0.00    +0.000 A 
ATOM     13  C   UNL     1      45.495   3.915   8.455  0.00  0.00    +0.000 A 
ATOM     14  C   UNL     1      45.312   2.589   8.845  0.00  0.00    +0.000 A 
ATOM     15  N   UNL     1      46.046   1.576   8.323  0.00  0.00    +0.000 NA
BRANCH  10  17
ATOM     16  C   UNL     1      47.399   0.717   5.402  0.00  0.00    +0.000 C 
ATOM     17  O   UNL     1      47.698   0.887   6.784  0.00  0.00    +0.000 OA
ENDBRANCH  10  17
ENDBRANCH   9  14
ENDBRANCH   8   9
ENDBRANCH   7   8
ENDBRANCH   1   7
BRANCH   4  18
ATOM     18  C   UNL     1      48.018   6.497  13.534  0.00  0.00    +0.000 C 
BRANCH  18  19
ATOM     19  N   UNL     1      48.097   6.540  14.973  0.00  0.00    +0.000 N 
ATOM     20  C   UNL     1      49.296   6.781  15.597  0.00  0.00    +0.000 C 
ATOM     21  O   UNL     1      50.319   7.018  14.960  0.00  0.00    +0.000 OA
ATOM     22  H   UNL     1      47.324   6.150  15.504  0.00  0.00    +0.000 HD
BRANCH  20  23
ATOM     23  C   UNL     1      49.291   6.797  17.065  0.00  0.00    +0.000 A 
ATOM     24  C   UNL     1      49.522   7.992  17.733  0.00  0.00    +0.000 A 
ATOM     25  S   UNL     1      49.472   7.849  19.430  0.00  0.00    +0.000 S 
ATOM     26  C   UNL     1      49.184   6.175  19.335  0.00  0.00    +0.000 A 
ATOM     27  N   UNL     1      49.076   5.421  20.460  0.00  0.00    +0.000 NA
ATOM     28  C   UNL     1      48.885   4.162  20.243  0.00  0.00    +0.000 A 
ATOM     29  N   UNL     1      48.785   3.591  18.998  0.00  0.00    +0.000 N 
ATOM     30  C   UNL     1      48.852   4.320  17.835  0.00  0.00    +0.000 A 
ATOM     31  O   UNL     1      48.699   3.790  16.738  0.00  0.00    +0.000 OA
ATOM     32  C   UNL     1      49.095   5.738  18.023  0.00  0.00    +0.000 A 
ATOM     33  H   UNL     1      48.617   2.602  18.898  0.00  0.00    +0.000 HD
ENDBRANCH  20  23
ENDBRANCH  18  19
ENDBRANCH   4  18
TORSDOF 8
ENDMDL
MODEL 2
REMARK VINA RESULT:    -7.344      1.406      1.937
REMARK INTER + INTRA:         -11.962
REMARK INTER:                 -10.976
REMARK INTRA:                  -0.986
REMARK UNBOUND:                -1.183
REMARK  Name = 
REMARK  9 active torsions:
REMARK  status: ('A' for Active; 'I' for Inactive)
REMARK    1  A    between atoms: C_1  and  O_2
REMARK    2  A    between atoms: O_2  and  C_3
REMARK    3  A    between atoms: C_7  and  C_8
REMARK    4  A    between atoms: C_8  and  O_9
REMARK    5  A    between atoms: O_9  and  C_10
REMARK    6  A    between atoms: C_10  and  C_11
REMARK    7  A    between atoms: C_14  and  C_15
REMARK    8  A    between atoms: C_15  and  N_16
REMARK    9  A    between atoms: C_17  and  C_19
REMARK                            x       y       z     vdW  Elec       q    Type
REMARK                         _______ _______ _______ _____ _____    ______ ____
ROOT
ATOM      1  C   UNL     1      44.446   4.404  12.202  0.00  0.00    +0.000 A 
ATOM      2  C   UNL     1      44.909   5.528  11.518  0.00  0.00    +0.000 A 
ATOM      3  C   UNL     1      46.009   6.220  12.018  0.00  0.00    +0.000 A 
ATOM      4  C   UNL     1      46.633   5.774  13.184  0.00  0.00    +0.000 A 
ATOM      5  C   UNL     1      46.077   4.669  13.820  0.00  0.00    +0.000 A 
ATOM      6  N   UNL     1      45.007   3.979  13.362  0.00  0.00    +0.000 NA
ENDROOT
BRANCH   1   7
ATOM      7  C   UNL     1      43.320   3.582  11.620  0.00  0.00    +0.000 C 
BRANCH   7   8
ATOM      8  O   UNL     1      43.552   3.467  10.217  0.00  0.00    +0.000 OA
BRANCH   8   9
ATOM      9  C   UNL     1      44.305   2.308   9.877  0.00  0.00    +0.000 C 
BRANCH   9  14
ATOM     10  C   UNL     1      46.966   1.941   7.361  0.00  0.00    +0.000 A 
ATOM     11  C   UNL     1      47.180   3.218   6.871  0.00  0.00    +0.000 A 
ATOM     12  C   UNL     1      46.435   4.260   7.408  0.00  0.00    +0.000 A 
ATOM     13  C   UNL     1      45.502   3.982   8.404  0.00  0.00    +0.000 A 
ATOM     14  C   UNL     1      45.328   2.664   8.824  0.00  0.00    +0.000 A 
ATOM     15  N   UNL     1      46.068   1.643   8.325  0.00  0.00    +0.000 NA
BRANCH  10  17
ATOM     16  C   UNL     1      47.402   0.705   5.432  0.00  0.00    +0.000 C 
ATOM     17  O   UNL     1      47.723   0.930   6.801  0.00  0.00    +0.000 OA
ENDBRANCH  10  17
ENDBRANCH   9  14
ENDBRANCH   8   9
ENDBRANCH   7   8
ENDBRANCH   1   7
BRANCH   4  18
ATOM     18  C   UNL     1      47.846   6.455  13.738  0.00  0.00    +0.000 C 
BRANCH  18  19
ATOM     19  N   UNL     1      48.060   6.127  15.126  0.00  0.00    +0.000 N 
ATOM     20  C   UNL     1      48.841   6.932  15.918  0.00  0.00    +0.000 C 
ATOM     21  O   UNL     1      49.334   7.974  15.492  0.00  0.00    +0.000 OA
ATOM     22  H   UNL     1      47.838   5.185  15.432  0.00  0.00    +0.000 HD
BRANCH  20  23
ATOM     23  C   UNL     1      49.017   6.521  17.316  0.00  0.00    +0.000 A 
ATOM     24  C   UNL     1      49.666   5.326  17.597  0.00  0.00    +0.000 A 
ATOM     25  S   UNL     1      49.802   4.995  19.263  0.00  0.00    +0.000 S 
ATOM     26  C   UNL     1      48.957   6.415  19.669  0.00  0.00    +0.000 A 
ATOM     27  N   UNL     1      48.688   6.721  20.965  0.00  0.00    +0.000 NA
ATOM     28  C   UNL     1      48.017   7.812  21.130  0.00  0.00    +0.000 A 
ATOM     29  N   UNL     1      47.597   8.630  20.110  0.00  0.00    +0.000 N 
ATOM     30  C   UNL     1      47.876   8.380  18.788  0.00  0.00    +0.000 A 
ATOM     31  O   UNL     1      47.539   9.161  17.903  0.00  0.00    +0.000 OA
ATOM     32  C   UNL     1      48.605   7.148  18.547  0.00  0.00    +0.000 A 
ATOM     33  H   UNL     1      47.090   9.479  20.308  0.00  0.00    +0.000 HD
ENDBRANCH  20  23
ENDBRANCH  18  19
ENDBRANCH   4  18
TORSDOF 8
ENDMDL
MODEL 3
REMARK VINA RESULT:    -7.321      3.003      8.719
REMARK INTER + INTRA:         -11.929
REMARK INTER:                 -10.461
REMARK INTRA:                  -1.468
REMARK UNBOUND:                -1.183
REMARK  Name = 
REMARK  9 active torsions:
REMARK  status: ('A' for Active; 'I' for Inactive)
REMARK    1  A    between atoms: C_1  and  O_2
REMARK    2  A    between atoms: O_2  and  C_3
REMARK    3  A    between atoms: C_7  and  C_8
REMARK    4  A    between atoms: C_8  and  O_9
REMARK    5  A    between atoms: O_9  and  C_10
REMARK    6  A    between atoms: C_10  and  C_11
REMARK    7  A    between atoms: C_14  and  C_15
REMARK    8  A    between atoms: C_15  and  N_16
REMARK    9  A    between atoms: C_17  and  C_19
REMARK                            x       y       z     vdW  Elec       q    Type
REMARK                         _______ _______ _______ _____ _____    ______ ____
ROOT
ATOM      1  C   UNL     1      49.719   8.035  15.522  0.00  0.00    +0.000 A 
ATOM      2  C   UNL     1      48.764   9.036  15.347  0.00  0.00    +0.000 A 
ATOM      3  C   UNL     1      48.014   9.060  14.174  0.00  0.00    +0.000 A 
ATOM      4  C   UNL     1      48.220   8.079  13.204  0.00  0.00    +0.000 A 
ATOM      5  C   UNL     1      49.221   7.143  13.447  0.00  0.00    +0.000 A 
ATOM      6  N   UNL     1      49.970   7.099  14.573  0.00  0.00    +0.000 NA
ENDROOT
BRANCH   1   7
ATOM      7  C   UNL     1      50.469   7.933  16.829  0.00  0.00    +0.000 C 
BRANCH   7   8
ATOM      8  O   UNL     1      49.820   6.941  17.622  0.00  0.00    +0.000 OA
BRANCH   8   9
ATOM      9  C   UNL     1      50.644   5.804  17.863  0.00  0.00    +0.000 C 
BRANCH   9  14
ATOM     10  C   UNL     1      48.070   3.626  16.387  0.00  0.00    +0.000 A 
ATOM     11  C   UNL     1      48.577   2.342  16.496  0.00  0.00    +0.000 A 
ATOM     12  C   UNL     1      49.813   2.174  17.107  0.00  0.00    +0.000 A 
ATOM     13  C   UNL     1      50.495   3.294  17.575  0.00  0.00    +0.000 A 
ATOM     14  C   UNL     1      49.928   4.557  17.403  0.00  0.00    +0.000 A 
ATOM     15  N   UNL     1      48.711   4.730  16.831  0.00  0.00    +0.000 NA
BRANCH  10  17
ATOM     16  C   UNL     1      46.939   4.352  14.482  0.00  0.00    +0.000 C 
ATOM     17  O   UNL     1      46.841   3.755  15.771  0.00  0.00    +0.000 OA
ENDBRANCH  10  17
ENDBRANCH   9  14
ENDBRANCH   8   9
ENDBRANCH   7   8
ENDBRANCH   1   7
BRANCH   4  18
ATOM     18  C   UNL     1      47.409   8.032  11.946  0.00  0.00    +0.000 C 
BRANCH  18  19
ATOM     19  N   UNL     1      46.753   6.759  11.775  0.00  0.00    +0.000 N 
ATOM     20  C   UNL     1      45.393   6.696  11.598  0.00  0.00    +0.000 C 
ATOM     21  O   UNL     1      44.704   7.711  11.528  0.00  0.00    +0.000 OA
ATOM     22  H   UNL     1      47.266   5.921  12.032  0.00  0.00    +0.000 HD
BRANCH  20  23
ATOM     23  C   UNL     1      44.804   5.361  11.443  0.00  0.00    +0.000 A 
ATOM     24  C   UNL     1      44.049   4.825  12.478  0.00  0.00    +0.000 A 
ATOM     25  S   UNL     1      43.424   3.277  12.141  0.00  0.00    +0.000 S 
ATOM     26  C   UNL     1      44.177   3.246  10.615  0.00  0.00    +0.000 A 
ATOM     27  N   UNL     1      44.073   2.158   9.808  0.00  0.00    +0.000 NA
ATOM     28  C   UNL     1      44.715   2.258   8.692  0.00  0.00    +0.000 A 
ATOM     29  N   UNL     1      45.448   3.354   8.308  0.00  0.00    +0.000 N 
ATOM     30  C   UNL     1      45.551   4.489   9.075  0.00  0.00    +0.000 A 
ATOM     31  O   UNL     1      46.163   5.476   8.679  0.00  0.00    +0.000 OA
ATOM     32  C   UNL     1      44.869   4.418  10.354  0.00  0.00    +0.000 A 
ATOM     33  H   UNL     1      45.912   3.375   7.413  0.00  0.00    +0.000 HD
ENDBRANCH  20  23
ENDBRANCH  18  19
ENDBRANCH   4  18
TORSDOF 8
ENDMDL
MODEL 4
REMARK VINA RESULT:    -7.303      2.848      5.372
REMARK INTER + INTRA:         -11.902
REMARK INTER:                 -10.985
REMARK INTRA:                  -0.917
REMARK UNBOUND:                -1.183
REMARK  Name = 
REMARK  9 active torsions:
REMARK  status: ('A' for Active; 'I' for Inactive)
REMARK    1  A    between atoms: C_1  and  O_2
REMARK    2  A    between atoms: O_2  and  C_3
REMARK    3  A    between atoms: C_7  and  C_8
REMARK    4  A    between atoms: C_8  and  O_9
REMARK    5  A    between atoms: O_9  and  C_10
REMARK    6  A    between atoms: C_10  and  C_11
REMARK    7  A    between atoms: C_14  and  C_15
REMARK    8  A    between atoms: C_15  and  N_16
REMARK    9  A    between atoms: C_17  and  C_19
REMARK                            x       y       z     vdW  Elec       q    Type
REMARK                         _______ _______ _______ _____ _____    ______ ____
ROOT
ATOM      1  C   UNL     1      46.037   3.464   7.667  0.00  0.00    +0.000 A 
ATOM      2  C   UNL     1      45.446   2.447   8.416  0.00  0.00    +0.000 A 
ATOM      3  C   UNL     1      44.851   2.761   9.635  0.00  0.00    +0.000 A 
ATOM      4  C   UNL     1      44.847   4.083  10.080  0.00  0.00    +0.000 A 
ATOM      5  C   UNL     1      45.495   5.024   9.286  0.00  0.00    +0.000 A 
ATOM      6  N   UNL     1      46.086   4.748   8.100  0.00  0.00    +0.000 NA
ENDROOT
BRANCH   1   7
ATOM      7  C   UNL     1      46.595   3.160   6.297  0.00  0.00    +0.000 C 
BRANCH   7   8
ATOM      8  O   UNL     1      46.715   1.743   6.185  0.00  0.00    +0.000 OA
BRANCH   8   9
ATOM      9  C   UNL     1      47.658   1.347   5.194  0.00  0.00    +0.000 C 
BRANCH   9  14
ATOM     10  C   UNL     1      46.562  -1.579   3.248  0.00  0.00    +0.000 A 
ATOM     11  C   UNL     1      45.697  -1.075   2.291  0.00  0.00    +0.000 A 
ATOM     12  C   UNL     1      45.480   0.297   2.262  0.00  0.00    +0.000 A 
ATOM     13  C   UNL     1      46.126   1.105   3.193  0.00  0.00    +0.000 A 
ATOM     14  C   UNL     1      46.961   0.516   4.142  0.00  0.00    +0.000 A 
ATOM     15  N   UNL     1      47.201  -0.818   4.163  0.00  0.00    +0.000 NA
BRANCH  10  17
ATOM     16  C   UNL     1      46.625  -3.513   4.550  0.00  0.00    +0.000 C 
ATOM     17  O   UNL     1      46.752  -2.947   3.249  0.00  0.00    +0.000 OA
ENDBRANCH  10  17
ENDBRANCH   9  14
ENDBRANCH   8   9
ENDBRANCH   7   8
ENDBRANCH   1   7
BRANCH   4  18
ATOM     18  C   UNL     1      44.182   4.481  11.361  0.00  0.00    +0.000 C 
BRANCH  18  19
ATOM     19  N   UNL     1      45.123   5.017  12.313  0.00  0.00    +0.000 N 
ATOM     20  C   UNL     1      45.886   4.176  13.085  0.00  0.00    +0.000 C 
ATOM     21  O   UNL     1      45.832   2.956  12.957  0.00  0.00    +0.000 OA
ATOM     22  H   UNL     1      45.032   5.994  12.573  0.00  0.00    +0.000 HD
BRANCH  20  23
ATOM     23  C   UNL     1      46.811   4.804  14.036  0.00  0.00    +0.000 A 
ATOM     24  C   UNL     1      46.945   4.266  15.310  0.00  0.00    +0.000 A 
ATOM     25  S   UNL     1      48.064   5.097  16.290  0.00  0.00    +0.000 S 
ATOM     26  C   UNL     1      48.376   6.234  15.063  0.00  0.00    +0.000 A 
ATOM     27  N   UNL     1      49.234   7.266  15.271  0.00  0.00    +0.000 NA
ATOM     28  C   UNL     1      49.358   8.069  14.267  0.00  0.00    +0.000 A 
ATOM     29  N   UNL     1      48.704   7.926  13.068  0.00  0.00    +0.000 N 
ATOM     30  C   UNL     1      47.856   6.879  12.802  0.00  0.00    +0.000 A 
ATOM     31  O   UNL     1      47.332   6.744  11.700  0.00  0.00    +0.000 OA
ATOM     32  C   UNL     1      47.660   5.962  13.909  0.00  0.00    +0.000 A 
ATOM     33  H   UNL     1      48.859   8.580  12.317  0.00  0.00    +0.000 HD
ENDBRANCH  20  23
ENDBRANCH  18  19
ENDBRANCH   4  18
TORSDOF 8
ENDMDL
MODEL 5
REMARK VINA RESULT:    -7.166      3.916      8.585
REMARK INTER + INTRA:         -11.701
REMARK INTER:                  -9.843
REMARK INTRA:                  -1.858
REMARK UNBOUND:                -1.183
REMARK  Name = 
REMARK  9 active torsions:
REMARK  status: ('A' for Active; 'I' for Inactive)
REMARK    1  A    between atoms: C_1  and  O_2
REMARK    2  A    between atoms: O_2  and  C_3
REMARK    3  A    between atoms: C_7  and  C_8
REMARK    4  A    between atoms: C_8  and  O_9
REMARK    5  A    between atoms: O_9  and  C_10
REMARK    6  A    between atoms: C_10  and  C_11
REMARK    7  A    between atoms: C_14  and  C_15
REMARK    8  A    between atoms: C_15  and  N_16
REMARK    9  A    between atoms: C_17  and  C_19
REMARK                            x       y       z     vdW  Elec       q    Type
REMARK                         _______ _______ _______ _____ _____    ______ ____
ROOT
ATOM      1  C   UNL     1      49.964   7.352  18.600  0.00  0.00    +0.000 A 
ATOM      2  C   UNL     1      48.842   8.173  18.496  0.00  0.00    +0.000 A 
ATOM      3  C   UNL     1      48.386   8.540  17.232  0.00  0.00    +0.000 A 
ATOM      4  C   UNL     1      49.050   8.074  16.098  0.00  0.00    +0.000 A 
ATOM      5  C   UNL     1      50.184   7.293  16.299  0.00  0.00    +0.000 A 
ATOM      6  N   UNL     1      50.653   6.924  17.513  0.00  0.00    +0.000 NA
ENDROOT
BRANCH   1   7
ATOM      7  C   UNL     1      50.410   6.860  19.957  0.00  0.00    +0.000 C 
BRANCH   7   8
ATOM      8  O   UNL     1      50.398   5.434  19.924  0.00  0.00    +0.000 OA
BRANCH   8   9
ATOM      9  C   UNL     1      49.087   4.893  20.050  0.00  0.00    +0.000 C 
BRANCH   9  14
ATOM     10  C   UNL     1      49.148   2.744  17.062  0.00  0.00    +0.000 A 
ATOM     11  C   UNL     1      47.976   3.035  16.383  0.00  0.00    +0.000 A 
ATOM     12  C   UNL     1      47.134   4.003  16.914  0.00  0.00    +0.000 A 
ATOM     13  C   UNL     1      47.490   4.632  18.104  0.00  0.00    +0.000 A 
ATOM     14  C   UNL     1      48.675   4.263  18.741  0.00  0.00    +0.000 A 
ATOM     15  N   UNL     1      49.517   3.338  18.218  0.00  0.00    +0.000 NA
BRANCH  10  17
ATOM     16  C   UNL     1      51.151   1.567  17.258  0.00  0.00    +0.000 C 
ATOM     17  O   UNL     1      49.959   1.774  16.507  0.00  0.00    +0.000 OA
ENDBRANCH  10  17
ENDBRANCH   9  14
ENDBRANCH   8   9
ENDBRANCH   7   8
ENDBRANCH   1   7
BRANCH   4  18
ATOM     18  C   UNL     1      48.575   8.402  14.716  0.00  0.00    +0.000 C 
BRANCH  18  19
ATOM     19  N   UNL     1      47.522   7.516  14.284  0.00  0.00    +0.000 N 
ATOM     20  C   UNL     1      47.788   6.499  13.402  0.00  0.00    +0.000 C 
ATOM     21  O   UNL     1      48.926   6.277  12.996  0.00  0.00    +0.000 OA
ATOM     22  H   UNL     1      46.562   7.806  14.442  0.00  0.00    +0.000 HD
BRANCH  20  23
ATOM     23  C   UNL     1      46.658   5.650  13.005  0.00  0.00    +0.000 A 
ATOM     24  C   UNL     1      46.739   4.277  13.195  0.00  0.00    +0.000 A 
ATOM     25  S   UNL     1      45.346   3.432  12.696  0.00  0.00    +0.000 S 
ATOM     26  C   UNL     1      44.600   4.867  12.167  0.00  0.00    +0.000 A 
ATOM     27  N   UNL     1      43.373   4.841  11.585  0.00  0.00    +0.000 NA
ATOM     28  C   UNL     1      42.937   5.996  11.205  0.00  0.00    +0.000 A 
ATOM     29  N   UNL     1      43.618   7.178  11.363  0.00  0.00    +0.000 N 
ATOM     30  C   UNL     1      44.845   7.256  11.978  0.00  0.00    +0.000 A 
ATOM     31  O   UNL     1      45.403   8.334  12.158  0.00  0.00    +0.000 OA
ATOM     32  C   UNL     1      45.393   5.980  12.398  0.00  0.00    +0.000 A 
ATOM     33  H   UNL     1      43.213   8.050  11.060  0.00  0.00    +0.000 HD
ENDBRANCH  20  23
ENDBRANCH  18  19
ENDBRANCH   4  18
TORSDOF 8
ENDMDL
MODEL 6
REMARK VINA RESULT:    -7.128      2.199      3.863
REMARK INTER + INTRA:         -11.644
REMARK INTER:                 -11.052
REMARK INTRA:                  -0.592
REMARK UNBOUND:                -1.183
REMARK  Name = 
REMARK  9 active torsions:
REMARK  status: ('A' for Active; 'I' for Inactive)
REMARK    1  A    between atoms: C_1  and  O_2
REMARK    2  A    between atoms: O_2  and  C_3
REMARK    3  A    between atoms: C_7  and  C_8
REMARK    4  A    between atoms: C_8  and  O_9
REMARK    5  A    between atoms: O_9  and  C_10
REMARK    6  A    between atoms: C_10  and  C_11
REMARK    7  A    between atoms: C_14  and  C_15
REMARK    8  A    between atoms: C_15  and  N_16
REMARK    9  A    between atoms: C_17  and  C_19
REMARK                            x       y       z     vdW  Elec       q    Type
REMARK                         _______ _______ _______ _____ _____    ______ ____
ROOT
ATOM      1  C   UNL     1      45.343   3.628   8.690  0.00  0.00    +0.000 A 
ATOM      2  C   UNL     1      45.615   4.918   9.145  0.00  0.00    +0.000 A 
ATOM      3  C   UNL     1      45.221   5.280  10.431  0.00  0.00    +0.000 A 
ATOM      4  C   UNL     1      44.574   4.347  11.241  0.00  0.00    +0.000 A 
ATOM      5  C   UNL     1      44.308   3.098  10.689  0.00  0.00    +0.000 A 
ATOM      6  N   UNL     1      44.674   2.720   9.442  0.00  0.00    +0.000 NA
ENDROOT
BRANCH   1   7
ATOM      7  C   UNL     1      45.853   3.187   7.338  0.00  0.00    +0.000 C 
BRANCH   7   8
ATOM      8  O   UNL     1      46.635   2.010   7.536  0.00  0.00    +0.000 OA
BRANCH   8   9
ATOM      9  C   UNL     1      47.700   1.894   6.598  0.00  0.00    +0.000 C 
BRANCH   9  14
ATOM     10  C   UNL     1      46.787  -0.764   4.220  0.00  0.00    +0.000 A 
ATOM     11  C   UNL     1      46.257  -0.103   3.125  0.00  0.00    +0.000 A 
ATOM     12  C   UNL     1      46.218   1.286   3.152  0.00  0.00    +0.000 A 
ATOM     13  C   UNL     1      46.702   1.955   4.273  0.00  0.00    +0.000 A 
ATOM     14  C   UNL     1      47.196   1.214   5.347  0.00  0.00    +0.000 A 
ATOM     15  N   UNL     1      47.262  -0.140   5.320  0.00  0.00    +0.000 NA
BRANCH  10  17
ATOM     16  C   UNL     1      46.104  -2.648   3.029  0.00  0.00    +0.000 C 
ATOM     17  O   UNL     1      46.806  -2.143   4.160  0.00  0.00    +0.000 OA
ENDBRANCH  10  17
ENDBRANCH   9  14
ENDBRANCH   8   9
ENDBRANCH   7   8
ENDBRANCH   1   7
BRANCH   4  18
ATOM     18  C   UNL     1      44.170   4.671  12.647  0.00  0.00    +0.000 C 
BRANCH  18  19
ATOM     19  N   UNL     1      45.234   5.312  13.379  0.00  0.00    +0.000 N 
ATOM     20  C   UNL     1      46.287   4.576  13.863  0.00  0.00    +0.000 C 
ATOM     21  O   UNL     1      46.385   3.371  13.647  0.00  0.00    +0.000 OA
ATOM     22  H   UNL     1      45.068   6.248  13.737  0.00  0.00    +0.000 HD
BRANCH  20  23
ATOM     23  C   UNL     1      47.322   5.305  14.606  0.00  0.00    +0.000 A 
ATOM     24  C   UNL     1      48.000   6.345  13.985  0.00  0.00    +0.000 A 
ATOM     25  S   UNL     1      49.160   7.098  14.981  0.00  0.00    +0.000 S 
ATOM     26  C   UNL     1      48.829   6.031  16.264  0.00  0.00    +0.000 A 
ATOM     27  N   UNL     1      49.522   6.108  17.431  0.00  0.00    +0.000 NA
ATOM     28  C   UNL     1      49.189   5.222  18.310  0.00  0.00    +0.000 A 
ATOM     29  N   UNL     1      48.217   4.268  18.127  0.00  0.00    +0.000 N 
ATOM     30  C   UNL     1      47.468   4.177  16.978  0.00  0.00    +0.000 A 
ATOM     31  O   UNL     1      46.566   3.352  16.867  0.00  0.00    +0.000 OA
ATOM     32  C   UNL     1      47.823   5.133  15.947  0.00  0.00    +0.000 A 
ATOM     33  H   UNL     1      47.993   3.615  18.862  0.00  0.00    +0.000 HD
ENDBRANCH  20  23
ENDBRANCH  18  19
ENDBRANCH   4  18
TORSDOF 8
ENDMDL
MODEL 7
REMARK VINA RESULT:    -7.106      4.933      7.029
REMARK INTER + INTRA:         -11.612
REMARK INTER:                 -10.596
REMARK INTRA:                  -1.016
REMARK UNBOUND:                -1.183
REMARK  Name = 
REMARK  9 active torsions:
REMARK  status: ('A' for Active; 'I' for Inactive)
REMARK    1  A    between atoms: C_1  and  O_2
REMARK    2  A    between atoms: O_2  and  C_3
REMARK    3  A    between atoms: C_7  and  C_8
REMARK    4  A    between atoms: C_8  and  O_9
REMARK    5  A    between atoms: O_9  and  C_10
REMARK    6  A    between atoms: C_10  and  C_11
REMARK    7  A    between atoms: C_14  and  C_15
REMARK    8  A    between atoms: C_15  and  N_16
REMARK    9  A    between atoms: C_17  and  C_19
REMARK                            x       y       z     vdW  Elec       q    Type
REMARK                         _______ _______ _______ _____ _____    ______ ____
ROOT
ATOM      1  C   UNL     1      45.838   2.364   8.199  0.00  0.00    +0.000 A 
ATOM      2  C   UNL     1      45.989   3.733   7.980  0.00  0.00    +0.000 A 
ATOM      3  C   UNL     1      45.279   4.630   8.774  0.00  0.00    +0.000 A 
ATOM      4  C   UNL     1      44.441   4.145   9.779  0.00  0.00    +0.000 A 
ATOM      5  C   UNL     1      44.321   2.765   9.898  0.00  0.00    +0.000 A 
ATOM      6  N   UNL     1      44.994   1.869   9.138  0.00  0.00    +0.000 NA
ENDROOT
BRANCH   1   7
ATOM      7  C   UNL     1      46.678   1.382   7.417  0.00  0.00    +0.000 C 
BRANCH   7   8
ATOM      8  O   UNL     1      46.868   1.922   6.111  0.00  0.00    +0.000 OA
BRANCH   8   9
ATOM      9  C   UNL     1      47.733   1.126   5.307  0.00  0.00    +0.000 C 
BRANCH   9  14
ATOM     10  C   UNL     1      46.268  -1.448   3.122  0.00  0.00    +0.000 A 
ATOM     11  C   UNL     1      45.486  -0.752   2.216  0.00  0.00    +0.000 A 
ATOM     12  C   UNL     1      45.456   0.634   2.305  0.00  0.00    +0.000 A 
ATOM     13  C   UNL     1      46.198   1.265   3.300  0.00  0.00    +0.000 A 
ATOM     14  C   UNL     1      46.939   0.489   4.191  0.00  0.00    +0.000 A 
ATOM     15  N   UNL     1      46.997  -0.862   4.097  0.00  0.00    +0.000 NA
BRANCH  10  17
ATOM     16  C   UNL     1      46.618  -3.473   4.225  0.00  0.00    +0.000 C 
ATOM     17  O   UNL     1      46.272  -2.825   3.005  0.00  0.00    +0.000 OA
ENDBRANCH  10  17
ENDBRANCH   9  14
ENDBRANCH   8   9
ENDBRANCH   7   8
ENDBRANCH   1   7
BRANCH   4  18
ATOM     18  C   UNL     1      43.690   5.067  10.689  0.00  0.00    +0.000 C 
BRANCH  18  19
ATOM     19  N   UNL     1      44.325   6.357  10.795  0.00  0.00    +0.000 N 
ATOM     20  C   UNL     1      44.803   6.800  12.003  0.00  0.00    +0.000 C 
ATOM     21  O   UNL     1      44.754   6.101  13.012  0.00  0.00    +0.000 OA
ATOM     22  H   UNL     1      44.190   7.017  10.035  0.00  0.00    +0.000 HD
BRANCH  20  23
ATOM     23  C   UNL     1      45.426   8.129  12.025  0.00  0.00    +0.000 A 
ATOM     24  C   UNL     1      46.711   8.270  12.533  0.00  0.00    +0.000 A 
ATOM     25  S   UNL     1      47.299   9.868  12.479  0.00  0.00    +0.000 S 
ATOM     26  C   UNL     1      45.840  10.439  11.815  0.00  0.00    +0.000 A 
ATOM     27  N   UNL     1      45.662  11.760  11.555  0.00  0.00    +0.000 NA
ATOM     28  C   UNL     1      44.499  12.060  11.079  0.00  0.00    +0.000 A 
ATOM     29  N   UNL     1      43.499  11.151  10.832  0.00  0.00    +0.000 N 
ATOM     30  C   UNL     1      43.648   9.802  11.045  0.00  0.00    +0.000 A 
ATOM     31  O   UNL     1      42.758   9.007  10.758  0.00  0.00    +0.000 OA
ATOM     32  C   UNL     1      44.928   9.416  11.607  0.00  0.00    +0.000 A 
ATOM     33  H   UNL     1      42.619  11.449  10.441  0.00  0.00    +0.000 HD
ENDBRANCH  20  23
ENDBRANCH  18  19
ENDBRANCH   4  18
TORSDOF 8
ENDMDL
MODEL 8
REMARK VINA RESULT:    -7.079      1.570      1.724
REMARK INTER + INTRA:         -11.573
REMARK INTER:                 -10.449
REMARK INTRA:                  -1.124
REMARK UNBOUND:                -1.183
REMARK  Name = 
REMARK  9 active torsions:
REMARK  status: ('A' for Active; 'I' for Inactive)
REMARK    1  A    between atoms: C_1  and  O_2
REMARK    2  A    between atoms: O_2  and  C_3
REMARK    3  A    between atoms: C_7  and  C_8
REMARK    4  A    between atoms: C_8  and  O_9
REMARK    5  A    between atoms: O_9  and  C_10
REMARK    6  A    between atoms: C_10  and  C_11
REMARK    7  A    between atoms: C_14  and  C_15
REMARK    8  A    between atoms: C_15  and  N_16
REMARK    9  A    between atoms: C_17  and  C_19
REMARK                            x       y       z     vdW  Elec       q    Type
REMARK                         _______ _______ _______ _____ _____    ______ ____
ROOT
ATOM      1  C   UNL     1      44.957   4.204  12.418  0.00  0.00    +0.000 A 
ATOM      2  C   UNL     1      44.892   5.333  11.601  0.00  0.00    +0.000 A 
ATOM      3  C   UNL     1      45.769   6.389  11.834  0.00  0.00    +0.000 A 
ATOM      4  C   UNL     1      46.701   6.296  12.868  0.00  0.00    +0.000 A 
ATOM      5  C   UNL     1      46.666   5.150  13.656  0.00  0.00    +0.000 A 
ATOM      6  N   UNL     1      45.823   4.110  13.457  0.00  0.00    +0.000 NA
ENDROOT
BRANCH   1   7
ATOM      7  C   UNL     1      44.085   3.008  12.116  0.00  0.00    +0.000 C 
BRANCH   7   8
ATOM      8  O   UNL     1      43.632   3.134  10.769  0.00  0.00    +0.000 OA
BRANCH   8   9
ATOM      9  C   UNL     1      44.033   2.040   9.950  0.00  0.00    +0.000 C 
BRANCH   9  14
ATOM     10  C   UNL     1      46.829   1.971   7.557  0.00  0.00    +0.000 A 
ATOM     11  C   UNL     1      46.951   3.274   7.104  0.00  0.00    +0.000 A 
ATOM     12  C   UNL     1      46.092   4.232   7.626  0.00  0.00    +0.000 A 
ATOM     13  C   UNL     1      45.143   3.849   8.570  0.00  0.00    +0.000 A 
ATOM     14  C   UNL     1      45.068   2.510   8.955  0.00  0.00    +0.000 A 
ATOM     15  N   UNL     1      45.918   1.572   8.471  0.00  0.00    +0.000 NA
BRANCH  10  17
ATOM     16  C   UNL     1      47.743   1.110   5.592  0.00  0.00    +0.000 C 
ATOM     17  O   UNL     1      47.698   1.044   7.014  0.00  0.00    +0.000 OA
ENDBRANCH  10  17
ENDBRANCH   9  14
ENDBRANCH   8   9
ENDBRANCH   7   8
ENDBRANCH   1   7
BRANCH   4  18
ATOM     18  C   UNL     1      47.696   7.383  13.131  0.00  0.00    +0.000 C 
BRANCH  18  19
ATOM     19  N   UNL     1      48.828   6.907  13.888  0.00  0.00    +0.000 N 
ATOM     20  C   UNL     1      49.155   7.485  15.089  0.00  0.00    +0.000 C 
ATOM     21  O   UNL     1      48.473   8.381  15.581  0.00  0.00    +0.000 OA
ATOM     22  H   UNL     1      49.507   6.323  13.409  0.00  0.00    +0.000 HD
BRANCH  20  23
ATOM     23  C   UNL     1      50.327   6.947  15.789  0.00  0.00    +0.000 A 
ATOM     24  C   UNL     1      51.574   7.516  15.565  0.00  0.00    +0.000 A 
ATOM     25  S   UNL     1      52.830   6.790  16.459  0.00  0.00    +0.000 S 
ATOM     26  C   UNL     1      51.760   5.658  17.144  0.00  0.00    +0.000 A 
ATOM     27  N   UNL     1      52.211   4.697  17.992  0.00  0.00    +0.000 NA
ATOM     28  C   UNL     1      51.299   3.887  18.417  0.00  0.00    +0.000 A 
ATOM     29  N   UNL     1      49.971   3.959  18.073  0.00  0.00    +0.000 N 
ATOM     30  C   UNL     1      49.465   4.934  17.248  0.00  0.00    +0.000 A 
ATOM     31  O   UNL     1      48.264   5.008  17.007  0.00  0.00    +0.000 OA
ATOM     32  C   UNL     1      50.456   5.854  16.720  0.00  0.00    +0.000 A 
ATOM     33  H   UNL     1      49.305   3.305  18.455  0.00  0.00    +0.000 HD
ENDBRANCH  20  23
ENDBRANCH  18  19
ENDBRANCH   4  18
TORSDOF 8
ENDMDL
MODEL 9
REMARK VINA RESULT:    -6.997      3.034      4.103
REMARK INTER + INTRA:         -11.453
REMARK INTER:                 -10.358
REMARK INTRA:                  -1.095
REMARK UNBOUND:                -1.183
REMARK  Name = 
REMARK  9 active torsions:
REMARK  status: ('A' for Active; 'I' for Inactive)
REMARK    1  A    between atoms: C_1  and  O_2
REMARK    2  A    between atoms: O_2  and  C_3
REMARK    3  A    between atoms: C_7  and  C_8
REMARK    4  A    between atoms: C_8  and  O_9
REMARK    5  A    between atoms: O_9  and  C_10
REMARK    6  A    between atoms: C_10  and  C_11
REMARK    7  A    between atoms: C_14  and  C_15
REMARK    8  A    between atoms: C_15  and  N_16
REMARK    9  A    between atoms: C_17  and  C_19
REMARK                            x       y       z     vdW  Elec       q    Type
REMARK                         _______ _______ _______ _____ _____    ______ ____
ROOT
ATOM      1  C   UNL     1      47.288   5.304  13.982  0.00  0.00    +0.000 A 
ATOM      2  C   UNL     1      46.942   4.352  14.940  0.00  0.00    +0.000 A 
ATOM      3  C   UNL     1      47.412   4.500  16.242  0.00  0.00    +0.000 A 
ATOM      4  C   UNL     1      48.208   5.598  16.567  0.00  0.00    +0.000 A 
ATOM      5  C   UNL     1      48.535   6.475  15.538  0.00  0.00    +0.000 A 
ATOM      6  N   UNL     1      48.098   6.355  14.263  0.00  0.00    +0.000 NA
ENDROOT
BRANCH   1   7
ATOM      7  C   UNL     1      46.703   5.216  12.592  0.00  0.00    +0.000 C 
BRANCH   7   8
ATOM      8  O   UNL     1      45.283   5.193  12.722  0.00  0.00    +0.000 OA
BRANCH   8   9
ATOM      9  C   UNL     1      44.616   5.628  11.541  0.00  0.00    +0.000 C 
BRANCH   9  14
ATOM     10  C   UNL     1      45.648   4.044   8.383  0.00  0.00    +0.000 A 
ATOM     11  C   UNL     1      45.172   2.746   8.457  0.00  0.00    +0.000 A 
ATOM     12  C   UNL     1      44.454   2.373   9.586  0.00  0.00    +0.000 A 
ATOM     13  C   UNL     1      44.249   3.309  10.596  0.00  0.00    +0.000 A 
ATOM     14  C   UNL     1      44.783   4.590  10.457  0.00  0.00    +0.000 A 
ATOM     15  N   UNL     1      45.463   4.971   9.349  0.00  0.00    +0.000 NA
BRANCH  10  17
ATOM     16  C   UNL     1      46.608   3.252   6.411  0.00  0.00    +0.000 C 
ATOM     17  O   UNL     1      46.360   4.378   7.248  0.00  0.00    +0.000 OA
ENDBRANCH  10  17
ENDBRANCH   9  14
ENDBRANCH   8   9
ENDBRANCH   7   8
ENDBRANCH   1   7
BRANCH   4  18
ATOM     18  C   UNL     1      48.702   5.828  17.962  0.00  0.00    +0.000 C 
BRANCH  18  19
ATOM     19  N   UNL     1      49.756   4.911  18.319  0.00  0.00    +0.000 N 
ATOM     20  C   UNL     1      51.069   5.235  18.085  0.00  0.00    +0.000 C 
ATOM     21  O   UNL     1      51.392   6.325  17.619  0.00  0.00    +0.000 OA
ATOM     22  H   UNL     1      49.502   3.945  18.508  0.00  0.00    +0.000 HD
BRANCH  20  23
ATOM     23  C   UNL     1      52.078   4.240  18.468  0.00  0.00    +0.000 A 
ATOM     24  C   UNL     1      53.153   4.630  19.257  0.00  0.00    +0.000 A 
ATOM     25  S   UNL     1      54.229   3.362  19.625  0.00  0.00    +0.000 S 
ATOM     26  C   UNL     1      53.322   2.254  18.706  0.00  0.00    +0.000 A 
ATOM     27  N   UNL     1      53.727   0.964  18.570  0.00  0.00    +0.000 NA
ATOM     28  C   UNL     1      52.962   0.239  17.823  0.00  0.00    +0.000 A 
ATOM     29  N   UNL     1      51.821   0.689  17.207  0.00  0.00    +0.000 N 
ATOM     30  C   UNL     1      51.354   1.974  17.345  0.00  0.00    +0.000 A 
ATOM     31  O   UNL     1      50.299   2.330  16.830  0.00  0.00    +0.000 OA
ATOM     32  C   UNL     1      52.195   2.838  18.152  0.00  0.00    +0.000 A 
ATOM     33  H   UNL     1      51.257   0.065  16.650  0.00  0.00    +0.000 HD
ENDBRANCH  20  23
ENDBRANCH  18  19
ENDBRANCH   4  18
TORSDOF 8
ENDMDL
