MODEL 1
REMARK VINA RESULT:    -8.213      0.000      0.000
REMARK INTER + INTRA:         -13.151
REMARK INTER:                 -12.055
REMARK INTRA:                  -1.096
REMARK UNBOUND:                -1.096
REMARK  Name = 
REMARK  10 active torsions:
REMARK  status: ('A' for Active; 'I' for Inactive)
REMARK    1  A    between atoms: C_1  and  C_2
REMARK    2  A    between atoms: C_2  and  N_3
REMARK    3  A    between atoms: C_2  and  C_21
REMARK    4  A    between atoms: N_3  and  C_4
REMARK    5  A    between atoms: C_4  and  C_5
REMARK    6  A    between atoms: C_9  and  C_10
REMARK    7  A    between atoms: C_10  and  N_11
REMARK    8  A    between atoms: N_11  and  C_12
REMARK    9  A    between atoms: N_11  and  C_13
REMARK   10  A    between atoms: C_13  and  C_14
REMARK                            x       y       z     vdW  Elec       q    Type
REMARK                         _______ _______ _______ _____ _____    ______ ____
ROOT
ATOM      1  C   UNL     1      47.258   4.309  15.414  0.00  0.00    +0.000 C 
ENDROOT
BRANCH   1   2
ATOM      2  C   UNL     1      47.027   5.153  14.174  0.00  0.00    +0.000 A 
ATOM      3  C   UNL     1      47.988   6.086  13.754  0.00  0.00    +0.000 A 
ATOM      4  C   UNL     1      47.762   6.888  12.637  0.00  0.00    +0.000 A 
ATOM      5  C   UNL     1      46.596   6.735  11.890  0.00  0.00    +0.000 A 
ATOM      6  C   UNL     1      45.648   5.767  12.245  0.00  0.00    +0.000 A 
ATOM      7  C   UNL     1      45.861   4.997  13.402  0.00  0.00    +0.000 A 
BRANCH   6   8
ATOM      8  C   UNL     1      44.468   5.496  11.330  0.00  0.00    +0.000 C 
BRANCH   8   9
ATOM      9  N   UNL     1      44.380   4.112  10.823  0.00  0.00    +0.000 NA
ATOM     10  C   UNL     1      43.244   3.410  11.436  0.00  0.00    +0.000 C 
BRANCH   9  11
ATOM     11  C   UNL     1      44.185   4.133   9.351  0.00  0.00    +0.000 C 
BRANCH  11  12
ATOM     12  C   UNL     1      45.250   3.399   8.553  0.00  0.00    +0.000 A 
ATOM     13  C   UNL     1      45.477   2.039   8.762  0.00  0.00    +0.000 A 
ATOM     14  C   UNL     1      46.442   1.391   7.997  0.00  0.00    +0.000 A 
ATOM     15  C   UNL     1      47.155   2.113   7.047  0.00  0.00    +0.000 A 
ATOM     16  C   UNL     1      46.879   3.461   6.908  0.00  0.00    +0.000 A 
ATOM     17  N   UNL     1      45.947   4.119   7.635  0.00  0.00    +0.000 NA
ENDBRANCH  11  12
ENDBRANCH   9  11
ENDBRANCH   8   9
ENDBRANCH   6   8
ENDBRANCH   1   2
BRANCH   1  18
ATOM     18  N   UNL     1      48.545   4.625  16.033  0.00  0.00    +0.000 NA
ATOM     19  H   UNL     1      49.219   3.916  15.753  0.00  0.00    +0.000 HD
BRANCH  18  21
ATOM     20  C   UNL     1      48.054   6.029  18.036  0.00  0.00    +0.000 C 
ATOM     21  C   UNL     1      48.526   4.671  17.501  0.00  0.00    +0.000 C 
BRANCH  21  22
ATOM     22  C   UNL     1      49.959   4.388  17.933  0.00  0.00    +0.000 A 
ATOM     23  C   UNL     1      50.748   5.316  18.599  0.00  0.00    +0.000 A 
ATOM     24  S   UNL     1      52.326   4.765  18.924  0.00  0.00    +0.000 S 
ATOM     25  C   UNL     1      52.020   3.268  18.175  0.00  0.00    +0.000 A 
ATOM     26  N   UNL     1      52.992   2.319  18.090  0.00  0.00    +0.000 NA
ATOM     27  C   UNL     1      52.621   1.235  17.497  0.00  0.00    +0.000 A 
ATOM     28  N   UNL     1      51.366   1.006  16.991  0.00  0.00    +0.000 N 
ATOM     29  C   UNL     1      50.341   1.928  17.070  0.00  0.00    +0.000 A 
ATOM     30  O   UNL     1      49.223   1.676  16.634  0.00  0.00    +0.000 OA
ATOM     31  C   UNL     1      50.719   3.177  17.708  0.00  0.00    +0.000 A 
ATOM     32  H   UNL     1      51.137   0.130  16.553  0.00  0.00    +0.000 HD
ENDBRANCH  21  22
ENDBRANCH  18  21
ENDBRANCH   1  18
TORSDOF 8
ENDMDL
MODEL 2
REMARK VINA RESULT:    -8.016      2.234      3.068
REMARK INTER + INTRA:         -12.861
REMARK INTER:                 -11.475
REMARK INTRA:                  -1.386
REMARK UNBOUND:                -1.096
REMARK  Name = 
REMARK  10 active torsions:
REMARK  status: ('A' for Active; 'I' for Inactive)
REMARK    1  A    between atoms: C_1  and  C_2
REMARK    2  A    between atoms: C_2  and  N_3
REMARK    3  A    between atoms: C_2  and  C_21
REMARK    4  A    between atoms: N_3  and  C_4
REMARK    5  A    between atoms: C_4  and  C_5
REMARK    6  A    between atoms: C_9  and  C_10
REMARK    7  A    between atoms: C_10  and  N_11
REMARK    8  A    between atoms: N_11  and  C_12
REMARK    9  A    between atoms: N_11  and  C_13
REMARK   10  A    between atoms: C_13  and  C_14
REMARK                            x       y       z     vdW  Elec       q    Type
REMARK                         _______ _______ _______ _____ _____    ______ ____
ROOT
ATOM      1  C   UNL     1      48.954   7.110  12.328  0.00  0.00    +0.000 C 
ENDROOT
BRANCH   1   2
ATOM      2  C   UNL     1      47.479   7.370  12.084  0.00  0.00    +0.000 A 
ATOM      3  C   UNL     1      46.969   8.678  12.117  0.00  0.00    +0.000 A 
ATOM      4  C   UNL     1      45.609   8.917  11.931  0.00  0.00    +0.000 A 
ATOM      5  C   UNL     1      44.744   7.860  11.656  0.00  0.00    +0.000 A 
ATOM      6  C   UNL     1      45.234   6.551  11.551  0.00  0.00    +0.000 A 
ATOM      7  C   UNL     1      46.598   6.314  11.791  0.00  0.00    +0.000 A 
BRANCH   6   8
ATOM      8  C   UNL     1      44.314   5.437  11.086  0.00  0.00    +0.000 C 
BRANCH   8   9
ATOM      9  N   UNL     1      44.969   4.127  10.904  0.00  0.00    +0.000 NA
ATOM     10  C   UNL     1      44.789   3.289  12.097  0.00  0.00    +0.000 C 
BRANCH   9  11
ATOM     11  C   UNL     1      44.368   3.428   9.739  0.00  0.00    +0.000 C 
BRANCH  11  12
ATOM     12  C   UNL     1      45.365   2.920   8.711  0.00  0.00    +0.000 A 
ATOM     13  C   UNL     1      45.905   3.789   7.763  0.00  0.00    +0.000 A 
ATOM     14  C   UNL     1      46.836   3.298   6.852  0.00  0.00    +0.000 A 
ATOM     15  C   UNL     1      47.202   1.959   6.907  0.00  0.00    +0.000 A 
ATOM     16  C   UNL     1      46.613   1.160   7.871  0.00  0.00    +0.000 A 
ATOM     17  N   UNL     1      45.708   1.606   8.771  0.00  0.00    +0.000 NA
ENDBRANCH  11  12
ENDBRANCH   9  11
ENDBRANCH   8   9
ENDBRANCH   6   8
ENDBRANCH   1   2
BRANCH   1  18
ATOM     18  N   UNL     1      49.170   6.484  13.632  0.00  0.00    +0.000 NA
ATOM     19  H   UNL     1      48.609   5.635  13.678  0.00  0.00    +0.000 HD
BRANCH  18  21
ATOM     20  C   UNL     1      49.604   8.634  14.821  0.00  0.00    +0.000 C 
ATOM     21  C   UNL     1      48.811   7.322  14.783  0.00  0.00    +0.000 C 
BRANCH  21  22
ATOM     22  C   UNL     1      49.112   6.473  16.012  0.00  0.00    +0.000 A 
ATOM     23  C   UNL     1      50.115   6.782  16.921  0.00  0.00    +0.000 A 
ATOM     24  S   UNL     1      50.275   5.643  18.177  0.00  0.00    +0.000 S 
ATOM     25  C   UNL     1      49.018   4.686  17.547  0.00  0.00    +0.000 A 
ATOM     26  N   UNL     1      48.656   3.523  18.155  0.00  0.00    +0.000 NA
ATOM     27  C   UNL     1      47.690   2.899  17.570  0.00  0.00    +0.000 A 
ATOM     28  N   UNL     1      47.043   3.335  16.440  0.00  0.00    +0.000 N 
ATOM     29  C   UNL     1      47.360   4.516  15.799  0.00  0.00    +0.000 A 
ATOM     30  O   UNL     1      46.739   4.889  14.808  0.00  0.00    +0.000 OA
ATOM     31  C   UNL     1      48.461   5.242  16.408  0.00  0.00    +0.000 A 
ATOM     32  H   UNL     1      46.285   2.807  16.042  0.00  0.00    +0.000 HD
ENDBRANCH  21  22
ENDBRANCH  18  21
ENDBRANCH   1  18
TORSDOF 8
ENDMDL
MODEL 3
REMARK VINA RESULT:    -7.212      4.869      7.431
REMARK INTER + INTRA:         -11.681
REMARK INTER:                 -10.687
REMARK INTRA:                  -0.994
REMARK UNBOUND:                -1.096
REMARK  Name = 
REMARK  10 active torsions:
REMARK  status: ('A' for Active; 'I' for Inactive)
REMARK    1  A    between atoms: C_1  and  C_2
REMARK    2  A    between atoms: C_2  and  N_3
REMARK    3  A    between atoms: C_2  and  C_21
REMARK    4  A    between atoms: N_3  and  C_4
REMARK    5  A    between atoms: C_4  and  C_5
REMARK    6  A    between atoms: C_9  and  C_10
REMARK    7  A    between atoms: C_10  and  N_11
REMARK    8  A    between atoms: N_11  and  C_12
REMARK    9  A    between atoms: N_11  and  C_13
REMARK   10  A    between atoms: C_13  and  C_14
REMARK                            x       y       z     vdW  Elec       q    Type
REMARK                         _______ _______ _______ _____ _____    ______ ____
ROOT
ATOM      1  C   UNL     1      48.870   7.507  12.461  0.00  0.00    +0.000 C 
ENDROOT
BRANCH   1   2
ATOM      2  C   UNL     1      47.832   6.494  12.907  0.00  0.00    +0.000 A 
ATOM      3  C   UNL     1      47.915   5.894  14.173  0.00  0.00    +0.000 A 
ATOM      4  C   UNL     1      46.985   4.936  14.571  0.00  0.00    +0.000 A 
ATOM      5  C   UNL     1      45.924   4.601  13.732  0.00  0.00    +0.000 A 
ATOM      6  C   UNL     1      45.776   5.230  12.490  0.00  0.00    +0.000 A 
ATOM      7  C   UNL     1      46.748   6.158  12.076  0.00  0.00    +0.000 A 
BRANCH   6   8
ATOM      8  C   UNL     1      44.528   4.980  11.662  0.00  0.00    +0.000 C 
BRANCH   8   9
ATOM      9  N   UNL     1      44.482   3.666  10.991  0.00  0.00    +0.000 NA
ATOM     10  C   UNL     1      43.401   2.841  11.545  0.00  0.00    +0.000 C 
BRANCH   9  11
ATOM     11  C   UNL     1      44.234   3.858   9.539  0.00  0.00    +0.000 C 
BRANCH  11  12
ATOM     12  C   UNL     1      45.304   3.285   8.624  0.00  0.00    +0.000 A 
ATOM     13  C   UNL     1      45.631   1.930   8.684  0.00  0.00    +0.000 A 
ATOM     14  C   UNL     1      46.597   1.431   7.814  0.00  0.00    +0.000 A 
ATOM     15  C   UNL     1      47.212   2.292   6.913  0.00  0.00    +0.000 A 
ATOM     16  C   UNL     1      46.839   3.625   6.925  0.00  0.00    +0.000 A 
ATOM     17  N   UNL     1      45.904   4.140   7.755  0.00  0.00    +0.000 NA
ENDBRANCH  11  12
ENDBRANCH   9  11
ENDBRANCH   8   9
ENDBRANCH   6   8
ENDBRANCH   1   2
BRANCH   1  18
ATOM     18  N   UNL     1      48.263   8.561  11.648  0.00  0.00    +0.000 NA
ATOM     19  H   UNL     1      48.582   8.450  10.688  0.00  0.00    +0.000 HD
BRANCH  18  21
ATOM     20  C   UNL     1      48.477  10.108  13.593  0.00  0.00    +0.000 C 
ATOM     21  C   UNL     1      48.585   9.928  12.074  0.00  0.00    +0.000 C 
BRANCH  21  22
ATOM     22  C   UNL     1      47.586  10.823  11.352  0.00  0.00    +0.000 A 
ATOM     23  C   UNL     1      47.965  11.827  10.470  0.00  0.00    +0.000 A 
ATOM     24  S   UNL     1      46.656  12.713   9.838  0.00  0.00    +0.000 S 
ATOM     25  C   UNL     1      45.532  11.797  10.727  0.00  0.00    +0.000 A 
ATOM     26  N   UNL     1      44.199  12.065  10.652  0.00  0.00    +0.000 NA
ATOM     27  C   UNL     1      43.463  11.294  11.379  0.00  0.00    +0.000 A 
ATOM     28  N   UNL     1      43.934  10.271  12.165  0.00  0.00    +0.000 N 
ATOM     29  C   UNL     1      45.273   9.947  12.259  0.00  0.00    +0.000 A 
ATOM     30  O   UNL     1      45.653   9.006  12.948  0.00  0.00    +0.000 OA
ATOM     31  C   UNL     1      46.144  10.806  11.476  0.00  0.00    +0.000 A 
ATOM     32  H   UNL     1      43.303   9.696  12.696  0.00  0.00    +0.000 HD
ENDBRANCH  21  22
ENDBRANCH  18  21
ENDBRANCH   1  18
TORSDOF 8
ENDMDL
MODEL 4
REMARK VINA RESULT:    -7.176      1.309      1.604
REMARK INTER + INTRA:         -11.628
REMARK INTER:                 -10.565
REMARK INTRA:                  -1.063
REMARK UNBOUND:                -1.096
REMARK  Name = 
REMARK  10 active torsions:
REMARK  status: ('A' for Active; 'I' for Inactive)
REMARK    1  A    between atoms: C_1  and  C_2
REMARK    2  A    between atoms: C_2  and  N_3
REMARK    3  A    between atoms: C_2  and  C_21
REMARK    4  A    between atoms: N_3  and  C_4
REMARK    5  A    between atoms: C_4  and  C_5
REMARK    6  A    between atoms: C_9  and  C_10
REMARK    7  A    between atoms: C_10  and  N_11
REMARK    8  A    between atoms: N_11  and  C_12
REMARK    9  A    between atoms: N_11  and  C_13
REMARK   10  A    between atoms: C_13  and  C_14
REMARK                            x       y       z     vdW  Elec       q    Type
REMARK                         _______ _______ _______ _____ _____    ______ ____
ROOT
ATOM      1  C   UNL     1      48.084   5.616  15.102  0.00  0.00    +0.000 C 
ENDROOT
BRANCH   1   2
ATOM      2  C   UNL     1      47.449   5.951  13.764  0.00  0.00    +0.000 A 
ATOM      3  C   UNL     1      48.144   6.715  12.814  0.00  0.00    +0.000 A 
ATOM      4  C   UNL     1      47.551   7.056  11.600  0.00  0.00    +0.000 A 
ATOM      5  C   UNL     1      46.273   6.594  11.293  0.00  0.00    +0.000 A 
ATOM      6  C   UNL     1      45.579   5.774  12.193  0.00  0.00    +0.000 A 
ATOM      7  C   UNL     1      46.166   5.478  13.436  0.00  0.00    +0.000 A 
BRANCH   6   8
ATOM      8  C   UNL     1      44.264   5.141  11.777  0.00  0.00    +0.000 C 
BRANCH   8   9
ATOM      9  N   UNL     1      44.375   3.768  11.248  0.00  0.00    +0.000 NA
ATOM     10  C   UNL     1      43.469   2.862  11.967  0.00  0.00    +0.000 C 
BRANCH   9  11
ATOM     11  C   UNL     1      44.010   3.758   9.808  0.00  0.00    +0.000 C 
BRANCH  11  12
ATOM     12  C   UNL     1      45.078   3.202   8.880  0.00  0.00    +0.000 A 
ATOM     13  C   UNL     1      45.782   4.052   8.027  0.00  0.00    +0.000 A 
ATOM     14  C   UNL     1      46.772   3.515   7.208  0.00  0.00    +0.000 A 
ATOM     15  C   UNL     1      47.032   2.151   7.258  0.00  0.00    +0.000 A 
ATOM     16  C   UNL     1      46.281   1.375   8.124  0.00  0.00    +0.000 A 
ATOM     17  N   UNL     1      45.315   1.865   8.932  0.00  0.00    +0.000 NA
ENDBRANCH  11  12
ENDBRANCH   9  11
ENDBRANCH   8   9
ENDBRANCH   6   8
ENDBRANCH   1   2
BRANCH   1  18
ATOM     18  N   UNL     1      48.421   6.831  15.843  0.00  0.00    +0.000 NA
ATOM     19  H   UNL     1      49.255   7.240  15.427  0.00  0.00    +0.000 HD
BRANCH  18  21
ATOM     20  C   UNL     1      48.556   7.921  18.083  0.00  0.00    +0.000 C 
ATOM     21  C   UNL     1      48.687   6.625  17.272  0.00  0.00    +0.000 C 
BRANCH  21  22
ATOM     22  C   UNL     1      50.109   6.083  17.346  0.00  0.00    +0.000 A 
ATOM     23  C   UNL     1      51.234   6.880  17.182  0.00  0.00    +0.000 A 
ATOM     24  S   UNL     1      52.700   6.018  17.262  0.00  0.00    +0.000 S 
ATOM     25  C   UNL     1      51.887   4.544  17.505  0.00  0.00    +0.000 A 
ATOM     26  N   UNL     1      52.580   3.379  17.633  0.00  0.00    +0.000 NA
ATOM     27  C   UNL     1      51.836   2.340  17.811  0.00  0.00    +0.000 A 
ATOM     28  N   UNL     1      50.466   2.357  17.887  0.00  0.00    +0.000 N 
ATOM     29  C   UNL     1      49.720   3.515  17.783  0.00  0.00    +0.000 A 
ATOM     30  O   UNL     1      48.498   3.496  17.886  0.00  0.00    +0.000 OA
ATOM     31  C   UNL     1      50.513   4.710  17.556  0.00  0.00    +0.000 A 
ATOM     32  H   UNL     1      49.946   1.511  18.044  0.00  0.00    +0.000 HD
ENDBRANCH  21  22
ENDBRANCH  18  21
ENDBRANCH   1  18
TORSDOF 8
ENDMDL
MODEL 5
REMARK VINA RESULT:    -7.170      2.876      3.817
REMARK INTER + INTRA:         -11.619
REMARK INTER:                 -10.928
REMARK INTRA:                  -0.691
REMARK UNBOUND:                -1.096
REMARK  Name = 
REMARK  10 active torsions:
REMARK  status: ('A' for Active; 'I' for Inactive)
REMARK    1  A    between atoms: C_1  and  C_2
REMARK    2  A    between atoms: C_2  and  N_3
REMARK    3  A    between atoms: C_2  and  C_21
REMARK    4  A    between atoms: N_3  and  C_4
REMARK    5  A    between atoms: C_4  and  C_5
REMARK    6  A    between atoms: C_9  and  C_10
REMARK    7  A    between atoms: C_10  and  N_11
REMARK    8  A    between atoms: N_11  and  C_12
REMARK    9  A    between atoms: N_11  and  C_13
REMARK   10  A    between atoms: C_13  and  C_14
REMARK                            x       y       z     vdW  Elec       q    Type
REMARK                         _______ _______ _______ _____ _____    ______ ____
ROOT
ATOM      1  C   UNL     1      48.258   6.436  13.354  0.00  0.00    +0.000 C 
ENDROOT
BRANCH   1   2
ATOM      2  C   UNL     1      46.945   6.747  12.658  0.00  0.00    +0.000 A 
ATOM      3  C   UNL     1      46.439   8.056  12.638  0.00  0.00    +0.000 A 
ATOM      4  C   UNL     1      45.216   8.339  12.033  0.00  0.00    +0.000 A 
ATOM      5  C   UNL     1      44.503   7.328  11.392  0.00  0.00    +0.000 A 
ATOM      6  C   UNL     1      45.014   6.024  11.337  0.00  0.00    +0.000 A 
ATOM      7  C   UNL     1      46.223   5.739  11.994  0.00  0.00    +0.000 A 
BRANCH   6   8
ATOM      8  C   UNL     1      44.313   4.975  10.494  0.00  0.00    +0.000 C 
BRANCH   8   9
ATOM      9  N   UNL     1      44.677   3.580  10.810  0.00  0.00    +0.000 NA
ATOM     10  C   UNL     1      43.959   3.116  12.004  0.00  0.00    +0.000 C 
BRANCH   9  11
ATOM     11  C   UNL     1      44.316   2.700   9.669  0.00  0.00    +0.000 C 
BRANCH  11  12
ATOM     12  C   UNL     1      45.411   2.514   8.631  0.00  0.00    +0.000 A 
ATOM     13  C   UNL     1      45.850   3.595   7.867  0.00  0.00    +0.000 A 
ATOM     14  C   UNL     1      46.872   3.396   6.944  0.00  0.00    +0.000 A 
ATOM     15  C   UNL     1      47.428   2.130   6.805  0.00  0.00    +0.000 A 
ATOM     16  C   UNL     1      46.928   1.108   7.593  0.00  0.00    +0.000 A 
ATOM     17  N   UNL     1      45.938   1.268   8.499  0.00  0.00    +0.000 NA
ENDBRANCH  11  12
ENDBRANCH   9  11
ENDBRANCH   8   9
ENDBRANCH   6   8
ENDBRANCH   1   2
BRANCH   1  18
ATOM     18  N   UNL     1      48.032   5.983  14.726  0.00  0.00    +0.000 NA
ATOM     19  H   UNL     1      47.029   5.969  14.899  0.00  0.00    +0.000 HD
BRANCH  18  21
ATOM     20  C   UNL     1      50.104   7.188  15.418  0.00  0.00    +0.000 C 
ATOM     21  C   UNL     1      48.654   6.820  15.759  0.00  0.00    +0.000 C 
BRANCH  21  22
ATOM     22  C   UNL     1      48.593   5.995  17.039  0.00  0.00    +0.000 A 
ATOM     23  C   UNL     1      48.876   4.636  17.081  0.00  0.00    +0.000 A 
ATOM     24  S   UNL     1      48.685   3.944  18.625  0.00  0.00    +0.000 S 
ATOM     25  C   UNL     1      48.205   5.432  19.295  0.00  0.00    +0.000 A 
ATOM     26  N   UNL     1      47.868   5.527  20.611  0.00  0.00    +0.000 NA
ATOM     27  C   UNL     1      47.523   6.713  20.983  0.00  0.00    +0.000 A 
ATOM     28  N   UNL     1      47.494   7.816  20.166  0.00  0.00    +0.000 N 
ATOM     29  C   UNL     1      47.846   7.775  18.832  0.00  0.00    +0.000 A 
ATOM     30  O   UNL     1      47.838   8.788  18.140  0.00  0.00    +0.000 OA
ATOM     31  C   UNL     1      48.218   6.453  18.360  0.00  0.00    +0.000 A 
ATOM     32  H   UNL     1      47.230   8.718  20.525  0.00  0.00    +0.000 HD
ENDBRANCH  21  22
ENDBRANCH  18  21
ENDBRANCH   1  18
TORSDOF 8
ENDMDL
MODEL 6
REMARK VINA RESULT:    -6.932      3.354      8.783
REMARK INTER + INTRA:         -11.270
REMARK INTER:                  -9.801
REMARK INTRA:                  -1.469
REMARK UNBOUND:                -1.096
REMARK  Name = 
REMARK  10 active torsions:
REMARK  status: ('A' for Active; 'I' for Inactive)
REMARK    1  A    between atoms: C_1  and  C_2
REMARK    2  A    between atoms: C_2  and  N_3
REMARK    3  A    between atoms: C_2  and  C_21
REMARK    4  A    between atoms: N_3  and  C_4
REMARK    5  A    between atoms: C_4  and  C_5
REMARK    6  A    between atoms: C_9  and  C_10
REMARK    7  A    between atoms: C_10  and  N_11
REMARK    8  A    between atoms: N_11  and  C_12
REMARK    9  A    between atoms: N_11  and  C_13
REMARK   10  A    between atoms: C_13  and  C_14
REMARK                            x       y       z     vdW  Elec       q    Type
REMARK                         _______ _______ _______ _____ _____    ______ ____
ROOT
ATOM      1  C   UNL     1      47.525   6.210  12.784  0.00  0.00    +0.000 C 
ENDROOT
BRANCH   1   2
ATOM      2  C   UNL     1      48.784   6.902  13.271  0.00  0.00    +0.000 A 
ATOM      3  C   UNL     1      49.499   7.765  12.426  0.00  0.00    +0.000 A 
ATOM      4  C   UNL     1      50.676   8.373  12.858  0.00  0.00    +0.000 A 
ATOM      5  C   UNL     1      51.131   8.171  14.159  0.00  0.00    +0.000 A 
ATOM      6  C   UNL     1      50.404   7.368  15.048  0.00  0.00    +0.000 A 
ATOM      7  C   UNL     1      49.245   6.719  14.587  0.00  0.00    +0.000 A 
BRANCH   6   8
ATOM      8  C   UNL     1      50.817   7.292  16.506  0.00  0.00    +0.000 C 
BRANCH   8   9
ATOM      9  N   UNL     1      51.528   6.055  16.887  0.00  0.00    +0.000 NA
ATOM     10  C   UNL     1      52.928   6.347  17.221  0.00  0.00    +0.000 C 
BRANCH   9  11
ATOM     11  C   UNL     1      50.873   5.452  18.076  0.00  0.00    +0.000 C 
BRANCH  11  12
ATOM     12  C   UNL     1      49.590   4.691  17.784  0.00  0.00    +0.000 A 
ATOM     13  C   UNL     1      49.639   3.371  17.337  0.00  0.00    +0.000 A 
ATOM     14  C   UNL     1      48.445   2.694  17.104  0.00  0.00    +0.000 A 
ATOM     15  C   UNL     1      47.238   3.348  17.320  0.00  0.00    +0.000 A 
ATOM     16  C   UNL     1      47.275   4.662  17.754  0.00  0.00    +0.000 A 
ATOM     17  N   UNL     1      48.417   5.346  17.990  0.00  0.00    +0.000 NA
ENDBRANCH  11  12
ENDBRANCH   9  11
ENDBRANCH   8   9
ENDBRANCH   6   8
ENDBRANCH   1   2
BRANCH   1  18
ATOM     18  N   UNL     1      47.069   6.779  11.515  0.00  0.00    +0.000 NA
ATOM     19  H   UNL     1      47.621   7.612  11.320  0.00  0.00    +0.000 HD
BRANCH  18  21
ATOM     20  C   UNL     1      45.281   8.116  12.627  0.00  0.00    +0.000 C 
ATOM     21  C   UNL     1      45.652   7.161  11.486  0.00  0.00    +0.000 C 
BRANCH  21  22
ATOM     22  C   UNL     1      44.878   5.854  11.603  0.00  0.00    +0.000 A 
ATOM     23  C   UNL     1      44.115   5.520  12.714  0.00  0.00    +0.000 A 
ATOM     24  S   UNL     1      43.392   3.982  12.612  0.00  0.00    +0.000 S 
ATOM     25  C   UNL     1      44.082   3.697  11.083  0.00  0.00    +0.000 A 
ATOM     26  N   UNL     1      43.868   2.521  10.431  0.00  0.00    +0.000 NA
ATOM     27  C   UNL     1      44.452   2.440   9.284  0.00  0.00    +0.000 A 
ATOM     28  N   UNL     1      45.219   3.429   8.720  0.00  0.00    +0.000 N 
ATOM     29  C   UNL     1      45.448   4.646   9.332  0.00  0.00    +0.000 A 
ATOM     30  O   UNL     1      46.114   5.519   8.785  0.00  0.00    +0.000 OA
ATOM     31  C   UNL     1      44.831   4.774  10.641  0.00  0.00    +0.000 A 
ATOM     32  H   UNL     1      45.634   3.308   7.812  0.00  0.00    +0.000 HD
ENDBRANCH  21  22
ENDBRANCH  18  21
ENDBRANCH   1  18
TORSDOF 8
ENDMDL
MODEL 7
REMARK VINA RESULT:    -6.658      3.410      8.485
REMARK INTER + INTRA:         -10.868
REMARK INTER:                  -9.148
REMARK INTRA:                  -1.720
REMARK UNBOUND:                -1.096
REMARK  Name = 
REMARK  10 active torsions:
REMARK  status: ('A' for Active; 'I' for Inactive)
REMARK    1  A    between atoms: C_1  and  C_2
REMARK    2  A    between atoms: C_2  and  N_3
REMARK    3  A    between atoms: C_2  and  C_21
REMARK    4  A    between atoms: N_3  and  C_4
REMARK    5  A    between atoms: C_4  and  C_5
REMARK    6  A    between atoms: C_9  and  C_10
REMARK    7  A    between atoms: C_10  and  N_11
REMARK    8  A    between atoms: N_11  and  C_12
REMARK    9  A    between atoms: N_11  and  C_13
REMARK   10  A    between atoms: C_13  and  C_14
REMARK                            x       y       z     vdW  Elec       q    Type
REMARK                         _______ _______ _______ _____ _____    ______ ____
ROOT
ATOM      1  C   UNL     1      48.478   8.783  14.635  0.00  0.00    +0.000 C 
ENDROOT
BRANCH   1   2
ATOM      2  C   UNL     1      48.909   8.746  16.089  0.00  0.00    +0.000 A 
ATOM      3  C   UNL     1      48.174   9.430  17.071  0.00  0.00    +0.000 A 
ATOM      4  C   UNL     1      48.588   9.428  18.402  0.00  0.00    +0.000 A 
ATOM      5  C   UNL     1      49.713   8.700  18.783  0.00  0.00    +0.000 A 
ATOM      6  C   UNL     1      50.429   7.954  17.839  0.00  0.00    +0.000 A 
ATOM      7  C   UNL     1      50.034   8.003  16.490  0.00  0.00    +0.000 A 
BRANCH   6   8
ATOM      8  C   UNL     1      51.547   7.034  18.295  0.00  0.00    +0.000 C 
BRANCH   8   9
ATOM      9  N   UNL     1      51.684   5.789  17.514  0.00  0.00    +0.000 NA
ATOM     10  C   UNL     1      53.097   5.517  17.221  0.00  0.00    +0.000 C 
BRANCH   9  11
ATOM     11  C   UNL     1      51.134   4.650  18.293  0.00  0.00    +0.000 C 
BRANCH  11  12
ATOM     12  C   UNL     1      49.738   4.210  17.887  0.00  0.00    +0.000 A 
ATOM     13  C   UNL     1      48.624   4.963  18.259  0.00  0.00    +0.000 A 
ATOM     14  C   UNL     1      47.361   4.546  17.848  0.00  0.00    +0.000 A 
ATOM     15  C   UNL     1      47.240   3.393  17.082  0.00  0.00    +0.000 A 
ATOM     16  C   UNL     1      48.393   2.696  16.764  0.00  0.00    +0.000 A 
ATOM     17  N   UNL     1      49.633   3.076  17.145  0.00  0.00    +0.000 NA
ENDBRANCH  11  12
ENDBRANCH   9  11
ENDBRANCH   8   9
ENDBRANCH   6   8
ENDBRANCH   1   2
BRANCH   1  18
ATOM     18  N   UNL     1      47.332   7.905  14.402  0.00  0.00    +0.000 NA
ATOM     19  H   UNL     1      46.955   7.624  15.305  0.00  0.00    +0.000 HD
BRANCH  18  21
ATOM     20  C   UNL     1      48.833   6.868  12.702  0.00  0.00    +0.000 C 
ATOM     21  C   UNL     1      47.635   6.687  13.642  0.00  0.00    +0.000 C 
BRANCH  21  22
ATOM     22  C   UNL     1      46.370   6.377  12.852  0.00  0.00    +0.000 A 
ATOM     23  C   UNL     1      45.582   7.359  12.266  0.00  0.00    +0.000 A 
ATOM     24  S   UNL     1      44.198   6.749  11.483  0.00  0.00    +0.000 S 
ATOM     25  C   UNL     1      44.592   5.150  11.908  0.00  0.00    +0.000 A 
ATOM     26  N   UNL     1      43.783   4.115  11.552  0.00  0.00    +0.000 NA
ATOM     27  C   UNL     1      44.202   2.958  11.941  0.00  0.00    +0.000 A 
ATOM     28  N   UNL     1      45.362   2.738  12.641  0.00  0.00    +0.000 N 
ATOM     29  C   UNL     1      46.225   3.751  13.007  0.00  0.00    +0.000 A 
ATOM     30  O   UNL     1      47.269   3.513  13.607  0.00  0.00    +0.000 OA
ATOM     31  C   UNL     1      45.781   5.076  12.613  0.00  0.00    +0.000 A 
ATOM     32  H   UNL     1      45.640   1.807  12.900  0.00  0.00    +0.000 HD
ENDBRANCH  21  22
ENDBRANCH  18  21
ENDBRANCH   1  18
TORSDOF 8
ENDMDL
MODEL 8
REMARK VINA RESULT:    -6.573      3.742      8.515
REMARK INTER + INTRA:         -10.743
REMARK INTER:                  -9.389
REMARK INTRA:                  -1.354
REMARK UNBOUND:                -1.096
REMARK  Name = 
REMARK  10 active torsions:
REMARK  status: ('A' for Active; 'I' for Inactive)
REMARK    1  A    between atoms: C_1  and  C_2
REMARK    2  A    between atoms: C_2  and  N_3
REMARK    3  A    between atoms: C_2  and  C_21
REMARK    4  A    between atoms: N_3  and  C_4
REMARK    5  A    between atoms: C_4  and  C_5
REMARK    6  A    between atoms: C_9  and  C_10
REMARK    7  A    between atoms: C_10  and  N_11
REMARK    8  A    between atoms: N_11  and  C_12
REMARK    9  A    between atoms: N_11  and  C_13
REMARK   10  A    between atoms: C_13  and  C_14
REMARK                            x       y       z     vdW  Elec       q    Type
REMARK                         _______ _______ _______ _____ _____    ______ ____
ROOT
ATOM      1  C   UNL     1      48.405   8.743  14.681  0.00  0.00    +0.000 C 
ENDROOT
BRANCH   1   2
ATOM      2  C   UNL     1      48.503   9.361  16.064  0.00  0.00    +0.000 A 
ATOM      3  C   UNL     1      48.869  10.707  16.222  0.00  0.00    +0.000 A 
ATOM      4  C   UNL     1      48.996  11.267  17.492  0.00  0.00    +0.000 A 
ATOM      5  C   UNL     1      48.709  10.506  18.623  0.00  0.00    +0.000 A 
ATOM      6  C   UNL     1      48.277   9.180  18.496  0.00  0.00    +0.000 A 
ATOM      7  C   UNL     1      48.201   8.609  17.213  0.00  0.00    +0.000 A 
BRANCH   6   8
ATOM      8  C   UNL     1      47.808   8.419  19.722  0.00  0.00    +0.000 C 
BRANCH   8   9
ATOM      9  N   UNL     1      48.523   7.153  19.979  0.00  0.00    +0.000 NA
ATOM     10  C   UNL     1      49.152   7.176  21.306  0.00  0.00    +0.000 C 
BRANCH   9  11
ATOM     11  C   UNL     1      47.563   6.021  19.930  0.00  0.00    +0.000 C 
BRANCH  11  12
ATOM     12  C   UNL     1      47.872   4.963  18.883  0.00  0.00    +0.000 A 
ATOM     13  C   UNL     1      49.107   4.315  18.878  0.00  0.00    +0.000 A 
ATOM     14  C   UNL     1      49.349   3.333  17.922  0.00  0.00    +0.000 A 
ATOM     15  C   UNL     1      48.359   3.025  16.997  0.00  0.00    +0.000 A 
ATOM     16  C   UNL     1      47.165   3.722  17.061  0.00  0.00    +0.000 A 
ATOM     17  N   UNL     1      46.899   4.679  17.978  0.00  0.00    +0.000 NA
ENDBRANCH  11  12
ENDBRANCH   9  11
ENDBRANCH   8   9
ENDBRANCH   6   8
ENDBRANCH   1   2
BRANCH   1  18
ATOM     18  N   UNL     1      47.750   7.436  14.733  0.00  0.00    +0.000 NA
ATOM     19  H   UNL     1      48.043   6.965  15.587  0.00  0.00    +0.000 HD
BRANCH  18  21
ATOM     20  C   UNL     1      49.114   7.144  12.665  0.00  0.00    +0.000 C 
ATOM     21  C   UNL     1      48.056   6.550  13.604  0.00  0.00    +0.000 C 
BRANCH  21  22
ATOM     22  C   UNL     1      46.734   6.355  12.873  0.00  0.00    +0.000 A 
ATOM     23  C   UNL     1      46.018   7.401  12.306  0.00  0.00    +0.000 A 
ATOM     24  S   UNL     1      44.550   6.918  11.592  0.00  0.00    +0.000 S 
ATOM     25  C   UNL     1      44.807   5.293  12.025  0.00  0.00    +0.000 A 
ATOM     26  N   UNL     1      43.888   4.337  11.720  0.00  0.00    +0.000 NA
ATOM     27  C   UNL     1      44.211   3.150  12.109  0.00  0.00    +0.000 A 
ATOM     28  N   UNL     1      45.375   2.827  12.763  0.00  0.00    +0.000 N 
ATOM     29  C   UNL     1      46.346   3.757  13.076  0.00  0.00    +0.000 A 
ATOM     30  O   UNL     1      47.388   3.426  13.634  0.00  0.00    +0.000 OA
ATOM     31  C   UNL     1      46.014   5.114  12.680  0.00  0.00    +0.000 A 
ATOM     32  H   UNL     1      45.574   1.876  13.024  0.00  0.00    +0.000 HD
ENDBRANCH  21  22
ENDBRANCH  18  21
ENDBRANCH   1  18
TORSDOF 8
ENDMDL
MODEL 9
REMARK VINA RESULT:    -6.524      3.766      8.755
REMARK INTER + INTRA:         -10.671
REMARK INTER:                  -8.599
REMARK INTRA:                  -2.072
REMARK UNBOUND:                -1.096
REMARK  Name = 
REMARK  10 active torsions:
REMARK  status: ('A' for Active; 'I' for Inactive)
REMARK    1  A    between atoms: C_1  and  C_2
REMARK    2  A    between atoms: C_2  and  N_3
REMARK    3  A    between atoms: C_2  and  C_21
REMARK    4  A    between atoms: N_3  and  C_4
REMARK    5  A    between atoms: C_4  and  C_5
REMARK    6  A    between atoms: C_9  and  C_10
REMARK    7  A    between atoms: C_10  and  N_11
REMARK    8  A    between atoms: N_11  and  C_12
REMARK    9  A    between atoms: N_11  and  C_13
REMARK   10  A    between atoms: C_13  and  C_14
REMARK                            x       y       z     vdW  Elec       q    Type
REMARK                         _______ _______ _______ _____ _____    ______ ____
ROOT
ATOM      1  C   UNL     1      47.436   3.797  15.814  0.00  0.00    +0.000 C 
ENDROOT
BRANCH   1   2
ATOM      2  C   UNL     1      47.807   4.150  17.243  0.00  0.00    +0.000 A 
ATOM      3  C   UNL     1      48.565   3.265  18.025  0.00  0.00    +0.000 A 
ATOM      4  C   UNL     1      48.876   3.570  19.349  0.00  0.00    +0.000 A 
ATOM      5  C   UNL     1      48.479   4.788  19.897  0.00  0.00    +0.000 A 
ATOM      6  C   UNL     1      47.778   5.721  19.122  0.00  0.00    +0.000 A 
ATOM      7  C   UNL     1      47.426   5.383  17.803  0.00  0.00    +0.000 A 
BRANCH   6   8
ATOM      8  C   UNL     1      47.501   7.106  19.676  0.00  0.00    +0.000 C 
BRANCH   8   9
ATOM      9  N   UNL     1      48.026   8.218  18.860  0.00  0.00    +0.000 NA
ATOM     10  C   UNL     1      47.408   9.489  19.260  0.00  0.00    +0.000 C 
BRANCH   9  11
ATOM     11  C   UNL     1      49.495   8.325  19.052  0.00  0.00    +0.000 C 
BRANCH  11  12
ATOM     12  C   UNL     1      50.327   8.022  17.816  0.00  0.00    +0.000 A 
ATOM     13  C   UNL     1      50.816   6.735  17.593  0.00  0.00    +0.000 A 
ATOM     14  C   UNL     1      51.552   6.485  16.439  0.00  0.00    +0.000 A 
ATOM     15  C   UNL     1      51.783   7.520  15.541  0.00  0.00    +0.000 A 
ATOM     16  C   UNL     1      51.273   8.771  15.840  0.00  0.00    +0.000 A 
ATOM     17  N   UNL     1      50.553   9.046  16.951  0.00  0.00    +0.000 NA
ENDBRANCH  11  12
ENDBRANCH   9  11
ENDBRANCH   8   9
ENDBRANCH   6   8
ENDBRANCH   1   2
BRANCH   1  18
ATOM     18  N   UNL     1      46.742   4.906  15.160  0.00  0.00    +0.000 NA
ATOM     19  H   UNL     1      45.839   4.571  14.831  0.00  0.00    +0.000 HD
BRANCH  18  21
ATOM     20  C   UNL     1      48.310   6.694  14.406  0.00  0.00    +0.000 C 
ATOM     21  C   UNL     1      47.453   5.484  14.013  0.00  0.00    +0.000 C 
BRANCH  21  22
ATOM     22  C   UNL     1      46.365   5.891  13.026  0.00  0.00    +0.000 A 
ATOM     23  C   UNL     1      46.119   7.210  12.669  0.00  0.00    +0.000 A 
ATOM     24  S   UNL     1      44.817   7.394  11.588  0.00  0.00    +0.000 S 
ATOM     25  C   UNL     1      44.524   5.719  11.564  0.00  0.00    +0.000 A 
ATOM     26  N   UNL     1      43.503   5.200  10.828  0.00  0.00    +0.000 NA
ATOM     27  C   UNL     1      43.396   3.917  10.904  0.00  0.00    +0.000 A 
ATOM     28  N   UNL     1      44.222   3.101  11.637  0.00  0.00    +0.000 N 
ATOM     29  C   UNL     1      45.282   3.577  12.383  0.00  0.00    +0.000 A 
ATOM     30  O   UNL     1      46.019   2.815  13.001  0.00  0.00    +0.000 OA
ATOM     31  C   UNL     1      45.427   5.022  12.349  0.00  0.00    +0.000 A 
ATOM     32  H   UNL     1      44.094   2.104  11.640  0.00  0.00    +0.000 HD
ENDBRANCH  21  22
ENDBRANCH  18  21
ENDBRANCH   1  18
TORSDOF 8
ENDMDL
