MODEL 1
REMARK VINA RESULT:    -7.580      0.000      0.000
REMARK INTER + INTRA:         -10.899
REMARK INTER:                 -10.017
REMARK INTRA:                  -0.881
REMARK UNBOUND:                -0.881
REMARK  Name = 
REMARK  7 active torsions:
REMARK  status: ('A' for Active; 'I' for Inactive)
REMARK    1  A    between atoms: C_1  and  C_2
REMARK    2  A    between atoms: C_2  and  C_3
REMARK    3  A    between atoms: C_2  and  N_16
REMARK    4  A    between atoms: C_3  and  C_4
REMARK    5  A    between atoms: C_8  and  C_9
REMARK    6  A    between atoms: C_19  and  C_20
REMARK    7  A    between atoms: C_20  and  O_22
REMARK                            x       y       z     vdW  Elec       q    Type
REMARK                         _______ _______ _______ _____ _____    ______ ____
ROOT
ATOM      1  C   UNL     1      45.580   4.994  11.746  0.00  0.00    +0.000 C 
ENDROOT
BRANCH   1   2
ATOM      2  C   UNL     1      46.013   6.419  12.012  0.00  0.00    +0.000 A 
ATOM      3  C   UNL     1      45.163   7.302  12.682  0.00  0.00    +0.000 A 
ATOM      4  C   UNL     1      45.571   8.609  12.937  0.00  0.00    +0.000 A 
ATOM      5  C   UNL     1      46.841   9.036  12.544  0.00  0.00    +0.000 A 
ATOM      6  C   UNL     1      47.743   8.165  11.907  0.00  0.00    +0.000 A 
ATOM      7  C   UNL     1      47.292   6.860  11.632  0.00  0.00    +0.000 A 
BRANCH   6   8
ATOM      8  C   UNL     1      49.138   8.566  11.622  0.00  0.00    +0.000 A 
ATOM      9  C   UNL     1      50.149   7.616  11.413  0.00  0.00    +0.000 A 
ATOM     10  C   UNL     1      51.433   8.007  11.039  0.00  0.00    +0.000 A 
ATOM     11  C   UNL     1      51.687   9.357  10.882  0.00  0.00    +0.000 A 
ATOM     12  N   UNL     1      50.767  10.316  11.097  0.00  0.00    +0.000 NA
ATOM     13  C   UNL     1      49.528   9.900  11.464  0.00  0.00    +0.000 A 
ENDBRANCH   6   8
ENDBRANCH   1   2
BRANCH   1  15
ATOM     14  C   UNL     1      43.324   4.047  11.017  0.00  0.00    +0.000 C 
ATOM     15  C   UNL     1      44.568   4.831  10.588  0.00  0.00    +0.000 C 
BRANCH  15  16
ATOM     16  N   UNL     1      45.185   4.198   9.406  0.00  0.00    +0.000 N 
ATOM     17  C   UNL     1      45.150   2.835   9.240  0.00  0.00    +0.000 C 
ATOM     18  C   UNL     1      45.893   2.276   8.162  0.00  0.00    +0.000 C 
ATOM     19  C   UNL     1      46.551   3.138   7.376  0.00  0.00    +0.000 C 
ATOM     20  N   UNL     1      46.534   4.495   7.587  0.00  0.00    +0.000 NA
ATOM     21  N   UNL     1      45.929   5.001   8.566  0.00  0.00    +0.000 NA
BRANCH  19  22
ATOM     22  C   UNL     1      47.336   2.592   6.235  0.00  0.00    +0.000 C 
ATOM     23  O   UNL     1      46.855   2.168   5.197  0.00  0.00    +0.000 OA
BRANCH  22  24
ATOM     24  O   UNL     1      48.671   2.618   6.470  0.00  0.00    +0.000 OA
ATOM     25  H   UNL     1      48.993   1.773   6.841  0.00  0.00    +0.000 HD
ENDBRANCH  22  24
ENDBRANCH  19  22
ENDBRANCH  15  16
ENDBRANCH   1  15
TORSDOF 6
ENDMDL
MODEL 2
REMARK VINA RESULT:    -7.572      3.609      4.406
REMARK INTER + INTRA:         -10.888
REMARK INTER:                 -10.099
REMARK INTRA:                  -0.789
REMARK UNBOUND:                -0.881
REMARK  Name = 
REMARK  7 active torsions:
REMARK  status: ('A' for Active; 'I' for Inactive)
REMARK    1  A    between atoms: C_1  and  C_2
REMARK    2  A    between atoms: C_2  and  C_3
REMARK    3  A    between atoms: C_2  and  N_16
REMARK    4  A    between atoms: C_3  and  C_4
REMARK    5  A    between atoms: C_8  and  C_9
REMARK    6  A    between atoms: C_19  and  C_20
REMARK    7  A    between atoms: C_20  and  O_22
REMARK                            x       y       z     vdW  Elec       q    Type
REMARK                         _______ _______ _______ _____ _____    ______ ____
ROOT
ATOM      1  C   UNL     1      45.292   4.086  12.003  0.00  0.00    +0.000 C 
ENDROOT
BRANCH   1   2
ATOM      2  C   UNL     1      46.271   4.900  12.819  0.00  0.00    +0.000 A 
ATOM      3  C   UNL     1      46.720   6.139  12.354  0.00  0.00    +0.000 A 
ATOM      4  C   UNL     1      47.610   6.892  13.114  0.00  0.00    +0.000 A 
ATOM      5  C   UNL     1      48.042   6.423  14.356  0.00  0.00    +0.000 A 
ATOM      6  C   UNL     1      47.579   5.203  14.881  0.00  0.00    +0.000 A 
ATOM      7  C   UNL     1      46.706   4.447  14.076  0.00  0.00    +0.000 A 
BRANCH   6   8
ATOM      8  C   UNL     1      47.916   4.773  16.255  0.00  0.00    +0.000 A 
ATOM      9  C   UNL     1      47.515   3.523  16.754  0.00  0.00    +0.000 A 
ATOM     10  C   UNL     1      47.931   3.087  18.011  0.00  0.00    +0.000 A 
ATOM     11  C   UNL     1      48.747   3.918  18.755  0.00  0.00    +0.000 A 
ATOM     12  N   UNL     1      49.141   5.138  18.342  0.00  0.00    +0.000 NA
ATOM     13  C   UNL     1      48.714   5.533  17.115  0.00  0.00    +0.000 A 
ENDBRANCH   6   8
ENDBRANCH   1   2
BRANCH   1  15
ATOM     14  C   UNL     1      43.212   4.809  10.712  0.00  0.00    +0.000 C 
ATOM     15  C   UNL     1      44.743   4.802  10.747  0.00  0.00    +0.000 C 
BRANCH  15  16
ATOM     16  N   UNL     1      45.277   4.214   9.503  0.00  0.00    +0.000 N 
ATOM     17  C   UNL     1      45.176   2.865   9.263  0.00  0.00    +0.000 C 
ATOM     18  C   UNL     1      45.843   2.340   8.122  0.00  0.00    +0.000 C 
ATOM     19  C   UNL     1      46.501   3.219   7.353  0.00  0.00    +0.000 C 
ATOM     20  N   UNL     1      46.551   4.560   7.640  0.00  0.00    +0.000 NA
ATOM     21  N   UNL     1      46.015   5.034   8.674  0.00  0.00    +0.000 NA
BRANCH  19  22
ATOM     22  C   UNL     1      47.208   2.708   6.147  0.00  0.00    +0.000 C 
ATOM     23  O   UNL     1      46.666   2.404   5.097  0.00  0.00    +0.000 OA
BRANCH  22  24
ATOM     24  O   UNL     1      48.548   2.617   6.336  0.00  0.00    +0.000 OA
ATOM     25  H   UNL     1      49.046   3.113   5.658  0.00  0.00    +0.000 HD
ENDBRANCH  22  24
ENDBRANCH  19  22
ENDBRANCH  15  16
ENDBRANCH   1  15
TORSDOF 6
ENDMDL
MODEL 3
REMARK VINA RESULT:    -7.543      2.402      3.977
REMARK INTER + INTRA:         -10.849
REMARK INTER:                 -10.001
REMARK INTRA:                  -0.848
REMARK UNBOUND:                -0.881
REMARK  Name = 
REMARK  7 active torsions:
REMARK  status: ('A' for Active; 'I' for Inactive)
REMARK    1  A    between atoms: C_1  and  C_2
REMARK    2  A    between atoms: C_2  and  C_3
REMARK    3  A    between atoms: C_2  and  N_16
REMARK    4  A    between atoms: C_3  and  C_4
REMARK    5  A    between atoms: C_8  and  C_9
REMARK    6  A    between atoms: C_19  and  C_20
REMARK    7  A    between atoms: C_20  and  O_22
REMARK                            x       y       z     vdW  Elec       q    Type
REMARK                         _______ _______ _______ _____ _____    ______ ____
ROOT
ATOM      1  C   UNL     1      45.545   4.990  11.717  0.00  0.00    +0.000 C 
ENDROOT
BRANCH   1   2
ATOM      2  C   UNL     1      45.881   6.458  11.860  0.00  0.00    +0.000 A 
ATOM      3  C   UNL     1      47.180   6.857  12.186  0.00  0.00    +0.000 A 
ATOM      4  C   UNL     1      47.489   8.209  12.303  0.00  0.00    +0.000 A 
ATOM      5  C   UNL     1      46.507   9.175  12.074  0.00  0.00    +0.000 A 
ATOM      6  C   UNL     1      45.199   8.817  11.700  0.00  0.00    +0.000 A 
ATOM      7  C   UNL     1      44.906   7.442  11.621  0.00  0.00    +0.000 A 
BRANCH   6   8
ATOM      8  C   UNL     1      44.198   9.834  11.312  0.00  0.00    +0.000 A 
ATOM      9  C   UNL     1      43.021   9.486  10.631  0.00  0.00    +0.000 A 
ATOM     10  C   UNL     1      42.038  10.438  10.368  0.00  0.00    +0.000 A 
ATOM     11  C   UNL     1      42.252  11.735  10.794  0.00  0.00    +0.000 A 
ATOM     12  N   UNL     1      43.372  12.135  11.427  0.00  0.00    +0.000 NA
ATOM     13  C   UNL     1      44.310  11.183  11.662  0.00  0.00    +0.000 A 
ENDBRANCH   6   8
ENDBRANCH   1   2
BRANCH   1  15
ATOM     14  C   UNL     1      43.391   3.748  11.134  0.00  0.00    +0.000 C 
ATOM     15  C   UNL     1      44.503   4.669  10.620  0.00  0.00    +0.000 C 
BRANCH  15  16
ATOM     16  N   UNL     1      45.133   4.085   9.420  0.00  0.00    +0.000 N 
ATOM     17  C   UNL     1      45.153   2.724   9.229  0.00  0.00    +0.000 C 
ATOM     18  C   UNL     1      45.906   2.217   8.133  0.00  0.00    +0.000 C 
ATOM     19  C   UNL     1      46.519   3.120   7.356  0.00  0.00    +0.000 C 
ATOM     20  N   UNL     1      46.447   4.471   7.593  0.00  0.00    +0.000 NA
ATOM     21  N   UNL     1      45.832   4.933   8.587  0.00  0.00    +0.000 NA
BRANCH  19  22
ATOM     22  C   UNL     1      47.313   2.629   6.197  0.00  0.00    +0.000 C 
ATOM     23  O   UNL     1      46.840   2.238   5.143  0.00  0.00    +0.000 OA
BRANCH  22  24
ATOM     24  O   UNL     1      48.647   2.664   6.436  0.00  0.00    +0.000 OA
ATOM     25  H   UNL     1      49.156   2.892   5.634  0.00  0.00    +0.000 HD
ENDBRANCH  22  24
ENDBRANCH  19  22
ENDBRANCH  15  16
ENDBRANCH   1  15
TORSDOF 6
ENDMDL
MODEL 4
REMARK VINA RESULT:    -7.125      6.175      8.393
REMARK INTER + INTRA:         -10.297
REMARK INTER:                  -9.481
REMARK INTRA:                  -0.816
REMARK UNBOUND:                -0.881
REMARK  Name = 
REMARK  7 active torsions:
REMARK  status: ('A' for Active; 'I' for Inactive)
REMARK    1  A    between atoms: C_1  and  C_2
REMARK    2  A    between atoms: C_2  and  C_3
REMARK    3  A    between atoms: C_2  and  N_16
REMARK    4  A    between atoms: C_3  and  C_4
REMARK    5  A    between atoms: C_8  and  C_9
REMARK    6  A    between atoms: C_19  and  C_20
REMARK    7  A    between atoms: C_20  and  O_22
REMARK                            x       y       z     vdW  Elec       q    Type
REMARK                         _______ _______ _______ _____ _____    ______ ____
ROOT
ATOM      1  C   UNL     1      48.701   5.931  15.893  0.00  0.00    +0.000 C 
ENDROOT
BRANCH   1   2
ATOM      2  C   UNL     1      48.146   6.218  14.516  0.00  0.00    +0.000 A 
ATOM      3  C   UNL     1      48.754   7.170  13.693  0.00  0.00    +0.000 A 
ATOM      4  C   UNL     1      48.250   7.422  12.421  0.00  0.00    +0.000 A 
ATOM      5  C   UNL     1      47.145   6.708  11.951  0.00  0.00    +0.000 A 
ATOM      6  C   UNL     1      46.532   5.710  12.730  0.00  0.00    +0.000 A 
ATOM      7  C   UNL     1      47.042   5.500  14.025  0.00  0.00    +0.000 A 
BRANCH   6   8
ATOM      8  C   UNL     1      45.459   4.850  12.184  0.00  0.00    +0.000 A 
ATOM      9  C   UNL     1      45.094   4.900  10.829  0.00  0.00    +0.000 A 
ATOM     10  C   UNL     1      44.158   4.010  10.307  0.00  0.00    +0.000 A 
ATOM     11  C   UNL     1      43.596   3.076  11.158  0.00  0.00    +0.000 A 
ATOM     12  N   UNL     1      43.885   2.998  12.471  0.00  0.00    +0.000 NA
ATOM     13  C   UNL     1      44.797   3.884  12.947  0.00  0.00    +0.000 A 
ENDBRANCH   6   8
ENDBRANCH   1   2
BRANCH   1  15
ATOM     14  C   UNL     1      47.259   5.043  17.804  0.00  0.00    +0.000 C 
ATOM     15  C   UNL     1      48.108   4.679  16.582  0.00  0.00    +0.000 C 
BRANCH  15  16
ATOM     16  N   UNL     1      49.157   3.713  16.961  0.00  0.00    +0.000 N 
ATOM     17  C   UNL     1      50.199   4.090  17.774  0.00  0.00    +0.000 C 
ATOM     18  C   UNL     1      51.255   3.158  17.978  0.00  0.00    +0.000 C 
ATOM     19  C   UNL     1      51.132   1.969  17.373  0.00  0.00    +0.000 C 
ATOM     20  N   UNL     1      50.055   1.648  16.584  0.00  0.00    +0.000 NA
ATOM     21  N   UNL     1      49.141   2.477  16.348  0.00  0.00    +0.000 NA
BRANCH  19  22
ATOM     22  C   UNL     1      52.214   0.965  17.566  0.00  0.00    +0.000 C 
ATOM     23  O   UNL     1      53.330   1.041  17.079  0.00  0.00    +0.000 OA
BRANCH  22  24
ATOM     24  O   UNL     1      51.826  -0.063  18.360  0.00  0.00    +0.000 OA
ATOM     25  H   UNL     1      52.585  -0.491  18.801  0.00  0.00    +0.000 HD
ENDBRANCH  22  24
ENDBRANCH  19  22
ENDBRANCH  15  16
ENDBRANCH   1  15
TORSDOF 6
ENDMDL
MODEL 5
REMARK VINA RESULT:    -7.050      1.296      2.015
REMARK INTER + INTRA:         -10.198
REMARK INTER:                 -10.276
REMARK INTRA:                   0.078
REMARK UNBOUND:                -0.881
REMARK  Name = 
REMARK  7 active torsions:
REMARK  status: ('A' for Active; 'I' for Inactive)
REMARK    1  A    between atoms: C_1  and  C_2
REMARK    2  A    between atoms: C_2  and  C_3
REMARK    3  A    between atoms: C_2  and  N_16
REMARK    4  A    between atoms: C_3  and  C_4
REMARK    5  A    between atoms: C_8  and  C_9
REMARK    6  A    between atoms: C_19  and  C_20
REMARK    7  A    between atoms: C_20  and  O_22
REMARK                            x       y       z     vdW  Elec       q    Type
REMARK                         _______ _______ _______ _____ _____    ______ ____
ROOT
ATOM      1  C   UNL     1      44.040   5.545  10.866  0.00  0.00    +0.000 C 
ENDROOT
BRANCH   1   2
ATOM      2  C   UNL     1      45.194   5.534  11.843  0.00  0.00    +0.000 A 
ATOM      3  C   UNL     1      45.289   4.532  12.813  0.00  0.00    +0.000 A 
ATOM      4  C   UNL     1      46.360   4.517  13.702  0.00  0.00    +0.000 A 
ATOM      5  C   UNL     1      47.356   5.492  13.616  0.00  0.00    +0.000 A 
ATOM      6  C   UNL     1      47.322   6.491  12.626  0.00  0.00    +0.000 A 
ATOM      7  C   UNL     1      46.210   6.501  11.762  0.00  0.00    +0.000 A 
BRANCH   6   8
ATOM      8  C   UNL     1      48.445   7.433  12.436  0.00  0.00    +0.000 A 
ATOM      9  C   UNL     1      48.324   8.568  11.619  0.00  0.00    +0.000 A 
ATOM     10  C   UNL     1      49.354   9.503  11.535  0.00  0.00    +0.000 A 
ATOM     11  C   UNL     1      50.500   9.283  12.275  0.00  0.00    +0.000 A 
ATOM     12  N   UNL     1      50.686   8.200  13.053  0.00  0.00    +0.000 NA
ATOM     13  C   UNL     1      49.665   7.307  13.109  0.00  0.00    +0.000 A 
ENDBRANCH   6   8
ENDBRANCH   1   2
BRANCH   1  15
ATOM     14  C   UNL     1      43.487   3.127  11.471  0.00  0.00    +0.000 C 
ATOM     15  C   UNL     1      43.625   4.151  10.340  0.00  0.00    +0.000 C 
BRANCH  15  16
ATOM     16  N   UNL     1      44.561   3.652   9.313  0.00  0.00    +0.000 N 
ATOM     17  C   UNL     1      44.908   2.324   9.266  0.00  0.00    +0.000 C 
ATOM     18  C   UNL     1      45.928   1.935   8.353  0.00  0.00    +0.000 C 
ATOM     19  C   UNL     1      46.453   2.903   7.589  0.00  0.00    +0.000 C 
ATOM     20  N   UNL     1      46.049   4.213   7.675  0.00  0.00    +0.000 NA
ATOM     21  N   UNL     1      45.190   4.584   8.513  0.00  0.00    +0.000 NA
BRANCH  19  22
ATOM     22  C   UNL     1      47.519   2.535   6.618  0.00  0.00    +0.000 C 
ATOM     23  O   UNL     1      48.429   1.754   6.844  0.00  0.00    +0.000 OA
BRANCH  22  24
ATOM     24  O   UNL     1      47.370   3.166   5.427  0.00  0.00    +0.000 OA
ATOM     25  H   UNL     1      46.466   3.067   5.072  0.00  0.00    +0.000 HD
ENDBRANCH  22  24
ENDBRANCH  19  22
ENDBRANCH  15  16
ENDBRANCH   1  15
TORSDOF 6
ENDMDL
MODEL 6
REMARK VINA RESULT:    -6.889      4.904      7.805
REMARK INTER + INTRA:          -9.985
REMARK INTER:                  -9.451
REMARK INTRA:                  -0.535
REMARK UNBOUND:                -0.881
REMARK  Name = 
REMARK  7 active torsions:
REMARK  status: ('A' for Active; 'I' for Inactive)
REMARK    1  A    between atoms: C_1  and  C_2
REMARK    2  A    between atoms: C_2  and  C_3
REMARK    3  A    between atoms: C_2  and  N_16
REMARK    4  A    between atoms: C_3  and  C_4
REMARK    5  A    between atoms: C_8  and  C_9
REMARK    6  A    between atoms: C_19  and  C_20
REMARK    7  A    between atoms: C_20  and  O_22
REMARK                            x       y       z     vdW  Elec       q    Type
REMARK                         _______ _______ _______ _____ _____    ______ ____
ROOT
ATOM      1  C   UNL     1      48.791   7.297  12.954  0.00  0.00    +0.000 C 
ENDROOT
BRANCH   1   2
ATOM      2  C   UNL     1      47.375   7.280  12.424  0.00  0.00    +0.000 A 
ATOM      3  C   UNL     1      46.554   8.402  12.566  0.00  0.00    +0.000 A 
ATOM      4  C   UNL     1      45.256   8.388  12.065  0.00  0.00    +0.000 A 
ATOM      5  C   UNL     1      44.774   7.260  11.397  0.00  0.00    +0.000 A 
ATOM      6  C   UNL     1      45.583   6.127  11.193  0.00  0.00    +0.000 A 
ATOM      7  C   UNL     1      46.880   6.156  11.739  0.00  0.00    +0.000 A 
BRANCH   6   8
ATOM      8  C   UNL     1      45.131   4.992  10.360  0.00  0.00    +0.000 A 
ATOM      9  C   UNL     1      45.548   4.844   9.027  0.00  0.00    +0.000 A 
ATOM     10  C   UNL     1      45.202   3.714   8.290  0.00  0.00    +0.000 A 
ATOM     11  C   UNL     1      44.435   2.742   8.903  0.00  0.00    +0.000 A 
ATOM     12  N   UNL     1      43.981   2.840  10.168  0.00  0.00    +0.000 NA
ATOM     13  C   UNL     1      44.334   3.956  10.856  0.00  0.00    +0.000 A 
ENDBRANCH   6   8
ENDBRANCH   1   2
BRANCH   1  15
ATOM     14  C   UNL     1      50.336   8.275  14.736  0.00  0.00    +0.000 C 
ATOM     15  C   UNL     1      48.927   7.762  14.422  0.00  0.00    +0.000 C 
BRANCH  15  16
ATOM     16  N   UNL     1      48.551   6.697  15.372  0.00  0.00    +0.000 N 
ATOM     17  C   UNL     1      48.756   6.854  16.722  0.00  0.00    +0.000 C 
ATOM     18  C   UNL     1      48.515   5.734  17.566  0.00  0.00    +0.000 C 
ATOM     19  C   UNL     1      48.080   4.615  16.971  0.00  0.00    +0.000 C 
ATOM     20  N   UNL     1      47.880   4.528  15.616  0.00  0.00    +0.000 NA
ATOM     21  N   UNL     1      48.140   5.489  14.848  0.00  0.00    +0.000 NA
BRANCH  19  22
ATOM     22  C   UNL     1      47.812   3.424  17.822  0.00  0.00    +0.000 C 
ATOM     23  O   UNL     1      48.598   2.949  18.626  0.00  0.00    +0.000 OA
BRANCH  22  24
ATOM     24  O   UNL     1      46.575   2.909  17.612  0.00  0.00    +0.000 OA
ATOM     25  H   UNL     1      46.345   2.229  18.274  0.00  0.00    +0.000 HD
ENDBRANCH  22  24
ENDBRANCH  19  22
ENDBRANCH  15  16
ENDBRANCH   1  15
TORSDOF 6
ENDMDL
MODEL 7
REMARK VINA RESULT:    -6.366      3.340      5.175
REMARK INTER + INTRA:          -9.294
REMARK INTER:                  -8.530
REMARK INTRA:                  -0.764
REMARK UNBOUND:                -0.881
REMARK  Name = 
REMARK  7 active torsions:
REMARK  status: ('A' for Active; 'I' for Inactive)
REMARK    1  A    between atoms: C_1  and  C_2
REMARK    2  A    between atoms: C_2  and  C_3
REMARK    3  A    between atoms: C_2  and  N_16
REMARK    4  A    between atoms: C_3  and  C_4
REMARK    5  A    between atoms: C_8  and  C_9
REMARK    6  A    between atoms: C_19  and  C_20
REMARK    7  A    between atoms: C_20  and  O_22
REMARK                            x       y       z     vdW  Elec       q    Type
REMARK                         _______ _______ _______ _____ _____    ______ ____
ROOT
ATOM      1  C   UNL     1      48.667   6.608  12.845  0.00  0.00    +0.000 C 
ENDROOT
BRANCH   1   2
ATOM      2  C   UNL     1      48.646   8.031  12.332  0.00  0.00    +0.000 A 
ATOM      3  C   UNL     1      49.813   8.624  11.844  0.00  0.00    +0.000 A 
ATOM      4  C   UNL     1      49.787   9.929  11.361  0.00  0.00    +0.000 A 
ATOM      5  C   UNL     1      48.588  10.645  11.340  0.00  0.00    +0.000 A 
ATOM      6  C   UNL     1      47.383  10.069  11.780  0.00  0.00    +0.000 A 
ATOM      7  C   UNL     1      47.445   8.761  12.295  0.00  0.00    +0.000 A 
BRANCH   6   8
ATOM      8  C   UNL     1      46.088  10.767  11.624  0.00  0.00    +0.000 A 
ATOM      9  C   UNL     1      45.994  12.005  10.969  0.00  0.00    +0.000 A 
ATOM     10  C   UNL     1      44.755  12.598  10.734  0.00  0.00    +0.000 A 
ATOM     11  C   UNL     1      43.620  11.937  11.164  0.00  0.00    +0.000 A 
ATOM     12  N   UNL     1      43.649  10.762  11.823  0.00  0.00    +0.000 NA
ATOM     13  C   UNL     1      44.872  10.215  12.038  0.00  0.00    +0.000 A 
ENDBRANCH   6   8
ENDBRANCH   1   2
BRANCH   1  15
ATOM     14  C   UNL     1      47.719   5.506  14.943  0.00  0.00    +0.000 C 
ATOM     15  C   UNL     1      47.392   6.175  13.604  0.00  0.00    +0.000 C 
BRANCH  15  16
ATOM     16  N   UNL     1      46.542   5.287  12.787  0.00  0.00    +0.000 N 
ATOM     17  C   UNL     1      45.936   5.750  11.644  0.00  0.00    +0.000 C 
ATOM     18  C   UNL     1      45.011   4.893  10.986  0.00  0.00    +0.000 C 
ATOM     19  C   UNL     1      44.824   3.682  11.529  0.00  0.00    +0.000 C 
ATOM     20  N   UNL     1      45.473   3.273  12.667  0.00  0.00    +0.000 NA
ATOM     21  N   UNL     1      46.252   4.037  13.292  0.00  0.00    +0.000 NA
BRANCH  19  22
ATOM     22  C   UNL     1      43.867   2.754  10.867  0.00  0.00    +0.000 C 
ATOM     23  O   UNL     1      44.034   2.243   9.771  0.00  0.00    +0.000 OA
BRANCH  22  24
ATOM     24  O   UNL     1      42.765   2.526  11.624  0.00  0.00    +0.000 OA
ATOM     25  H   UNL     1      42.093   2.005  11.143  0.00  0.00    +0.000 HD
ENDBRANCH  22  24
ENDBRANCH  19  22
ENDBRANCH  15  16
ENDBRANCH   1  15
TORSDOF 6
ENDMDL
MODEL 8
REMARK VINA RESULT:    -6.280      2.482      3.118
REMARK INTER + INTRA:          -9.180
REMARK INTER:                  -9.669
REMARK INTRA:                   0.488
REMARK UNBOUND:                -0.881
REMARK  Name = 
REMARK  7 active torsions:
REMARK  status: ('A' for Active; 'I' for Inactive)
REMARK    1  A    between atoms: C_1  and  C_2
REMARK    2  A    between atoms: C_2  and  C_3
REMARK    3  A    between atoms: C_2  and  N_16
REMARK    4  A    between atoms: C_3  and  C_4
REMARK    5  A    between atoms: C_8  and  C_9
REMARK    6  A    between atoms: C_19  and  C_20
REMARK    7  A    between atoms: C_20  and  O_22
REMARK                            x       y       z     vdW  Elec       q    Type
REMARK                         _______ _______ _______ _____ _____    ______ ____
ROOT
ATOM      1  C   UNL     1      43.469   5.157  10.830  0.00  0.00    +0.000 C 
ENDROOT
BRANCH   1   2
ATOM      2  C   UNL     1      44.576   5.867  11.577  0.00  0.00    +0.000 A 
ATOM      3  C   UNL     1      45.585   5.136  12.208  0.00  0.00    +0.000 A 
ATOM      4  C   UNL     1      46.610   5.793  12.883  0.00  0.00    +0.000 A 
ATOM      5  C   UNL     1      46.647   7.188  12.914  0.00  0.00    +0.000 A 
ATOM      6  C   UNL     1      45.676   7.962  12.253  0.00  0.00    +0.000 A 
ATOM      7  C   UNL     1      44.633   7.272  11.607  0.00  0.00    +0.000 A 
BRANCH   6   8
ATOM      8  C   UNL     1      45.791   9.433  12.156  0.00  0.00    +0.000 A 
ATOM      9  C   UNL     1      47.040  10.074  12.138  0.00  0.00    +0.000 A 
ATOM     10  C   UNL     1      47.136  11.450  11.938  0.00  0.00    +0.000 A 
ATOM     11  C   UNL     1      45.969  12.169  11.760  0.00  0.00    +0.000 A 
ATOM     12  N   UNL     1      44.742  11.615  11.795  0.00  0.00    +0.000 NA
ATOM     13  C   UNL     1      44.685  10.274  11.997  0.00  0.00    +0.000 A 
ENDBRANCH   6   8
ENDBRANCH   1   2
BRANCH   1  15
ATOM     14  C   UNL     1      44.079   2.939  11.938  0.00  0.00    +0.000 C 
ATOM     15  C   UNL     1      43.693   3.640  10.631  0.00  0.00    +0.000 C 
BRANCH  15  16
ATOM     16  N   UNL     1      44.704   3.367   9.591  0.00  0.00    +0.000 N 
ATOM     17  C   UNL     1      45.089   4.348   8.710  0.00  0.00    +0.000 C 
ATOM     18  C   UNL     1      45.951   3.981   7.639  0.00  0.00    +0.000 C 
ATOM     19  C   UNL     1      46.340   2.699   7.593  0.00  0.00    +0.000 C 
ATOM     20  N   UNL     1      45.931   1.769   8.516  0.00  0.00    +0.000 NA
ATOM     21  N   UNL     1      45.126   2.063   9.436  0.00  0.00    +0.000 NA
BRANCH  19  22
ATOM     22  C   UNL     1      47.245   2.278   6.490  0.00  0.00    +0.000 C 
ATOM     23  O   UNL     1      47.138   2.628   5.326  0.00  0.00    +0.000 OA
BRANCH  22  24
ATOM     24  O   UNL     1      48.228   1.448   6.920  0.00  0.00    +0.000 OA
ATOM     25  H   UNL     1      48.760   1.852   7.634  0.00  0.00    +0.000 HD
ENDBRANCH  22  24
ENDBRANCH  19  22
ENDBRANCH  15  16
ENDBRANCH   1  15
TORSDOF 6
ENDMDL
MODEL 9
REMARK VINA RESULT:    -6.125      5.483      8.182
REMARK INTER + INTRA:          -8.976
REMARK INTER:                  -8.078
REMARK INTRA:                  -0.898
REMARK UNBOUND:                -0.881
REMARK  Name = 
REMARK  7 active torsions:
REMARK  status: ('A' for Active; 'I' for Inactive)
REMARK    1  A    between atoms: C_1  and  C_2
REMARK    2  A    between atoms: C_2  and  C_3
REMARK    3  A    between atoms: C_2  and  N_16
REMARK    4  A    between atoms: C_3  and  C_4
REMARK    5  A    between atoms: C_8  and  C_9
REMARK    6  A    between atoms: C_19  and  C_20
REMARK    7  A    between atoms: C_20  and  O_22
REMARK                            x       y       z     vdW  Elec       q    Type
REMARK                         _______ _______ _______ _____ _____    ______ ____
ROOT
ATOM      1  C   UNL     1      49.461   9.022  15.585  0.00  0.00    +0.000 C 
ENDROOT
BRANCH   1   2
ATOM      2  C   UNL     1      49.081   8.539  14.202  0.00  0.00    +0.000 A 
ATOM      3  C   UNL     1      49.745   9.031  13.075  0.00  0.00    +0.000 A 
ATOM      4  C   UNL     1      49.403   8.574  11.806  0.00  0.00    +0.000 A 
ATOM      5  C   UNL     1      48.408   7.606  11.654  0.00  0.00    +0.000 A 
ATOM      6  C   UNL     1      47.747   7.053  12.765  0.00  0.00    +0.000 A 
ATOM      7  C   UNL     1      48.090   7.557  14.034  0.00  0.00    +0.000 A 
BRANCH   6   8
ATOM      8  C   UNL     1      46.802   5.924  12.623  0.00  0.00    +0.000 A 
ATOM      9  C   UNL     1      45.928   5.830  11.528  0.00  0.00    +0.000 A 
ATOM     10  C   UNL     1      45.121   4.708  11.351  0.00  0.00    +0.000 A 
ATOM     11  C   UNL     1      45.200   3.691  12.283  0.00  0.00    +0.000 A 
ATOM     12  N   UNL     1      45.996   3.736  13.368  0.00  0.00    +0.000 NA
ATOM     13  C   UNL     1      46.766   4.845  13.512  0.00  0.00    +0.000 A 
ENDBRANCH   6   8
ENDBRANCH   1   2
BRANCH   1  15
ATOM     14  C   UNL     1      51.555   7.564  15.662  0.00  0.00    +0.000 C 
ATOM     15  C   UNL     1      50.299   8.020  16.412  0.00  0.00    +0.000 C 
BRANCH  15  16
ATOM     16  N   UNL     1      49.502   6.849  16.827  0.00  0.00    +0.000 N 
ATOM     17  C   UNL     1      48.536   6.964  17.796  0.00  0.00    +0.000 C 
ATOM     18  C   UNL     1      47.910   5.772  18.258  0.00  0.00    +0.000 C 
ATOM     19  C   UNL     1      48.302   4.626  17.684  0.00  0.00    +0.000 C 
ATOM     20  N   UNL     1      49.265   4.581  16.706  0.00  0.00    +0.000 NA
ATOM     21  N   UNL     1      49.867   5.616  16.325  0.00  0.00    +0.000 NA
BRANCH  19  22
ATOM     22  C   UNL     1      47.668   3.359  18.137  0.00  0.00    +0.000 C 
ATOM     23  O   UNL     1      46.760   2.786  17.556  0.00  0.00    +0.000 OA
BRANCH  22  24
ATOM     24  O   UNL     1      48.216   2.891  19.286  0.00  0.00    +0.000 OA
ATOM     25  H   UNL     1      47.764   3.245  20.076  0.00  0.00    +0.000 HD
ENDBRANCH  22  24
ENDBRANCH  19  22
ENDBRANCH  15  16
ENDBRANCH   1  15
TORSDOF 6
ENDMDL
