MODEL 1
REMARK VINA RESULT:    -8.333      0.000      0.000
REMARK INTER + INTRA:         -12.164
REMARK INTER:                 -11.256
REMARK INTRA:                  -0.908
REMARK UNBOUND:                -0.908
REMARK  Name = 
REMARK  6 active torsions:
REMARK  status: ('A' for Active; 'I' for Inactive)
REMARK    1  A    between atoms: C_2  and  C_4
REMARK    2  A    between atoms: C_8  and  O_9
REMARK    3  A    between atoms: O_9  and  C_10
REMARK    4  A    between atoms: C_10  and  C_11
REMARK    5  A    between atoms: C_11  and  C_12
REMARK    6  A    between atoms: C_16  and  C_17
REMARK                            x       y       z     vdW  Elec       q    Type
REMARK                         _______ _______ _______ _____ _____    ______ ____
ROOT
ATOM      1  C   UNL     1      44.667   3.232  12.484  0.00  0.00    +0.000 C 
ENDROOT
BRANCH   1   2
ATOM      2  C   UNL     1      45.736   4.214  12.871  0.00  0.00    +0.000 A 
ATOM      3  C   UNL     1      46.769   3.863  13.727  0.00  0.00    +0.000 A 
ATOM      4  N   UNL     1      47.689   4.737  14.179  0.00  0.00    +0.000 NA
ATOM      5  C   UNL     1      47.561   6.027  13.772  0.00  0.00    +0.000 A 
ATOM      6  C   UNL     1      46.579   6.515  12.904  0.00  0.00    +0.000 A 
ATOM      7  C   UNL     1      45.680   5.545  12.434  0.00  0.00    +0.000 A 
BRANCH   6   8
ATOM      8  C   UNL     1      46.519   7.948  12.500  0.00  0.00    +0.000 A 
ATOM      9  C   UNL     1      45.268   8.612  12.510  0.00  0.00    +0.000 A 
ATOM     10  C   UNL     1      45.131   9.958  12.149  0.00  0.00    +0.000 A 
ATOM     11  C   UNL     1      46.248  10.700  11.794  0.00  0.00    +0.000 A 
ATOM     12  C   UNL     1      47.495  10.084  11.769  0.00  0.00    +0.000 A 
ATOM     13  C   UNL     1      47.631   8.724  12.091  0.00  0.00    +0.000 A 
ATOM     14 CL   UNL     1      49.228   8.079  11.865  0.00  0.00    +0.000 Cl
ENDBRANCH   6   8
ENDBRANCH   1   2
BRANCH   1  15
ATOM     15  C   UNL     1      43.685   3.844  11.481  0.00  0.00    +0.000 C 
BRANCH  15  16
ATOM     16  O   UNL     1      43.553   2.954  10.368  0.00  0.00    +0.000 OA
BRANCH  16  21
ATOM     17  C   UNL     1      46.253   2.130   7.961  0.00  0.00    +0.000 A 
ATOM     18  C   UNL     1      46.480   3.426   7.518  0.00  0.00    +0.000 A 
ATOM     19  N   UNL     1      45.775   4.497   7.953  0.00  0.00    +0.000 NA
ATOM     20  C   UNL     1      44.822   4.254   8.889  0.00  0.00    +0.000 A 
ATOM     21  C   UNL     1      44.536   2.999   9.418  0.00  0.00    +0.000 A 
ATOM     22  C   UNL     1      45.272   1.918   8.941  0.00  0.00    +0.000 A 
BRANCH  17  24
ATOM     23  N   UNL     1      48.036   1.368   6.495  0.00  0.00    +0.000 N 
ATOM     24  C   UNL     1      47.063   1.031   7.400  0.00  0.00    +0.000 C 
ATOM     25  O   UNL     1      46.910  -0.128   7.761  0.00  0.00    +0.000 OA
ATOM     26  H   UNL     1      48.654   0.622   6.207  0.00  0.00    +0.000 HD
ATOM     27  H   UNL     1      48.362   2.314   6.372  0.00  0.00    +0.000 HD
ENDBRANCH  17  24
ENDBRANCH  16  21
ENDBRANCH  15  16
ENDBRANCH   1  15
TORSDOF 6
ENDMDL
MODEL 2
REMARK VINA RESULT:    -7.642      1.704      2.678
REMARK INTER + INTRA:         -11.231
REMARK INTER:                 -10.548
REMARK INTRA:                  -0.682
REMARK UNBOUND:                -0.908
REMARK  Name = 
REMARK  6 active torsions:
REMARK  status: ('A' for Active; 'I' for Inactive)
REMARK    1  A    between atoms: C_2  and  C_4
REMARK    2  A    between atoms: C_8  and  O_9
REMARK    3  A    between atoms: O_9  and  C_10
REMARK    4  A    between atoms: C_10  and  C_11
REMARK    5  A    between atoms: C_11  and  C_12
REMARK    6  A    between atoms: C_16  and  C_17
REMARK                            x       y       z     vdW  Elec       q    Type
REMARK                         _______ _______ _______ _____ _____    ______ ____
ROOT
ATOM      1  C   UNL     1      44.882   3.431  12.221  0.00  0.00    +0.000 C 
ENDROOT
BRANCH   1   2
ATOM      2  C   UNL     1      45.242   4.857  12.528  0.00  0.00    +0.000 A 
ATOM      3  C   UNL     1      44.416   5.909  12.166  0.00  0.00    +0.000 A 
ATOM      4  N   UNL     1      44.746   7.205  12.331  0.00  0.00    +0.000 NA
ATOM      5  C   UNL     1      45.967   7.462  12.867  0.00  0.00    +0.000 A 
ATOM      6  C   UNL     1      46.894   6.502  13.287  0.00  0.00    +0.000 A 
ATOM      7  C   UNL     1      46.469   5.173  13.130  0.00  0.00    +0.000 A 
BRANCH   6   8
ATOM      8  C   UNL     1      48.211   6.873  13.876  0.00  0.00    +0.000 A 
ATOM      9  C   UNL     1      48.460   6.583  15.239  0.00  0.00    +0.000 A 
ATOM     10  C   UNL     1      49.673   6.897  15.863  0.00  0.00    +0.000 A 
ATOM     11  C   UNL     1      50.697   7.485  15.135  0.00  0.00    +0.000 A 
ATOM     12  C   UNL     1      50.493   7.789  13.794  0.00  0.00    +0.000 A 
ATOM     13  C   UNL     1      49.262   7.514  13.175  0.00  0.00    +0.000 A 
ATOM     14 CL   UNL     1      49.124   8.091  11.543  0.00  0.00    +0.000 Cl
ENDBRANCH   6   8
ENDBRANCH   1   2
BRANCH   1  15
ATOM     15  C   UNL     1      43.631   3.350  11.341  0.00  0.00    +0.000 C 
BRANCH  15  16
ATOM     16  O   UNL     1      43.874   2.416  10.285  0.00  0.00    +0.000 OA
BRANCH  16  21
ATOM     17  C   UNL     1      46.552   2.478   7.718  0.00  0.00    +0.000 A 
ATOM     18  C   UNL     1      46.507   3.842   7.464  0.00  0.00    +0.000 A 
ATOM     19  N   UNL     1      45.636   4.684   8.069  0.00  0.00    +0.000 NA
ATOM     20  C   UNL     1      44.796   4.131   8.982  0.00  0.00    +0.000 A 
ATOM     21  C   UNL     1      44.780   2.784   9.328  0.00  0.00    +0.000 A 
ATOM     22  C   UNL     1      45.682   1.944   8.679  0.00  0.00    +0.000 A 
BRANCH  17  24
ATOM     23  N   UNL     1      48.529   2.299   6.314  0.00  0.00    +0.000 N 
ATOM     24  C   UNL     1      47.526   1.647   6.982  0.00  0.00    +0.000 C 
ATOM     25  O   UNL     1      47.472   0.425   7.004  0.00  0.00    +0.000 OA
ATOM     26  H   UNL     1      49.250   1.715   5.911  0.00  0.00    +0.000 HD
ATOM     27  H   UNL     1      48.757   3.267   6.483  0.00  0.00    +0.000 HD
ENDBRANCH  17  24
ENDBRANCH  16  21
ENDBRANCH  15  16
ENDBRANCH   1  15
TORSDOF 6
ENDMDL
MODEL 3
REMARK VINA RESULT:    -7.563      2.252      3.873
REMARK INTER + INTRA:         -11.124
REMARK INTER:                 -10.575
REMARK INTRA:                  -0.549
REMARK UNBOUND:                -0.908
REMARK  Name = 
REMARK  6 active torsions:
REMARK  status: ('A' for Active; 'I' for Inactive)
REMARK    1  A    between atoms: C_2  and  C_4
REMARK    2  A    between atoms: C_8  and  O_9
REMARK    3  A    between atoms: O_9  and  C_10
REMARK    4  A    between atoms: C_10  and  C_11
REMARK    5  A    between atoms: C_11  and  C_12
REMARK    6  A    between atoms: C_16  and  C_17
REMARK                            x       y       z     vdW  Elec       q    Type
REMARK                         _______ _______ _______ _____ _____    ______ ____
ROOT
ATOM      1  C   UNL     1      43.756   4.257  12.380  0.00  0.00    +0.000 C 
ENDROOT
BRANCH   1   2
ATOM      2  C   UNL     1      45.056   4.918  12.739  0.00  0.00    +0.000 A 
ATOM      3  C   UNL     1      45.702   5.775  11.861  0.00  0.00    +0.000 A 
ATOM      4  N   UNL     1      46.916   6.309  12.101  0.00  0.00    +0.000 NA
ATOM      5  C   UNL     1      47.521   5.956  13.265  0.00  0.00    +0.000 A 
ATOM      6  C   UNL     1      46.982   5.114  14.243  0.00  0.00    +0.000 A 
ATOM      7  C   UNL     1      45.697   4.629  13.952  0.00  0.00    +0.000 A 
BRANCH   6   8
ATOM      8  C   UNL     1      47.713   4.787  15.499  0.00  0.00    +0.000 A 
ATOM      9  C   UNL     1      47.591   3.487  16.047  0.00  0.00    +0.000 A 
ATOM     10  C   UNL     1      48.250   3.103  17.220  0.00  0.00    +0.000 A 
ATOM     11  C   UNL     1      49.084   3.998  17.874  0.00  0.00    +0.000 A 
ATOM     12  C   UNL     1      49.229   5.286  17.371  0.00  0.00    +0.000 A 
ATOM     13  C   UNL     1      48.537   5.688  16.217  0.00  0.00    +0.000 A 
ATOM     14 CL   UNL     1      48.714   7.368  15.812  0.00  0.00    +0.000 Cl
ENDBRANCH   6   8
ENDBRANCH   1   2
BRANCH   1  15
ATOM     15  C   UNL     1      43.482   4.347  10.876  0.00  0.00    +0.000 C 
BRANCH  15  16
ATOM     16  O   UNL     1      43.797   3.086  10.277  0.00  0.00    +0.000 OA
BRANCH  16  21
ATOM     17  C   UNL     1      46.389   2.147   7.794  0.00  0.00    +0.000 A 
ATOM     18  C   UNL     1      46.636   3.427   7.319  0.00  0.00    +0.000 A 
ATOM     19  N   UNL     1      45.975   4.525   7.758  0.00  0.00    +0.000 NA
ATOM     20  C   UNL     1      45.049   4.324   8.731  0.00  0.00    +0.000 A 
ATOM     21  C   UNL     1      44.748   3.088   9.293  0.00  0.00    +0.000 A 
ATOM     22  C   UNL     1      45.438   1.979   8.811  0.00  0.00    +0.000 A 
BRANCH  17  24
ATOM     23  N   UNL     1      46.789  -0.245   7.621  0.00  0.00    +0.000 N 
ATOM     24  C   UNL     1      47.150   1.016   7.226  0.00  0.00    +0.000 C 
ATOM     25  O   UNL     1      48.035   1.191   6.399  0.00  0.00    +0.000 OA
ATOM     26  H   UNL     1      47.242  -1.010   7.139  0.00  0.00    +0.000 HD
ATOM     27  H   UNL     1      45.917  -0.442   8.087  0.00  0.00    +0.000 HD
ENDBRANCH  17  24
ENDBRANCH  16  21
ENDBRANCH  15  16
ENDBRANCH   1  15
TORSDOF 6
ENDMDL
MODEL 4
REMARK VINA RESULT:    -7.430      2.234      2.797
REMARK INTER + INTRA:         -10.944
REMARK INTER:                 -10.264
REMARK INTRA:                  -0.680
REMARK UNBOUND:                -0.908
REMARK  Name = 
REMARK  6 active torsions:
REMARK  status: ('A' for Active; 'I' for Inactive)
REMARK    1  A    between atoms: C_2  and  C_4
REMARK    2  A    between atoms: C_8  and  O_9
REMARK    3  A    between atoms: O_9  and  C_10
REMARK    4  A    between atoms: C_10  and  C_11
REMARK    5  A    between atoms: C_11  and  C_12
REMARK    6  A    between atoms: C_16  and  C_17
REMARK                            x       y       z     vdW  Elec       q    Type
REMARK                         _______ _______ _______ _____ _____    ______ ____
ROOT
ATOM      1  C   UNL     1      43.940   5.645  11.451  0.00  0.00    +0.000 C 
ENDROOT
BRANCH   1   2
ATOM      2  C   UNL     1      45.186   5.310  12.219  0.00  0.00    +0.000 A 
ATOM      3  C   UNL     1      45.248   4.208  13.058  0.00  0.00    +0.000 A 
ATOM      4  N   UNL     1      46.309   3.928  13.841  0.00  0.00    +0.000 NA
ATOM      5  C   UNL     1      47.349   4.800  13.798  0.00  0.00    +0.000 A 
ATOM      6  C   UNL     1      47.425   5.941  12.993  0.00  0.00    +0.000 A 
ATOM      7  C   UNL     1      46.308   6.150  12.168  0.00  0.00    +0.000 A 
BRANCH   6   8
ATOM      8  C   UNL     1      48.613   6.840  13.001  0.00  0.00    +0.000 A 
ATOM      9  C   UNL     1      49.142   7.291  11.767  0.00  0.00    +0.000 A 
ATOM     10  C   UNL     1      50.251   8.141  11.692  0.00  0.00    +0.000 A 
ATOM     11  C   UNL     1      50.856   8.598  12.854  0.00  0.00    +0.000 A 
ATOM     12  C   UNL     1      50.369   8.177  14.087  0.00  0.00    +0.000 A 
ATOM     13  C   UNL     1      49.282   7.292  14.165  0.00  0.00    +0.000 A 
ATOM     14 CL   UNL     1      48.898   6.752  15.770  0.00  0.00    +0.000 Cl
ENDBRANCH   6   8
ENDBRANCH   1   2
BRANCH   1  15
ATOM     15  C   UNL     1      43.533   4.498  10.522  0.00  0.00    +0.000 C 
BRANCH  15  16
ATOM     16  O   UNL     1      44.133   4.712   9.240  0.00  0.00    +0.000 OA
BRANCH  16  21
ATOM     17  C   UNL     1      46.446   2.620   7.231  0.00  0.00    +0.000 A 
ATOM     18  C   UNL     1      46.252   1.438   7.932  0.00  0.00    +0.000 A 
ATOM     19  N   UNL     1      45.442   1.337   9.012  0.00  0.00    +0.000 NA
ATOM     20  C   UNL     1      44.785   2.466   9.383  0.00  0.00    +0.000 A 
ATOM     21  C   UNL     1      44.888   3.691   8.732  0.00  0.00    +0.000 A 
ATOM     22  C   UNL     1      45.738   3.762   7.631  0.00  0.00    +0.000 A 
BRANCH  17  24
ATOM     23  N   UNL     1      48.711   2.509   6.354  0.00  0.00    +0.000 N 
ATOM     24  C   UNL     1      47.373   2.624   6.082  0.00  0.00    +0.000 C 
ATOM     25  O   UNL     1      46.965   2.678   4.929  0.00  0.00    +0.000 OA
ATOM     26  H   UNL     1      49.321   2.399   5.555  0.00  0.00    +0.000 HD
ATOM     27  H   UNL     1      49.061   2.206   7.250  0.00  0.00    +0.000 HD
ENDBRANCH  17  24
ENDBRANCH  16  21
ENDBRANCH  15  16
ENDBRANCH   1  15
TORSDOF 6
ENDMDL
MODEL 5
REMARK VINA RESULT:    -7.013      3.884      7.554
REMARK INTER + INTRA:         -10.381
REMARK INTER:                  -9.396
REMARK INTRA:                  -0.985
REMARK UNBOUND:                -0.908
REMARK  Name = 
REMARK  6 active torsions:
REMARK  status: ('A' for Active; 'I' for Inactive)
REMARK    1  A    between atoms: C_2  and  C_4
REMARK    2  A    between atoms: C_8  and  O_9
REMARK    3  A    between atoms: O_9  and  C_10
REMARK    4  A    between atoms: C_10  and  C_11
REMARK    5  A    between atoms: C_11  and  C_12
REMARK    6  A    between atoms: C_16  and  C_17
REMARK                            x       y       z     vdW  Elec       q    Type
REMARK                         _______ _______ _______ _____ _____    ______ ____
ROOT
ATOM      1  C   UNL     1      48.724   8.086  12.677  0.00  0.00    +0.000 C 
ENDROOT
BRANCH   1   2
ATOM      2  C   UNL     1      47.330   7.869  12.163  0.00  0.00    +0.000 A 
ATOM      3  C   UNL     1      46.322   8.796  12.380  0.00  0.00    +0.000 A 
ATOM      4  N   UNL     1      45.038   8.597  12.025  0.00  0.00    +0.000 NA
ATOM      5  C   UNL     1      44.742   7.406  11.443  0.00  0.00    +0.000 A 
ATOM      6  C   UNL     1      45.657   6.388  11.154  0.00  0.00    +0.000 A 
ATOM      7  C   UNL     1      46.984   6.679  11.506  0.00  0.00    +0.000 A 
BRANCH   6   8
ATOM      8  C   UNL     1      45.246   5.114  10.501  0.00  0.00    +0.000 A 
ATOM      9  C   UNL     1      45.524   4.926   9.125  0.00  0.00    +0.000 A 
ATOM     10  C   UNL     1      45.175   3.755   8.442  0.00  0.00    +0.000 A 
ATOM     11  C   UNL     1      44.561   2.712   9.120  0.00  0.00    +0.000 A 
ATOM     12  C   UNL     1      44.268   2.857  10.472  0.00  0.00    +0.000 A 
ATOM     13  C   UNL     1      44.579   4.046  11.151  0.00  0.00    +0.000 A 
ATOM     14 CL   UNL     1      44.012   4.117  12.790  0.00  0.00    +0.000 Cl
ENDBRANCH   6   8
ENDBRANCH   1   2
BRANCH   1  15
ATOM     15  C   UNL     1      49.129   6.992  13.668  0.00  0.00    +0.000 C 
BRANCH  15  16
ATOM     16  O   UNL     1      48.201   6.994  14.758  0.00  0.00    +0.000 OA
BRANCH  16  21
ATOM     17  C   UNL     1      48.458   4.304  17.299  0.00  0.00    +0.000 A 
ATOM     18  C   UNL     1      47.663   3.377  16.640  0.00  0.00    +0.000 A 
ATOM     19  N   UNL     1      47.054   3.625  15.456  0.00  0.00    +0.000 NA
ATOM     20  C   UNL     1      47.278   4.846  14.906  0.00  0.00    +0.000 A 
ATOM     21  C   UNL     1      48.079   5.833  15.470  0.00  0.00    +0.000 A 
ATOM     22  C   UNL     1      48.681   5.549  16.693  0.00  0.00    +0.000 A 
BRANCH  17  24
ATOM     23  N   UNL     1      48.329   3.099  19.406  0.00  0.00    +0.000 N 
ATOM     24  C   UNL     1      49.052   3.937  18.600  0.00  0.00    +0.000 C 
ATOM     25  O   UNL     1      50.166   4.324  18.928  0.00  0.00    +0.000 OA
ATOM     26  H   UNL     1      48.796   2.768  20.240  0.00  0.00    +0.000 HD
ATOM     27  H   UNL     1      47.544   2.561  19.070  0.00  0.00    +0.000 HD
ENDBRANCH  17  24
ENDBRANCH  16  21
ENDBRANCH  15  16
ENDBRANCH   1  15
TORSDOF 6
ENDMDL
MODEL 6
REMARK VINA RESULT:    -6.695      4.160      7.554
REMARK INTER + INTRA:          -9.951
REMARK INTER:                  -9.079
REMARK INTRA:                  -0.872
REMARK UNBOUND:                -0.908
REMARK  Name = 
REMARK  6 active torsions:
REMARK  status: ('A' for Active; 'I' for Inactive)
REMARK    1  A    between atoms: C_2  and  C_4
REMARK    2  A    between atoms: C_8  and  O_9
REMARK    3  A    between atoms: O_9  and  C_10
REMARK    4  A    between atoms: C_10  and  C_11
REMARK    5  A    between atoms: C_11  and  C_12
REMARK    6  A    between atoms: C_16  and  C_17
REMARK                            x       y       z     vdW  Elec       q    Type
REMARK                         _______ _______ _______ _____ _____    ______ ____
ROOT
ATOM      1  C   UNL     1      49.303   7.858  12.497  0.00  0.00    +0.000 C 
ENDROOT
BRANCH   1   2
ATOM      2  C   UNL     1      47.826   7.862  12.226  0.00  0.00    +0.000 A 
ATOM      3  C   UNL     1      47.088   9.036  12.239  0.00  0.00    +0.000 A 
ATOM      4  N   UNL     1      45.749   9.075  12.101  0.00  0.00    +0.000 NA
ATOM      5  C   UNL     1      45.112   7.883  11.964  0.00  0.00    +0.000 A 
ATOM      6  C   UNL     1      45.730   6.628  11.922  0.00  0.00    +0.000 A 
ATOM      7  C   UNL     1      47.129   6.662  12.024  0.00  0.00    +0.000 A 
BRANCH   6   8
ATOM      8  C   UNL     1      44.954   5.367  11.756  0.00  0.00    +0.000 A 
ATOM      9  C   UNL     1      44.268   4.831  12.873  0.00  0.00    +0.000 A 
ATOM     10  C   UNL     1      43.514   3.654  12.796  0.00  0.00    +0.000 A 
ATOM     11  C   UNL     1      43.392   2.985  11.587  0.00  0.00    +0.000 A 
ATOM     12  C   UNL     1      44.051   3.477  10.466  0.00  0.00    +0.000 A 
ATOM     13  C   UNL     1      44.842   4.635  10.549  0.00  0.00    +0.000 A 
ATOM     14 CL   UNL     1      45.713   5.025   9.098  0.00  0.00    +0.000 Cl
ENDBRANCH   6   8
ENDBRANCH   1   2
BRANCH   1  15
ATOM     15  C   UNL     1      49.598   8.087  13.981  0.00  0.00    +0.000 C 
BRANCH  15  16
ATOM     16  O   UNL     1      48.548   7.495  14.754  0.00  0.00    +0.000 OA
BRANCH  16  21
ATOM     17  C   UNL     1      48.590   4.641  17.123  0.00  0.00    +0.000 A 
ATOM     18  C   UNL     1      49.937   4.717  17.451  0.00  0.00    +0.000 A 
ATOM     19  N   UNL     1      50.786   5.622  16.908  0.00  0.00    +0.000 NA
ATOM     20  C   UNL     1      50.249   6.499  16.021  0.00  0.00    +0.000 A 
ATOM     21  C   UNL     1      48.909   6.525  15.648  0.00  0.00    +0.000 A 
ATOM     22  C   UNL     1      48.066   5.574  16.216  0.00  0.00    +0.000 A 
BRANCH  17  24
ATOM     23  N   UNL     1      48.184   3.104  18.962  0.00  0.00    +0.000 N 
ATOM     24  C   UNL     1      47.760   3.597  17.756  0.00  0.00    +0.000 C 
ATOM     25  O   UNL     1      46.710   3.220  17.253  0.00  0.00    +0.000 OA
ATOM     26  H   UNL     1      47.549   2.475  19.435  0.00  0.00    +0.000 HD
ATOM     27  H   UNL     1      48.885   3.563  19.523  0.00  0.00    +0.000 HD
ENDBRANCH  17  24
ENDBRANCH  16  21
ENDBRANCH  15  16
ENDBRANCH   1  15
TORSDOF 6
ENDMDL
MODEL 7
REMARK VINA RESULT:    -6.406      4.423      7.225
REMARK INTER + INTRA:          -9.561
REMARK INTER:                  -8.611
REMARK INTRA:                  -0.950
REMARK UNBOUND:                -0.908
REMARK  Name = 
REMARK  6 active torsions:
REMARK  status: ('A' for Active; 'I' for Inactive)
REMARK    1  A    between atoms: C_2  and  C_4
REMARK    2  A    between atoms: C_8  and  O_9
REMARK    3  A    between atoms: O_9  and  C_10
REMARK    4  A    between atoms: C_10  and  C_11
REMARK    5  A    between atoms: C_11  and  C_12
REMARK    6  A    between atoms: C_16  and  C_17
REMARK                            x       y       z     vdW  Elec       q    Type
REMARK                         _______ _______ _______ _____ _____    ______ ____
ROOT
ATOM      1  C   UNL     1      48.982   7.790  15.036  0.00  0.00    +0.000 C 
ENDROOT
BRANCH   1   2
ATOM      2  C   UNL     1      49.088   6.981  16.297  0.00  0.00    +0.000 A 
ATOM      3  C   UNL     1      48.534   7.419  17.490  0.00  0.00    +0.000 A 
ATOM      4  N   UNL     1      48.691   6.776  18.664  0.00  0.00    +0.000 NA
ATOM      5  C   UNL     1      49.453   5.652  18.649  0.00  0.00    +0.000 A 
ATOM      6  C   UNL     1      50.061   5.092  17.520  0.00  0.00    +0.000 A 
ATOM      7  C   UNL     1      49.820   5.785  16.323  0.00  0.00    +0.000 A 
BRANCH   6   8
ATOM      8  C   UNL     1      50.874   3.846  17.593  0.00  0.00    +0.000 A 
ATOM      9  C   UNL     1      52.224   3.930  18.013  0.00  0.00    +0.000 A 
ATOM     10  C   UNL     1      53.050   2.804  18.112  0.00  0.00    +0.000 A 
ATOM     11  C   UNL     1      52.546   1.545  17.823  0.00  0.00    +0.000 A 
ATOM     12  C   UNL     1      51.226   1.418  17.404  0.00  0.00    +0.000 A 
ATOM     13  C   UNL     1      50.406   2.550  17.264  0.00  0.00    +0.000 A 
ATOM     14 CL   UNL     1      48.837   2.232  16.590  0.00  0.00    +0.000 Cl
ENDBRANCH   6   8
ENDBRANCH   1   2
BRANCH   1  15
ATOM     15  C   UNL     1      48.600   6.912  13.842  0.00  0.00    +0.000 C 
BRANCH  15  16
ATOM     16  O   UNL     1      47.177   6.933  13.694  0.00  0.00    +0.000 OA
BRANCH  16  21
ATOM     17  C   UNL     1      45.050   4.413  11.996  0.00  0.00    +0.000 A 
ATOM     18  C   UNL     1      45.564   3.298  12.643  0.00  0.00    +0.000 A 
ATOM     19  N   UNL     1      46.564   3.361  13.554  0.00  0.00    +0.000 NA
ATOM     20  C   UNL     1      47.046   4.599  13.838  0.00  0.00    +0.000 A 
ATOM     21  C   UNL     1      46.581   5.779  13.267  0.00  0.00    +0.000 A 
ATOM     22  C   UNL     1      45.559   5.677  12.327  0.00  0.00    +0.000 A 
BRANCH  17  24
ATOM     23  N   UNL     1      43.964   5.074   9.923  0.00  0.00    +0.000 N 
ATOM     24  C   UNL     1      43.975   4.227  11.000  0.00  0.00    +0.000 C 
ATOM     25  O   UNL     1      43.156   3.324  11.102  0.00  0.00    +0.000 OA
ATOM     26  H   UNL     1      43.294   4.863   9.196  0.00  0.00    +0.000 HD
ATOM     27  H   UNL     1      44.755   5.648   9.672  0.00  0.00    +0.000 HD
ENDBRANCH  17  24
ENDBRANCH  16  21
ENDBRANCH  15  16
ENDBRANCH   1  15
TORSDOF 6
ENDMDL
MODEL 8
REMARK VINA RESULT:    -6.278      4.457      7.385
REMARK INTER + INTRA:          -9.388
REMARK INTER:                  -8.277
REMARK INTRA:                  -1.111
REMARK UNBOUND:                -0.908
REMARK  Name = 
REMARK  6 active torsions:
REMARK  status: ('A' for Active; 'I' for Inactive)
REMARK    1  A    between atoms: C_2  and  C_4
REMARK    2  A    between atoms: C_8  and  O_9
REMARK    3  A    between atoms: O_9  and  C_10
REMARK    4  A    between atoms: C_10  and  C_11
REMARK    5  A    between atoms: C_11  and  C_12
REMARK    6  A    between atoms: C_16  and  C_17
REMARK                            x       y       z     vdW  Elec       q    Type
REMARK                         _______ _______ _______ _____ _____    ______ ____
ROOT
ATOM      1  C   UNL     1      48.490   8.389  15.339  0.00  0.00    +0.000 C 
ENDROOT
BRANCH   1   2
ATOM      2  C   UNL     1      48.228   7.800  13.982  0.00  0.00    +0.000 A 
ATOM      3  C   UNL     1      49.012   8.124  12.886  0.00  0.00    +0.000 A 
ATOM      4  N   UNL     1      48.752   7.698  11.634  0.00  0.00    +0.000 NA
ATOM      5  C   UNL     1      47.646   6.929  11.466  0.00  0.00    +0.000 A 
ATOM      6  C   UNL     1      46.775   6.517  12.481  0.00  0.00    +0.000 A 
ATOM      7  C   UNL     1      47.129   6.956  13.767  0.00  0.00    +0.000 A 
BRANCH   6   8
ATOM      8  C   UNL     1      45.587   5.662  12.208  0.00  0.00    +0.000 A 
ATOM      9  C   UNL     1      44.451   6.239  11.591  0.00  0.00    +0.000 A 
ATOM     10  C   UNL     1      43.299   5.500  11.297  0.00  0.00    +0.000 A 
ATOM     11  C   UNL     1      43.253   4.143  11.584  0.00  0.00    +0.000 A 
ATOM     12  C   UNL     1      44.346   3.537  12.193  0.00  0.00    +0.000 A 
ATOM     13  C   UNL     1      45.488   4.285  12.526  0.00  0.00    +0.000 A 
ATOM     14 CL   UNL     1      46.696   3.409  13.414  0.00  0.00    +0.000 Cl
ENDBRANCH   6   8
ENDBRANCH   1   2
BRANCH   1  15
ATOM     15  C   UNL     1      49.336   7.448  16.201  0.00  0.00    +0.000 C 
BRANCH  15  16
ATOM     16  O   UNL     1      48.473   6.761  17.112  0.00  0.00    +0.000 OA
BRANCH  16  21
ATOM     17  C   UNL     1      49.565   3.219  17.244  0.00  0.00    +0.000 A 
ATOM     18  C   UNL     1      48.318   2.652  17.019  0.00  0.00    +0.000 A 
ATOM     19  N   UNL     1      47.186   3.379  16.867  0.00  0.00    +0.000 NA
ATOM     20  C   UNL     1      47.323   4.729  16.918  0.00  0.00    +0.000 A 
ATOM     21  C   UNL     1      48.530   5.395  17.110  0.00  0.00    +0.000 A 
ATOM     22  C   UNL     1      49.672   4.616  17.274  0.00  0.00    +0.000 A 
BRANCH  17  24
ATOM     23  N   UNL     1      51.738   2.772  18.238  0.00  0.00    +0.000 N 
ATOM     24  C   UNL     1      50.731   2.330  17.423  0.00  0.00    +0.000 C 
ATOM     25  O   UNL     1      50.777   1.222  16.905  0.00  0.00    +0.000 OA
ATOM     26  H   UNL     1      52.473   2.108  18.440  0.00  0.00    +0.000 HD
ATOM     27  H   UNL     1      51.623   3.545  18.876  0.00  0.00    +0.000 HD
ENDBRANCH  17  24
ENDBRANCH  16  21
ENDBRANCH  15  16
ENDBRANCH   1  15
TORSDOF 6
ENDMDL
MODEL 9
REMARK VINA RESULT:    -5.868      3.687      5.915
REMARK INTER + INTRA:          -8.834
REMARK INTER:                  -7.976
REMARK INTRA:                  -0.858
REMARK UNBOUND:                -0.908
REMARK  Name = 
REMARK  6 active torsions:
REMARK  status: ('A' for Active; 'I' for Inactive)
REMARK    1  A    between atoms: C_2  and  C_4
REMARK    2  A    between atoms: C_8  and  O_9
REMARK    3  A    between atoms: O_9  and  C_10
REMARK    4  A    between atoms: C_10  and  C_11
REMARK    5  A    between atoms: C_11  and  C_12
REMARK    6  A    between atoms: C_16  and  C_17
REMARK                            x       y       z     vdW  Elec       q    Type
REMARK                         _______ _______ _______ _____ _____    ______ ____
ROOT
ATOM      1  C   UNL     1      48.260   7.793  12.793  0.00  0.00    +0.000 C 
ENDROOT
BRANCH   1   2
ATOM      2  C   UNL     1      49.179   7.596  13.965  0.00  0.00    +0.000 A 
ATOM      3  C   UNL     1      50.495   8.028  13.938  0.00  0.00    +0.000 A 
ATOM      4  N   UNL     1      51.380   7.784  14.924  0.00  0.00    +0.000 NA
ATOM      5  C   UNL     1      50.934   7.056  15.980  0.00  0.00    +0.000 A 
ATOM      6  C   UNL     1      49.632   6.568  16.144  0.00  0.00    +0.000 A 
ATOM      7  C   UNL     1      48.750   6.898  15.103  0.00  0.00    +0.000 A 
BRANCH   6   8
ATOM      8  C   UNL     1      49.224   5.785  17.344  0.00  0.00    +0.000 A 
ATOM      9  C   UNL     1      49.495   4.396  17.383  0.00  0.00    +0.000 A 
ATOM     10  C   UNL     1      49.147   3.595  18.477  0.00  0.00    +0.000 A 
ATOM     11  C   UNL     1      48.542   4.161  19.589  0.00  0.00    +0.000 A 
ATOM     12  C   UNL     1      48.255   5.522  19.590  0.00  0.00    +0.000 A 
ATOM     13  C   UNL     1      48.565   6.322  18.478  0.00  0.00    +0.000 A 
ATOM     14 CL   UNL     1      48.006   7.962  18.584  0.00  0.00    +0.000 Cl
ENDBRANCH   6   8
ENDBRANCH   1   2
BRANCH   1  15
ATOM     15  C   UNL     1      46.793   7.649  13.205  0.00  0.00    +0.000 C 
BRANCH  15  16
ATOM     16  O   UNL     1      46.018   7.348  12.040  0.00  0.00    +0.000 OA
BRANCH  16  21
ATOM     17  C   UNL     1      44.906   4.065  10.716  0.00  0.00    +0.000 A 
ATOM     18  C   UNL     1      44.705   3.451  11.944  0.00  0.00    +0.000 A 
ATOM     19  N   UNL     1      44.947   4.058  13.130  0.00  0.00    +0.000 NA
ATOM     20  C   UNL     1      45.385   5.342  13.073  0.00  0.00    +0.000 A 
ATOM     21  C   UNL     1      45.592   6.056  11.897  0.00  0.00    +0.000 A 
ATOM     22  C   UNL     1      45.343   5.398  10.696  0.00  0.00    +0.000 A 
BRANCH  17  24
ATOM     23  N   UNL     1      44.617   1.934   9.583  0.00  0.00    +0.000 N 
ATOM     24  C   UNL     1      44.634   3.300   9.483  0.00  0.00    +0.000 C 
ATOM     25  O   UNL     1      44.384   3.860   8.423  0.00  0.00    +0.000 OA
ATOM     26  H   UNL     1      44.319   1.430   8.758  0.00  0.00    +0.000 HD
ATOM     27  H   UNL     1      44.559   1.453  10.467  0.00  0.00    +0.000 HD
ENDBRANCH  17  24
ENDBRANCH  16  21
ENDBRANCH  15  16
ENDBRANCH   1  15
TORSDOF 6
ENDMDL
