MODEL 1
REMARK VINA RESULT:    -8.059      0.000      0.000
REMARK INTER + INTRA:         -13.206
REMARK INTER:                 -12.063
REMARK INTRA:                  -1.143
REMARK UNBOUND:                -1.143
REMARK  Name = 
REMARK  9 active torsions:
REMARK  status: ('A' for Active; 'I' for Inactive)
REMARK    1  A    between atoms: N_1  and  C_2
REMARK    2  A    between atoms: C_2  and  C_3
REMARK    3  A    between atoms: C_3  and  N_4
REMARK    4  A    between atoms: C_3  and  C_20
REMARK    5  A    between atoms: N_4  and  C_5
REMARK    6  A    between atoms: C_5  and  C_6
REMARK    7  A    between atoms: C_9  and  C_10
REMARK    8  A    between atoms: C_10  and  N_11
REMARK    9  A    between atoms: C_20  and  C_22
REMARK                            x       y       z     vdW  Elec       q    Type
REMARK                         _______ _______ _______ _____ _____    ______ ____
ROOT
ATOM      1  C   UNL     1      49.190   6.338  16.034  0.00  0.00    +0.000 C 
ENDROOT
BRANCH   1   2
ATOM      2  N   UNL     1      48.013   5.883  15.235  0.00  0.00    +0.000 NA
ATOM      3  H   UNL     1      48.034   4.861  15.194  0.00  0.00    +0.000 HD
BRANCH   2   4
ATOM      4  C   UNL     1      48.062   6.386  13.858  0.00  0.00    +0.000 C 
BRANCH   4   5
ATOM      5  C   UNL     1      46.934   5.821  13.030  0.00  0.00    +0.000 A 
ATOM      6  C   UNL     1      46.383   6.576  11.986  0.00  0.00    +0.000 A 
ATOM      7  C   UNL     1      45.369   6.048  11.189  0.00  0.00    +0.000 A 
ATOM      8  C   UNL     1      44.878   4.756  11.424  0.00  0.00    +0.000 A 
ATOM      9  C   UNL     1      45.427   3.997  12.465  0.00  0.00    +0.000 A 
ATOM     10  C   UNL     1      46.445   4.527  13.264  0.00  0.00    +0.000 A 
BRANCH   8  11
ATOM     11  C   UNL     1      43.785   4.193  10.551  0.00  0.00    +0.000 C 
BRANCH  11  12
ATOM     12  N   UNL     1      44.059   4.503   9.165  0.00  0.00    +0.000 N 
ATOM     13  C   UNL     1      44.984   3.639   8.592  0.00  0.00    +0.000 A 
ATOM     14  N   UNL     1      45.027   2.357   8.986  0.00  0.00    +0.000 NA
ATOM     15  C   UNL     1      45.945   1.564   8.407  0.00  0.00    +0.000 A 
ATOM     16  C   UNL     1      46.822   2.004   7.449  0.00  0.00    +0.000 A 
ATOM     17  C   UNL     1      46.700   3.330   7.113  0.00  0.00    +0.000 A 
ATOM     18  N   UNL     1      45.801   4.163   7.672  0.00  0.00    +0.000 NA
ATOM     19  H   UNL     1      44.385   5.448   8.984  0.00  0.00    +0.000 HD
ENDBRANCH  11  12
ENDBRANCH   8  11
ENDBRANCH   4   5
ENDBRANCH   2   4
ENDBRANCH   1   2
BRANCH   1  20
ATOM     20  C   UNL     1      49.107   5.816  17.474  0.00  0.00    +0.000 C 
ATOM     21  O   UNL     1      48.051   5.926  18.103  0.00  0.00    +0.000 OA
BRANCH  20  22
ATOM     22  C   UNL     1      50.242   5.105  18.070  0.00  0.00    +0.000 A 
ATOM     23  C   UNL     1      51.230   5.680  18.853  0.00  0.00    +0.000 A 
ATOM     24  S   UNL     1      52.590   4.652  19.050  0.00  0.00    +0.000 S 
ATOM     25  C   UNL     1      51.833   3.391  18.187  0.00  0.00    +0.000 A 
ATOM     26  N   UNL     1      52.474   2.227  17.905  0.00  0.00    +0.000 NA
ATOM     27  C   UNL     1      51.735   1.356  17.299  0.00  0.00    +0.000 A 
ATOM     28  N   UNL     1      50.408   1.525  16.986  0.00  0.00    +0.000 N 
ATOM     29  C   UNL     1      49.702   2.661  17.313  0.00  0.00    +0.000 A 
ATOM     30  O   UNL     1      48.482   2.706  17.237  0.00  0.00    +0.000 OA
ATOM     31  C   UNL     1      50.534   3.716  17.861  0.00  0.00    +0.000 A 
ATOM     32  H   UNL     1      49.860   0.759  16.627  0.00  0.00    +0.000 HD
ENDBRANCH  20  22
ENDBRANCH   1  20
BRANCH   1  33
ATOM     33  C   UNL     1      49.215   7.879  16.134  0.00  0.00    +0.000 C 
BRANCH  33  34
ATOM     34  N   UNL     1      48.019   8.407  16.797  0.00  0.00    +0.000 NA
ATOM     35  H   UNL     1      48.105   8.275  17.804  0.00  0.00    +0.000 HD
ATOM     36  H   UNL     1      47.224   7.836  16.496  0.00  0.00    +0.000 HD
ENDBRANCH  33  34
ENDBRANCH   1  33
TORSDOF 9
ENDMDL
MODEL 2
REMARK VINA RESULT:    -8.008      1.049      1.507
REMARK INTER + INTRA:         -13.130
REMARK INTER:                 -11.588
REMARK INTRA:                  -1.542
REMARK UNBOUND:                -1.143
REMARK  Name = 
REMARK  9 active torsions:
REMARK  status: ('A' for Active; 'I' for Inactive)
REMARK    1  A    between atoms: N_1  and  C_2
REMARK    2  A    between atoms: C_2  and  C_3
REMARK    3  A    between atoms: C_3  and  N_4
REMARK    4  A    between atoms: C_3  and  C_20
REMARK    5  A    between atoms: N_4  and  C_5
REMARK    6  A    between atoms: C_5  and  C_6
REMARK    7  A    between atoms: C_9  and  C_10
REMARK    8  A    between atoms: C_10  and  N_11
REMARK    9  A    between atoms: C_20  and  C_22
REMARK                            x       y       z     vdW  Elec       q    Type
REMARK                         _______ _______ _______ _____ _____    ______ ____
ROOT
ATOM      1  C   UNL     1      49.199   7.569  16.067  0.00  0.00    +0.000 C 
ENDROOT
BRANCH   1   2
ATOM      2  N   UNL     1      48.091   7.010  15.236  0.00  0.00    +0.000 NA
ATOM      3  H   UNL     1      47.850   6.089  15.610  0.00  0.00    +0.000 HD
BRANCH   2   4
ATOM      4  C   UNL     1      48.495   6.833  13.838  0.00  0.00    +0.000 C 
BRANCH   4   5
ATOM      5  C   UNL     1      47.401   6.175  13.032  0.00  0.00    +0.000 A 
ATOM      6  C   UNL     1      46.864   4.950  13.448  0.00  0.00    +0.000 A 
ATOM      7  C   UNL     1      45.825   4.354  12.735  0.00  0.00    +0.000 A 
ATOM      8  C   UNL     1      45.308   4.966  11.585  0.00  0.00    +0.000 A 
ATOM      9  C   UNL     1      45.841   6.192  11.166  0.00  0.00    +0.000 A 
ATOM     10  C   UNL     1      46.883   6.790  11.883  0.00  0.00    +0.000 A 
BRANCH   8  11
ATOM     11  C   UNL     1      44.181   4.315  10.825  0.00  0.00    +0.000 C 
BRANCH  11  12
ATOM     12  N   UNL     1      44.288   4.638   9.419  0.00  0.00    +0.000 N 
ATOM     13  C   UNL     1      45.114   3.763   8.725  0.00  0.00    +0.000 A 
ATOM     14  N   UNL     1      45.174   2.475   9.096  0.00  0.00    +0.000 NA
ATOM     15  C   UNL     1      45.994   1.670   8.397  0.00  0.00    +0.000 A 
ATOM     16  C   UNL     1      46.756   2.104   7.343  0.00  0.00    +0.000 A 
ATOM     17  C   UNL     1      46.625   3.437   7.041  0.00  0.00    +0.000 A 
ATOM     18  N   UNL     1      45.823   4.282   7.717  0.00  0.00    +0.000 NA
ATOM     19  H   UNL     1      44.612   5.579   9.210  0.00  0.00    +0.000 HD
ENDBRANCH  11  12
ENDBRANCH   8  11
ENDBRANCH   4   5
ENDBRANCH   2   4
ENDBRANCH   1   2
BRANCH   1  20
ATOM     20  C   UNL     1      49.156   6.997  17.490  0.00  0.00    +0.000 C 
ATOM     21  O   UNL     1      48.441   7.533  18.341  0.00  0.00    +0.000 OA
BRANCH  20  22
ATOM     22  C   UNL     1      49.884   5.767  17.817  0.00  0.00    +0.000 A 
ATOM     23  C   UNL     1      51.118   5.705  18.443  0.00  0.00    +0.000 A 
ATOM     24  S   UNL     1      51.839   4.153  18.314  0.00  0.00    +0.000 S 
ATOM     25  C   UNL     1      50.471   3.520  17.518  0.00  0.00    +0.000 A 
ATOM     26  N   UNL     1      50.440   2.249  17.041  0.00  0.00    +0.000 NA
ATOM     27  C   UNL     1      49.305   1.911  16.521  0.00  0.00    +0.000 A 
ATOM     28  N   UNL     1      48.189   2.711  16.470  0.00  0.00    +0.000 N 
ATOM     29  C   UNL     1      48.157   3.982  17.000  0.00  0.00    +0.000 A 
ATOM     30  O   UNL     1      47.106   4.589  17.153  0.00  0.00    +0.000 OA
ATOM     31  C   UNL     1      49.452   4.447  17.459  0.00  0.00    +0.000 A 
ATOM     32  H   UNL     1      47.303   2.343  16.165  0.00  0.00    +0.000 HD
ENDBRANCH  20  22
ENDBRANCH   1  20
BRANCH   1  33
ATOM     33  C   UNL     1      49.051   9.100  16.213  0.00  0.00    +0.000 C 
BRANCH  33  34
ATOM     34  N   UNL     1      47.645   9.514  16.255  0.00  0.00    +0.000 NA
ATOM     35  H   UNL     1      47.581  10.448  16.657  0.00  0.00    +0.000 HD
ATOM     36  H   UNL     1      47.159   8.885  16.901  0.00  0.00    +0.000 HD
ENDBRANCH  33  34
ENDBRANCH   1  33
TORSDOF 9
ENDMDL
MODEL 3
REMARK VINA RESULT:    -7.790      2.271      4.149
REMARK INTER + INTRA:         -12.804
REMARK INTER:                 -11.706
REMARK INTRA:                  -1.099
REMARK UNBOUND:                -1.143
REMARK  Name = 
REMARK  9 active torsions:
REMARK  status: ('A' for Active; 'I' for Inactive)
REMARK    1  A    between atoms: N_1  and  C_2
REMARK    2  A    between atoms: C_2  and  C_3
REMARK    3  A    between atoms: C_3  and  N_4
REMARK    4  A    between atoms: C_3  and  C_20
REMARK    5  A    between atoms: N_4  and  C_5
REMARK    6  A    between atoms: C_5  and  C_6
REMARK    7  A    between atoms: C_9  and  C_10
REMARK    8  A    between atoms: C_10  and  N_11
REMARK    9  A    between atoms: C_20  and  C_22
REMARK                            x       y       z     vdW  Elec       q    Type
REMARK                         _______ _______ _______ _____ _____    ______ ____
ROOT
ATOM      1  C   UNL     1      47.936   4.892  16.584  0.00  0.00    +0.000 C 
ENDROOT
BRANCH   1   2
ATOM      2  N   UNL     1      48.033   4.675  15.109  0.00  0.00    +0.000 NA
ATOM      3  H   UNL     1      49.024   4.596  14.866  0.00  0.00    +0.000 HD
BRANCH   2   4
ATOM      4  C   UNL     1      47.478   5.804  14.356  0.00  0.00    +0.000 C 
BRANCH   4   5
ATOM      5  C   UNL     1      46.542   5.329  13.271  0.00  0.00    +0.000 A 
ATOM      6  C   UNL     1      46.058   4.015  13.288  0.00  0.00    +0.000 A 
ATOM      7  C   UNL     1      45.161   3.578  12.314  0.00  0.00    +0.000 A 
ATOM      8  C   UNL     1      44.736   4.445  11.298  0.00  0.00    +0.000 A 
ATOM      9  C   UNL     1      45.215   5.760  11.278  0.00  0.00    +0.000 A 
ATOM     10  C   UNL     1      46.115   6.198  12.256  0.00  0.00    +0.000 A 
BRANCH   8  11
ATOM     11  C   UNL     1      43.761   3.963  10.253  0.00  0.00    +0.000 C 
BRANCH  11  12
ATOM     12  N   UNL     1      44.202   4.383   8.942  0.00  0.00    +0.000 N 
ATOM     13  C   UNL     1      45.187   3.557   8.413  0.00  0.00    +0.000 A 
ATOM     14  N   UNL     1      45.175   2.246   8.700  0.00  0.00    +0.000 NA
ATOM     15  C   UNL     1      46.153   1.490   8.171  0.00  0.00    +0.000 A 
ATOM     16  C   UNL     1      47.142   1.996   7.367  0.00  0.00    +0.000 A 
ATOM     17  C   UNL     1      47.067   3.346   7.132  0.00  0.00    +0.000 A 
ATOM     18  N   UNL     1      46.111   4.143   7.646  0.00  0.00    +0.000 NA
ATOM     19  H   UNL     1      44.553   5.335   8.883  0.00  0.00    +0.000 HD
ENDBRANCH  11  12
ENDBRANCH   8  11
ENDBRANCH   4   5
ENDBRANCH   2   4
ENDBRANCH   1   2
BRANCH   1  20
ATOM     20  C   UNL     1      49.164   5.646  17.107  0.00  0.00    +0.000 C 
ATOM     21  O   UNL     1      50.270   5.441  16.598  0.00  0.00    +0.000 OA
BRANCH  20  22
ATOM     22  C   UNL     1      49.017   6.675  18.141  0.00  0.00    +0.000 A 
ATOM     23  C   UNL     1      49.078   6.458  19.507  0.00  0.00    +0.000 A 
ATOM     24  S   UNL     1      48.481   7.791  20.409  0.00  0.00    +0.000 S 
ATOM     25  C   UNL     1      48.237   8.711  18.996  0.00  0.00    +0.000 A 
ATOM     26  N   UNL     1      47.663   9.942  19.029  0.00  0.00    +0.000 NA
ATOM     27  C   UNL     1      47.611  10.527  17.876  0.00  0.00    +0.000 A 
ATOM     28  N   UNL     1      48.113  10.014  16.705  0.00  0.00    +0.000 N 
ATOM     29  C   UNL     1      48.761   8.801  16.638  0.00  0.00    +0.000 A 
ATOM     30  O   UNL     1      49.398   8.465  15.650  0.00  0.00    +0.000 OA
ATOM     31  C   UNL     1      48.708   8.052  17.880  0.00  0.00    +0.000 A 
ATOM     32  H   UNL     1      48.151  10.575  15.869  0.00  0.00    +0.000 HD
ENDBRANCH  20  22
ENDBRANCH   1  20
BRANCH   1  33
ATOM     33  C   UNL     1      47.910   3.539  17.331  0.00  0.00    +0.000 C 
BRANCH  33  34
ATOM     34  N   UNL     1      46.543   3.062  17.558  0.00  0.00    +0.000 NA
ATOM     35  H   UNL     1      45.928   3.447  16.842  0.00  0.00    +0.000 HD
ATOM     36  H   UNL     1      46.228   3.450  18.452  0.00  0.00    +0.000 HD
ENDBRANCH  33  34
ENDBRANCH   1  33
TORSDOF 9
ENDMDL
MODEL 4
REMARK VINA RESULT:    -7.782      2.367      3.034
REMARK INTER + INTRA:         -12.791
REMARK INTER:                 -11.740
REMARK INTRA:                  -1.052
REMARK UNBOUND:                -1.143
REMARK  Name = 
REMARK  9 active torsions:
REMARK  status: ('A' for Active; 'I' for Inactive)
REMARK    1  A    between atoms: N_1  and  C_2
REMARK    2  A    between atoms: C_2  and  C_3
REMARK    3  A    between atoms: C_3  and  N_4
REMARK    4  A    between atoms: C_3  and  C_20
REMARK    5  A    between atoms: N_4  and  C_5
REMARK    6  A    between atoms: C_5  and  C_6
REMARK    7  A    between atoms: C_9  and  C_10
REMARK    8  A    between atoms: C_10  and  N_11
REMARK    9  A    between atoms: C_20  and  C_22
REMARK                            x       y       z     vdW  Elec       q    Type
REMARK                         _______ _______ _______ _____ _____    ______ ____
ROOT
ATOM      1  C   UNL     1      47.841   5.249  15.998  0.00  0.00    +0.000 C 
ENDROOT
BRANCH   1   2
ATOM      2  N   UNL     1      48.210   5.489  14.571  0.00  0.00    +0.000 NA
ATOM      3  H   UNL     1      49.172   5.837  14.547  0.00  0.00    +0.000 HD
BRANCH   2   4
ATOM      4  C   UNL     1      47.353   6.504  13.950  0.00  0.00    +0.000 C 
BRANCH   4   5
ATOM      5  C   UNL     1      46.411   5.885  12.946  0.00  0.00    +0.000 A 
ATOM      6  C   UNL     1      46.297   6.430  11.661  0.00  0.00    +0.000 A 
ATOM      7  C   UNL     1      45.461   5.842  10.714  0.00  0.00    +0.000 A 
ATOM      8  C   UNL     1      44.715   4.700  11.034  0.00  0.00    +0.000 A 
ATOM      9  C   UNL     1      44.827   4.149  12.317  0.00  0.00    +0.000 A 
ATOM     10  C   UNL     1      45.667   4.740  13.267  0.00  0.00    +0.000 A 
BRANCH   8  11
ATOM     11  C   UNL     1      43.818   4.068   9.999  0.00  0.00    +0.000 C 
BRANCH  11  12
ATOM     12  N   UNL     1      44.292   4.402   8.674  0.00  0.00    +0.000 N 
ATOM     13  C   UNL     1      45.270   3.527   8.214  0.00  0.00    +0.000 A 
ATOM     14  N   UNL     1      45.227   2.236   8.577  0.00  0.00    +0.000 NA
ATOM     15  C   UNL     1      46.199   1.433   8.112  0.00  0.00    +0.000 A 
ATOM     16  C   UNL     1      47.213   1.871   7.299  0.00  0.00    +0.000 A 
ATOM     17  C   UNL     1      47.169   3.207   6.984  0.00  0.00    +0.000 A 
ATOM     18  N   UNL     1      46.220   4.050   7.432  0.00  0.00    +0.000 NA
ATOM     19  H   UNL     1      44.663   5.342   8.566  0.00  0.00    +0.000 HD
ENDBRANCH  11  12
ENDBRANCH   8  11
ENDBRANCH   4   5
ENDBRANCH   2   4
ENDBRANCH   1   2
BRANCH   1  20
ATOM     20  C   UNL     1      48.992   5.638  16.933  0.00  0.00    +0.000 C 
ATOM     21  O   UNL     1      50.150   5.328  16.637  0.00  0.00    +0.000 OA
BRANCH  20  22
ATOM     22  C   UNL     1      48.736   6.454  18.123  0.00  0.00    +0.000 A 
ATOM     23  C   UNL     1      48.403   7.799  18.121  0.00  0.00    +0.000 A 
ATOM     24  S   UNL     1      48.561   8.515  19.672  0.00  0.00    +0.000 S 
ATOM     25  C   UNL     1      48.969   7.021  20.384  0.00  0.00    +0.000 A 
ATOM     26  N   UNL     1      49.317   6.919  21.692  0.00  0.00    +0.000 NA
ATOM     27  C   UNL     1      49.536   5.705  22.083  0.00  0.00    +0.000 A 
ATOM     28  N   UNL     1      49.400   4.585  21.300  0.00  0.00    +0.000 N 
ATOM     29  C   UNL     1      48.986   4.637  19.988  0.00  0.00    +0.000 A 
ATOM     30  O   UNL     1      48.651   3.631  19.378  0.00  0.00    +0.000 OA
ATOM     31  C   UNL     1      48.874   5.990  19.474  0.00  0.00    +0.000 A 
ATOM     32  H   UNL     1      49.465   3.663  21.700  0.00  0.00    +0.000 HD
ENDBRANCH  20  22
ENDBRANCH   1  20
BRANCH   1  33
ATOM     33  C   UNL     1      47.573   3.747  16.244  0.00  0.00    +0.000 C 
BRANCH  33  34
ATOM     34  N   UNL     1      46.643   3.530  17.356  0.00  0.00    +0.000 NA
ATOM     35  H   UNL     1      45.750   3.970  17.140  0.00  0.00    +0.000 HD
ATOM     36  H   UNL     1      47.020   4.020  18.172  0.00  0.00    +0.000 HD
ENDBRANCH  33  34
ENDBRANCH   1  33
TORSDOF 9
ENDMDL
MODEL 5
REMARK VINA RESULT:    -7.528      1.886      2.524
REMARK INTER + INTRA:         -12.412
REMARK INTER:                 -11.388
REMARK INTRA:                  -1.024
REMARK UNBOUND:                -1.143
REMARK  Name = 
REMARK  9 active torsions:
REMARK  status: ('A' for Active; 'I' for Inactive)
REMARK    1  A    between atoms: N_1  and  C_2
REMARK    2  A    between atoms: C_2  and  C_3
REMARK    3  A    between atoms: C_3  and  N_4
REMARK    4  A    between atoms: C_3  and  C_20
REMARK    5  A    between atoms: N_4  and  C_5
REMARK    6  A    between atoms: C_5  and  C_6
REMARK    7  A    between atoms: C_9  and  C_10
REMARK    8  A    between atoms: C_10  and  N_11
REMARK    9  A    between atoms: C_20  and  C_22
REMARK                            x       y       z     vdW  Elec       q    Type
REMARK                         _______ _______ _______ _____ _____    ______ ____
ROOT
ATOM      1  C   UNL     1      49.258   6.395  16.042  0.00  0.00    +0.000 C 
ENDROOT
BRANCH   1   2
ATOM      2  N   UNL     1      47.986   6.392  15.260  0.00  0.00    +0.000 NA
ATOM      3  H   UNL     1      47.540   5.480  15.385  0.00  0.00    +0.000 HD
BRANCH   2   4
ATOM      4  C   UNL     1      48.229   6.576  13.825  0.00  0.00    +0.000 C 
BRANCH   4   5
ATOM      5  C   UNL     1      47.103   5.998  13.002  0.00  0.00    +0.000 A 
ATOM      6  C   UNL     1      46.718   6.617  11.806  0.00  0.00    +0.000 A 
ATOM      7  C   UNL     1      45.707   6.070  11.018  0.00  0.00    +0.000 A 
ATOM      8  C   UNL     1      45.053   4.895  11.415  0.00  0.00    +0.000 A 
ATOM      9  C   UNL     1      45.436   4.271  12.608  0.00  0.00    +0.000 A 
ATOM     10  C   UNL     1      46.451   4.821  13.399  0.00  0.00    +0.000 A 
BRANCH   8  11
ATOM     11  C   UNL     1      43.965   4.308  10.551  0.00  0.00    +0.000 C 
BRANCH  11  12
ATOM     12  N   UNL     1      44.225   4.615   9.162  0.00  0.00    +0.000 N 
ATOM     13  C   UNL     1      45.111   3.724   8.568  0.00  0.00    +0.000 A 
ATOM     14  N   UNL     1      45.116   2.439   8.956  0.00  0.00    +0.000 NA
ATOM     15  C   UNL     1      45.996   1.618   8.357  0.00  0.00    +0.000 A 
ATOM     16  C   UNL     1      46.871   2.033   7.386  0.00  0.00    +0.000 A 
ATOM     17  C   UNL     1      46.788   3.363   7.059  0.00  0.00    +0.000 A 
ATOM     18  N   UNL     1      45.928   4.224   7.637  0.00  0.00    +0.000 NA
ATOM     19  H   UNL     1      44.581   5.550   8.980  0.00  0.00    +0.000 HD
ENDBRANCH  11  12
ENDBRANCH   8  11
ENDBRANCH   4   5
ENDBRANCH   2   4
ENDBRANCH   1   2
BRANCH   1  20
ATOM     20  C   UNL     1      49.299   5.218  17.023  0.00  0.00    +0.000 C 
ATOM     21  O   UNL     1      48.918   4.103  16.655  0.00  0.00    +0.000 OA
BRANCH  20  22
ATOM     22  C   UNL     1      49.874   5.388  18.361  0.00  0.00    +0.000 A 
ATOM     23  C   UNL     1      51.226   5.396  18.661  0.00  0.00    +0.000 A 
ATOM     24  S   UNL     1      51.524   5.224  20.343  0.00  0.00    +0.000 S 
ATOM     25  C   UNL     1      49.857   5.245  20.699  0.00  0.00    +0.000 A 
ATOM     26  N   UNL     1      49.389   5.056  21.960  0.00  0.00    +0.000 NA
ATOM     27  C   UNL     1      48.104   5.164  22.063  0.00  0.00    +0.000 A 
ATOM     28  N   UNL     1      47.251   5.483  21.034  0.00  0.00    +0.000 N 
ATOM     29  C   UNL     1      47.690   5.747  19.756  0.00  0.00    +0.000 A 
ATOM     30  O   UNL     1      46.957   6.248  18.914  0.00  0.00    +0.000 OA
ATOM     31  C   UNL     1      49.106   5.491  19.569  0.00  0.00    +0.000 A 
ATOM     32  H   UNL     1      46.278   5.674  21.209  0.00  0.00    +0.000 HD
ENDBRANCH  20  22
ENDBRANCH   1  20
BRANCH   1  33
ATOM     33  C   UNL     1      49.365   7.676  16.900  0.00  0.00    +0.000 C 
BRANCH  33  34
ATOM     34  N   UNL     1      48.068   8.341  17.060  0.00  0.00    +0.000 NA
ATOM     35  H   UNL     1      47.378   7.662  17.377  0.00  0.00    +0.000 HD
ATOM     36  H   UNL     1      47.767   8.652  16.132  0.00  0.00    +0.000 HD
ENDBRANCH  33  34
ENDBRANCH   1  33
TORSDOF 9
ENDMDL
MODEL 6
REMARK VINA RESULT:    -7.371      2.534      3.561
REMARK INTER + INTRA:         -12.177
REMARK INTER:                 -11.097
REMARK INTRA:                  -1.080
REMARK UNBOUND:                -1.143
REMARK  Name = 
REMARK  9 active torsions:
REMARK  status: ('A' for Active; 'I' for Inactive)
REMARK    1  A    between atoms: N_1  and  C_2
REMARK    2  A    between atoms: C_2  and  C_3
REMARK    3  A    between atoms: C_3  and  N_4
REMARK    4  A    between atoms: C_3  and  C_20
REMARK    5  A    between atoms: N_4  and  C_5
REMARK    6  A    between atoms: C_5  and  C_6
REMARK    7  A    between atoms: C_9  and  C_10
REMARK    8  A    between atoms: C_10  and  N_11
REMARK    9  A    between atoms: C_20  and  C_22
REMARK                            x       y       z     vdW  Elec       q    Type
REMARK                         _______ _______ _______ _____ _____    ______ ____
ROOT
ATOM      1  C   UNL     1      46.963   7.092  12.937  0.00  0.00    +0.000 C 
ENDROOT
BRANCH   1   2
ATOM      2  N   UNL     1      45.741   6.572  13.620  0.00  0.00    +0.000 NA
ATOM      3  H   UNL     1      45.908   5.593  13.865  0.00  0.00    +0.000 HD
BRANCH   2   4
ATOM      4  C   UNL     1      44.566   6.617  12.743  0.00  0.00    +0.000 C 
BRANCH   4   5
ATOM      5  C   UNL     1      44.590   5.490  11.740  0.00  0.00    +0.000 A 
ATOM      6  C   UNL     1      44.009   4.255  12.057  0.00  0.00    +0.000 A 
ATOM      7  C   UNL     1      43.990   3.221  11.123  0.00  0.00    +0.000 A 
ATOM      8  C   UNL     1      44.558   3.396   9.854  0.00  0.00    +0.000 A 
ATOM      9  C   UNL     1      45.138   4.630   9.531  0.00  0.00    +0.000 A 
ATOM     10  C   UNL     1      45.157   5.668  10.469  0.00  0.00    +0.000 A 
BRANCH   8  11
ATOM     11  C   UNL     1      44.525   2.272   8.850  0.00  0.00    +0.000 C 
BRANCH  11  12
ATOM     12  N   UNL     1      45.841   1.683   8.733  0.00  0.00    +0.000 N 
ATOM     13  C   UNL     1      46.421   1.898   7.489  0.00  0.00    +0.000 A 
ATOM     14  N   UNL     1      46.165   3.037   6.828  0.00  0.00    +0.000 NA
ATOM     15  C   UNL     1      46.744   3.195   5.625  0.00  0.00    +0.000 A 
ATOM     16  C   UNL     1      47.568   2.258   5.058  0.00  0.00    +0.000 A 
ATOM     17  C   UNL     1      47.769   1.128   5.812  0.00  0.00    +0.000 A 
ATOM     18  N   UNL     1      47.205   0.923   7.018  0.00  0.00    +0.000 NA
ATOM     19  H   UNL     1      45.890   0.683   8.913  0.00  0.00    +0.000 HD
ENDBRANCH  11  12
ENDBRANCH   8  11
ENDBRANCH   4   5
ENDBRANCH   2   4
ENDBRANCH   1   2
BRANCH   1  20
ATOM     20  C   UNL     1      48.233   6.555  13.607  0.00  0.00    +0.000 C 
ATOM     21  O   UNL     1      49.207   6.251  12.912  0.00  0.00    +0.000 OA
BRANCH  20  22
ATOM     22  C   UNL     1      48.330   6.491  15.068  0.00  0.00    +0.000 A 
ATOM     23  C   UNL     1      48.793   7.505  15.890  0.00  0.00    +0.000 A 
ATOM     24  S   UNL     1      49.133   6.956  17.480  0.00  0.00    +0.000 S 
ATOM     25  C   UNL     1      48.566   5.389  17.121  0.00  0.00    +0.000 A 
ATOM     26  N   UNL     1      48.642   4.373  18.020  0.00  0.00    +0.000 NA
ATOM     27  C   UNL     1      48.110   3.268  17.609  0.00  0.00    +0.000 A 
ATOM     28  N   UNL     1      47.474   3.097  16.402  0.00  0.00    +0.000 N 
ATOM     29  C   UNL     1      47.316   4.117  15.491  0.00  0.00    +0.000 A 
ATOM     30  O   UNL     1      46.559   4.014  14.536  0.00  0.00    +0.000 OA
ATOM     31  C   UNL     1      48.027   5.328  15.854  0.00  0.00    +0.000 A 
ATOM     32  H   UNL     1      46.974   2.248  16.198  0.00  0.00    +0.000 HD
ENDBRANCH  20  22
ENDBRANCH   1  20
BRANCH   1  33
ATOM     33  C   UNL     1      47.034   8.631  13.048  0.00  0.00    +0.000 C 
BRANCH  33  34
ATOM     34  N   UNL     1      48.013   9.205  12.120  0.00  0.00    +0.000 NA
ATOM     35  H   UNL     1      48.628   8.468  11.780  0.00  0.00    +0.000 HD
ATOM     36  H   UNL     1      48.600   9.851  12.655  0.00  0.00    +0.000 HD
ENDBRANCH  33  34
ENDBRANCH   1  33
TORSDOF 9
ENDMDL
MODEL 7
REMARK VINA RESULT:    -7.304      1.745      2.475
REMARK INTER + INTRA:         -12.076
REMARK INTER:                 -10.943
REMARK INTRA:                  -1.133
REMARK UNBOUND:                -1.143
REMARK  Name = 
REMARK  9 active torsions:
REMARK  status: ('A' for Active; 'I' for Inactive)
REMARK    1  A    between atoms: N_1  and  C_2
REMARK    2  A    between atoms: C_2  and  C_3
REMARK    3  A    between atoms: C_3  and  N_4
REMARK    4  A    between atoms: C_3  and  C_20
REMARK    5  A    between atoms: N_4  and  C_5
REMARK    6  A    between atoms: C_5  and  C_6
REMARK    7  A    between atoms: C_9  and  C_10
REMARK    8  A    between atoms: C_10  and  N_11
REMARK    9  A    between atoms: C_20  and  C_22
REMARK                            x       y       z     vdW  Elec       q    Type
REMARK                         _______ _______ _______ _____ _____    ______ ____
ROOT
ATOM      1  C   UNL     1      48.418   5.421  17.304  0.00  0.00    +0.000 C 
ENDROOT
BRANCH   1   2
ATOM      2  N   UNL     1      48.744   5.138  15.874  0.00  0.00    +0.000 NA
ATOM      3  H   UNL     1      49.759   5.037  15.795  0.00  0.00    +0.000 HD
BRANCH   2   4
ATOM      4  C   UNL     1      48.337   6.239  14.995  0.00  0.00    +0.000 C 
BRANCH   4   5
ATOM      5  C   UNL     1      47.311   5.781  13.986  0.00  0.00    +0.000 A 
ATOM      6  C   UNL     1      46.883   4.448  13.976  0.00  0.00    +0.000 A 
ATOM      7  C   UNL     1      45.907   4.024  13.076  0.00  0.00    +0.000 A 
ATOM      8  C   UNL     1      45.343   4.924  12.162  0.00  0.00    +0.000 A 
ATOM      9  C   UNL     1      45.766   6.259  12.170  0.00  0.00    +0.000 A 
ATOM     10  C   UNL     1      46.746   6.684  13.073  0.00  0.00    +0.000 A 
BRANCH   8  11
ATOM     11  C   UNL     1      44.283   4.456  11.197  0.00  0.00    +0.000 C 
BRANCH  11  12
ATOM     12  N   UNL     1      44.521   5.030   9.891  0.00  0.00    +0.000 N 
ATOM     13  C   UNL     1      45.216   4.175   9.044  0.00  0.00    +0.000 A 
ATOM     14  N   UNL     1      45.027   2.850   9.140  0.00  0.00    +0.000 NA
ATOM     15  C   UNL     1      45.727   2.065   8.303  0.00  0.00    +0.000 A 
ATOM     16  C   UNL     1      46.610   2.555   7.376  0.00  0.00    +0.000 A 
ATOM     17  C   UNL     1      46.734   3.922   7.355  0.00  0.00    +0.000 A 
ATOM     18  N   UNL     1      46.059   4.747   8.178  0.00  0.00    +0.000 NA
ATOM     19  H   UNL     1      45.018   5.917   9.888  0.00  0.00    +0.000 HD
ENDBRANCH  11  12
ENDBRANCH   8  11
ENDBRANCH   4   5
ENDBRANCH   2   4
ENDBRANCH   1   2
BRANCH   1  20
ATOM     20  C   UNL     1      49.512   4.878  18.231  0.00  0.00    +0.000 C 
ATOM     21  O   UNL     1      49.604   5.309  19.384  0.00  0.00    +0.000 OA
BRANCH  20  22
ATOM     22  C   UNL     1      50.385   3.786  17.787  0.00  0.00    +0.000 A 
ATOM     23  C   UNL     1      49.976   2.494  17.504  0.00  0.00    +0.000 A 
ATOM     24  S   UNL     1      51.293   1.399  17.397  0.00  0.00    +0.000 S 
ATOM     25  C   UNL     1      52.427   2.652  17.619  0.00  0.00    +0.000 A 
ATOM     26  N   UNL     1      53.759   2.408  17.717  0.00  0.00    +0.000 NA
ATOM     27  C   UNL     1      54.482   3.476  17.821  0.00  0.00    +0.000 A 
ATOM     28  N   UNL     1      54.000   4.763  17.795  0.00  0.00    +0.000 N 
ATOM     29  C   UNL     1      52.665   5.057  17.630  0.00  0.00    +0.000 A 
ATOM     30  O   UNL     1      52.282   6.191  17.381  0.00  0.00    +0.000 OA
ATOM     31  C   UNL     1      51.810   3.885  17.659  0.00  0.00    +0.000 A 
ATOM     32  H   UNL     1      54.629   5.549  17.754  0.00  0.00    +0.000 HD
ENDBRANCH  20  22
ENDBRANCH   1  20
BRANCH   1  33
ATOM     33  C   UNL     1      47.111   4.707  17.714  0.00  0.00    +0.000 C 
BRANCH  33  34
ATOM     34  N   UNL     1      46.402   5.426  18.777  0.00  0.00    +0.000 NA
ATOM     35  H   UNL     1      46.792   5.162  19.681  0.00  0.00    +0.000 HD
ATOM     36  H   UNL     1      45.431   5.101  18.773  0.00  0.00    +0.000 HD
ENDBRANCH  33  34
ENDBRANCH   1  33
TORSDOF 9
ENDMDL
MODEL 8
REMARK VINA RESULT:    -7.283      1.570      2.064
REMARK INTER + INTRA:         -12.045
REMARK INTER:                 -10.768
REMARK INTRA:                  -1.277
REMARK UNBOUND:                -1.143
REMARK  Name = 
REMARK  9 active torsions:
REMARK  status: ('A' for Active; 'I' for Inactive)
REMARK    1  A    between atoms: N_1  and  C_2
REMARK    2  A    between atoms: C_2  and  C_3
REMARK    3  A    between atoms: C_3  and  N_4
REMARK    4  A    between atoms: C_3  and  C_20
REMARK    5  A    between atoms: N_4  and  C_5
REMARK    6  A    between atoms: C_5  and  C_6
REMARK    7  A    between atoms: C_9  and  C_10
REMARK    8  A    between atoms: C_10  and  N_11
REMARK    9  A    between atoms: C_20  and  C_22
REMARK                            x       y       z     vdW  Elec       q    Type
REMARK                         _______ _______ _______ _____ _____    ______ ____
ROOT
ATOM      1  C   UNL     1      48.001   6.048  16.507  0.00  0.00    +0.000 C 
ENDROOT
BRANCH   1   2
ATOM      2  N   UNL     1      48.652   5.735  15.200  0.00  0.00    +0.000 NA
ATOM      3  H   UNL     1      49.664   5.839  15.317  0.00  0.00    +0.000 HD
BRANCH   2   4
ATOM      4  C   UNL     1      48.229   6.662  14.146  0.00  0.00    +0.000 C 
BRANCH   4   5
ATOM      5  C   UNL     1      47.201   6.028  13.241  0.00  0.00    +0.000 A 
ATOM      6  C   UNL     1      46.694   4.756  13.537  0.00  0.00    +0.000 A 
ATOM      7  C   UNL     1      45.715   4.178  12.731  0.00  0.00    +0.000 A 
ATOM      8  C   UNL     1      45.227   4.856  11.606  0.00  0.00    +0.000 A 
ATOM      9  C   UNL     1      45.729   6.129  11.307  0.00  0.00    +0.000 A 
ATOM     10  C   UNL     1      46.711   6.709  12.117  0.00  0.00    +0.000 A 
BRANCH   8  11
ATOM     11  C   UNL     1      44.163   4.224  10.745  0.00  0.00    +0.000 C 
BRANCH  11  12
ATOM     12  N   UNL     1      44.359   4.608   9.365  0.00  0.00    +0.000 N 
ATOM     13  C   UNL     1      45.182   3.729   8.671  0.00  0.00    +0.000 A 
ATOM     14  N   UNL     1      45.165   2.423   8.980  0.00  0.00    +0.000 NA
ATOM     15  C   UNL     1      45.984   1.615   8.285  0.00  0.00    +0.000 A 
ATOM     16  C   UNL     1      46.820   2.062   7.294  0.00  0.00    +0.000 A 
ATOM     17  C   UNL     1      46.764   3.413   7.052  0.00  0.00    +0.000 A 
ATOM     18  N   UNL     1      45.965   4.261   7.727  0.00  0.00    +0.000 NA
ATOM     19  H   UNL     1      44.736   5.541   9.220  0.00  0.00    +0.000 HD
ENDBRANCH  11  12
ENDBRANCH   8  11
ENDBRANCH   4   5
ENDBRANCH   2   4
ENDBRANCH   1   2
BRANCH   1  20
ATOM     20  C   UNL     1      48.969   6.792  17.435  0.00  0.00    +0.000 C 
ATOM     21  O   UNL     1      48.522   7.492  18.348  0.00  0.00    +0.000 OA
BRANCH  20  22
ATOM     22  C   UNL     1      50.417   6.603  17.302  0.00  0.00    +0.000 A 
ATOM     23  C   UNL     1      51.264   7.386  16.536  0.00  0.00    +0.000 A 
ATOM     24  S   UNL     1      52.799   6.654  16.302  0.00  0.00    +0.000 S 
ATOM     25  C   UNL     1      52.389   5.340  17.307  0.00  0.00    +0.000 A 
ATOM     26  N   UNL     1      53.224   4.284  17.487  0.00  0.00    +0.000 NA
ATOM     27  C   UNL     1      52.785   3.406  18.328  0.00  0.00    +0.000 A 
ATOM     28  N   UNL     1      51.610   3.504  19.034  0.00  0.00    +0.000 N 
ATOM     29  C   UNL     1      50.767   4.588  18.932  0.00  0.00    +0.000 A 
ATOM     30  O   UNL     1      49.854   4.770  19.725  0.00  0.00    +0.000 OA
ATOM     31  C   UNL     1      51.154   5.522  17.891  0.00  0.00    +0.000 A 
ATOM     32  H   UNL     1      51.390   2.847  19.764  0.00  0.00    +0.000 HD
ENDBRANCH  20  22
ENDBRANCH   1  20
BRANCH   1  33
ATOM     33  C   UNL     1      47.612   4.747  17.245  0.00  0.00    +0.000 C 
BRANCH  33  34
ATOM     34  N   UNL     1      46.774   5.009  18.419  0.00  0.00    +0.000 NA
ATOM     35  H   UNL     1      47.042   4.377  19.172  0.00  0.00    +0.000 HD
ATOM     36  H   UNL     1      45.811   4.772  18.166  0.00  0.00    +0.000 HD
ENDBRANCH  33  34
ENDBRANCH   1  33
TORSDOF 9
ENDMDL
MODEL 9
REMARK VINA RESULT:    -7.145      2.150      3.042
REMARK INTER + INTRA:         -11.838
REMARK INTER:                 -10.663
REMARK INTRA:                  -1.175
REMARK UNBOUND:                -1.143
REMARK  Name = 
REMARK  9 active torsions:
REMARK  status: ('A' for Active; 'I' for Inactive)
REMARK    1  A    between atoms: N_1  and  C_2
REMARK    2  A    between atoms: C_2  and  C_3
REMARK    3  A    between atoms: C_3  and  N_4
REMARK    4  A    between atoms: C_3  and  C_20
REMARK    5  A    between atoms: N_4  and  C_5
REMARK    6  A    between atoms: C_5  and  C_6
REMARK    7  A    between atoms: C_9  and  C_10
REMARK    8  A    between atoms: C_10  and  N_11
REMARK    9  A    between atoms: C_20  and  C_22
REMARK                            x       y       z     vdW  Elec       q    Type
REMARK                         _______ _______ _______ _____ _____    ______ ____
ROOT
ATOM      1  C   UNL     1      49.424   7.075  14.347  0.00  0.00    +0.000 C 
ENDROOT
BRANCH   1   2
ATOM      2  N   UNL     1      47.951   6.833  14.409  0.00  0.00    +0.000 NA
ATOM      3  H   UNL     1      47.606   7.208  15.296  0.00  0.00    +0.000 HD
BRANCH   2   4
ATOM      4  C   UNL     1      47.633   5.402  14.377  0.00  0.00    +0.000 C 
BRANCH   4   5
ATOM      5  C   UNL     1      46.630   5.089  13.292  0.00  0.00    +0.000 A 
ATOM      6  C   UNL     1      46.072   3.807  13.201  0.00  0.00    +0.000 A 
ATOM      7  C   UNL     1      45.116   3.519  12.229  0.00  0.00    +0.000 A 
ATOM      8  C   UNL     1      44.703   4.505  11.322  0.00  0.00    +0.000 A 
ATOM      9  C   UNL     1      45.256   5.788  11.411  0.00  0.00    +0.000 A 
ATOM     10  C   UNL     1      46.216   6.077  12.387  0.00  0.00    +0.000 A 
BRANCH   8  11
ATOM     11  C   UNL     1      43.662   4.183  10.279  0.00  0.00    +0.000 C 
BRANCH  11  12
ATOM     12  N   UNL     1      44.144   4.573   8.973  0.00  0.00    +0.000 N 
ATOM     13  C   UNL     1      45.079   3.686   8.455  0.00  0.00    +0.000 A 
ATOM     14  N   UNL     1      44.981   2.379   8.741  0.00  0.00    +0.000 NA
ATOM     15  C   UNL     1      45.914   1.562   8.222  0.00  0.00    +0.000 A 
ATOM     16  C   UNL     1      46.942   2.003   7.429  0.00  0.00    +0.000 A 
ATOM     17  C   UNL     1      46.956   3.355   7.193  0.00  0.00    +0.000 A 
ATOM     18  N   UNL     1      46.047   4.212   7.697  0.00  0.00    +0.000 NA
ATOM     19  H   UNL     1      44.555   5.502   8.917  0.00  0.00    +0.000 HD
ENDBRANCH  11  12
ENDBRANCH   8  11
ENDBRANCH   4   5
ENDBRANCH   2   4
ENDBRANCH   1   2
BRANCH   1  20
ATOM     20  C   UNL     1      49.966   7.495  15.718  0.00  0.00    +0.000 C 
ATOM     21  O   UNL     1      51.134   7.881  15.820  0.00  0.00    +0.000 OA
BRANCH  20  22
ATOM     22  C   UNL     1      49.081   7.530  16.886  0.00  0.00    +0.000 A 
ATOM     23  C   UNL     1      48.269   8.591  17.249  0.00  0.00    +0.000 A 
ATOM     24  S   UNL     1      47.679   8.446  18.854  0.00  0.00    +0.000 S 
ATOM     25  C   UNL     1      48.410   6.917  19.045  0.00  0.00    +0.000 A 
ATOM     26  N   UNL     1      48.375   6.245  20.224  0.00  0.00    +0.000 NA
ATOM     27  C   UNL     1      48.923   5.075  20.177  0.00  0.00    +0.000 A 
ATOM     28  N   UNL     1      49.466   4.500  19.054  0.00  0.00    +0.000 N 
ATOM     29  C   UNL     1      49.463   5.118  17.823  0.00  0.00    +0.000 A 
ATOM     30  O   UNL     1      49.737   4.511  16.797  0.00  0.00    +0.000 OA
ATOM     31  C   UNL     1      48.989   6.489  17.870  0.00  0.00    +0.000 A 
ATOM     32  H   UNL     1      49.763   3.538  19.058  0.00  0.00    +0.000 HD
ENDBRANCH  20  22
ENDBRANCH   1  20
BRANCH   1  33
ATOM     33  C   UNL     1      49.742   8.238  13.382  0.00  0.00    +0.000 C 
BRANCH  33  34
ATOM     34  N   UNL     1      51.027   8.052  12.700  0.00  0.00    +0.000 NA
ATOM     35  H   UNL     1      51.697   8.733  13.051  0.00  0.00    +0.000 HD
ATOM     36  H   UNL     1      50.882   8.268  11.709  0.00  0.00    +0.000 HD
ENDBRANCH  33  34
ENDBRANCH   1  33
TORSDOF 9
ENDMDL
