MODEL 1
REMARK VINA RESULT:    -7.106      0.000      0.000
REMARK INTER + INTRA:         -11.294
REMARK INTER:                 -10.221
REMARK INTRA:                  -1.073
REMARK UNBOUND:                -1.073
REMARK  Name = 
REMARK  9 active torsions:
REMARK  status: ('A' for Active; 'I' for Inactive)
REMARK    1  A    between atoms: C_1  and  O_2
REMARK    2  A    between atoms: O_2  and  C_3
REMARK    3  A    between atoms: C_5  and  O_6
REMARK    4  A    between atoms: O_6  and  C_7
REMARK    5  A    between atoms: C_7  and  C_8
REMARK    6  A    between atoms: C_8  and  C_9
REMARK    7  A    between atoms: C_13  and  C_14
REMARK    8  A    between atoms: C_14  and  N_15
REMARK    9  A    between atoms: C_19  and  C_20
REMARK                            x       y       z     vdW  Elec       q    Type
REMARK                         _______ _______ _______ _____ _____    ______ ____
ROOT
ATOM      1  C   UNL     1      45.894   6.644  12.548  0.00  0.00    +0.000 A 
ATOM      2  C   UNL     1      44.837   5.793  12.193  0.00  0.00    +0.000 A 
ATOM      3  C   UNL     1      44.782   4.527  12.756  0.00  0.00    +0.000 A 
ATOM      4  N   UNL     1      45.695   4.065  13.629  0.00  0.00    +0.000 NA
ATOM      5  C   UNL     1      46.715   4.895  13.950  0.00  0.00    +0.000 A 
ATOM      6  C   UNL     1      46.872   6.179  13.441  0.00  0.00    +0.000 A 
ENDROOT
BRANCH   6   7
ATOM      7  C   UNL     1      48.062   6.935  13.914  0.00  0.00    +0.000 C 
ATOM      8  N   UNL     1      47.868   8.134  14.532  0.00  0.00    +0.000 N 
ATOM      9  O   UNL     1      49.200   6.502  13.757  0.00  0.00    +0.000 OA
ATOM     10  H   UNL     1      46.944   8.539  14.628  0.00  0.00    +0.000 HD
ATOM     11  H   UNL     1      48.677   8.666  14.823  0.00  0.00    +0.000 HD
ENDBRANCH   6   7
BRANCH   1  13
ATOM     12  C   UNL     1      45.133   8.898  12.470  0.00  0.00    +0.000 C 
ATOM     13  O   UNL     1      46.046   7.902  12.018  0.00  0.00    +0.000 OA
ENDBRANCH   1  13
BRANCH   3  14
ATOM     14  O   UNL     1      43.729   3.712  12.377  0.00  0.00    +0.000 OA
BRANCH  14  15
ATOM     15  C   UNL     1      43.560   3.683  10.951  0.00  0.00    +0.000 C 
BRANCH  15  16
ATOM     16  C   UNL     1      44.272   2.461  10.371  0.00  0.00    +0.000 C 
BRANCH  16  17
ATOM     17  C   UNL     1      45.134   2.843   9.190  0.00  0.00    +0.000 A 
ATOM     18  C   UNL     1      45.350   4.188   8.873  0.00  0.00    +0.000 A 
ATOM     19  C   UNL     1      46.191   4.539   7.817  0.00  0.00    +0.000 A 
ATOM     20  C   UNL     1      46.846   3.549   7.082  0.00  0.00    +0.000 A 
ATOM     21  C   UNL     1      46.667   2.197   7.396  0.00  0.00    +0.000 A 
ATOM     22  C   UNL     1      45.793   1.855   8.442  0.00  0.00    +0.000 A 
BRANCH  21  23
ATOM     23  C   UNL     1      47.402   1.122   6.635  0.00  0.00    +0.000 C 
BRANCH  23  24
ATOM     24  N   UNL     1      48.474   1.684   5.819  0.00  0.00    +0.000 NA
ATOM     25  H   UNL     1      48.445   1.247   4.897  0.00  0.00    +0.000 HD
ATOM     26  H   UNL     1      49.373   1.441   6.228  0.00  0.00    +0.000 HD
ENDBRANCH  23  24
ENDBRANCH  21  23
ENDBRANCH  16  17
ENDBRANCH  15  16
ENDBRANCH  14  15
ENDBRANCH   3  14
TORSDOF 8
ENDMDL
MODEL 2
REMARK VINA RESULT:    -6.945      1.057      1.935
REMARK INTER + INTRA:         -11.063
REMARK INTER:                 -10.101
REMARK INTRA:                  -0.962
REMARK UNBOUND:                -1.073
REMARK  Name = 
REMARK  9 active torsions:
REMARK  status: ('A' for Active; 'I' for Inactive)
REMARK    1  A    between atoms: C_1  and  O_2
REMARK    2  A    between atoms: O_2  and  C_3
REMARK    3  A    between atoms: C_5  and  O_6
REMARK    4  A    between atoms: O_6  and  C_7
REMARK    5  A    between atoms: C_7  and  C_8
REMARK    6  A    between atoms: C_8  and  C_9
REMARK    7  A    between atoms: C_13  and  C_14
REMARK    8  A    between atoms: C_14  and  N_15
REMARK    9  A    between atoms: C_19  and  C_20
REMARK                            x       y       z     vdW  Elec       q    Type
REMARK                         _______ _______ _______ _____ _____    ______ ____
ROOT
ATOM      1  C   UNL     1      46.919   5.696  13.527  0.00  0.00    +0.000 A 
ATOM      2  C   UNL     1      46.120   4.572  13.270  0.00  0.00    +0.000 A 
ATOM      3  C   UNL     1      44.911   4.750  12.615  0.00  0.00    +0.000 A 
ATOM      4  N   UNL     1      44.457   5.950  12.212  0.00  0.00    +0.000 NA
ATOM      5  C   UNL     1      45.235   7.025  12.480  0.00  0.00    +0.000 A 
ATOM      6  C   UNL     1      46.460   6.963  13.135  0.00  0.00    +0.000 A 
ENDROOT
BRANCH   6   7
ATOM      7  C   UNL     1      47.165   8.257  13.338  0.00  0.00    +0.000 C 
ATOM      8  N   UNL     1      47.171   8.805  14.586  0.00  0.00    +0.000 N 
ATOM      9  O   UNL     1      47.732   8.829  12.412  0.00  0.00    +0.000 OA
ATOM     10  H   UNL     1      46.668   8.379  15.356  0.00  0.00    +0.000 HD
ATOM     11  H   UNL     1      47.621   9.701  14.719  0.00  0.00    +0.000 HD
ENDBRANCH   6   7
BRANCH   1  13
ATOM     12  C   UNL     1      48.046   5.406  15.604  0.00  0.00    +0.000 C 
ATOM     13  O   UNL     1      48.116   5.619  14.196  0.00  0.00    +0.000 OA
ENDBRANCH   1  13
BRANCH   3  14
ATOM     14  O   UNL     1      44.144   3.620  12.385  0.00  0.00    +0.000 OA
BRANCH  14  15
ATOM     15  C   UNL     1      43.606   3.601  11.053  0.00  0.00    +0.000 C 
BRANCH  15  16
ATOM     16  C   UNL     1      44.134   2.380  10.300  0.00  0.00    +0.000 C 
BRANCH  16  17
ATOM     17  C   UNL     1      45.058   2.790   9.178  0.00  0.00    +0.000 A 
ATOM     18  C   UNL     1      45.273   4.142   8.892  0.00  0.00    +0.000 A 
ATOM     19  C   UNL     1      46.170   4.519   7.892  0.00  0.00    +0.000 A 
ATOM     20  C   UNL     1      46.881   3.549   7.183  0.00  0.00    +0.000 A 
ATOM     21  C   UNL     1      46.702   2.190   7.469  0.00  0.00    +0.000 A 
ATOM     22  C   UNL     1      45.773   1.821   8.456  0.00  0.00    +0.000 A 
BRANCH  21  23
ATOM     23  C   UNL     1      47.496   1.136   6.737  0.00  0.00    +0.000 C 
BRANCH  23  24
ATOM     24  N   UNL     1      48.380   1.730   5.739  0.00  0.00    +0.000 NA
ATOM     25  H   UNL     1      48.950   0.990   5.327  0.00  0.00    +0.000 HD
ATOM     26  H   UNL     1      49.023   2.371   6.197  0.00  0.00    +0.000 HD
ENDBRANCH  23  24
ENDBRANCH  21  23
ENDBRANCH  16  17
ENDBRANCH  15  16
ENDBRANCH  14  15
ENDBRANCH   3  14
TORSDOF 8
ENDMDL
MODEL 3
REMARK VINA RESULT:    -6.881      1.777      2.559
REMARK INTER + INTRA:         -10.972
REMARK INTER:                 -10.097
REMARK INTRA:                  -0.874
REMARK UNBOUND:                -1.073
REMARK  Name = 
REMARK  9 active torsions:
REMARK  status: ('A' for Active; 'I' for Inactive)
REMARK    1  A    between atoms: C_1  and  O_2
REMARK    2  A    between atoms: O_2  and  C_3
REMARK    3  A    between atoms: C_5  and  O_6
REMARK    4  A    between atoms: O_6  and  C_7
REMARK    5  A    between atoms: C_7  and  C_8
REMARK    6  A    between atoms: C_8  and  C_9
REMARK    7  A    between atoms: C_13  and  C_14
REMARK    8  A    between atoms: C_14  and  N_15
REMARK    9  A    between atoms: C_19  and  C_20
REMARK                            x       y       z     vdW  Elec       q    Type
REMARK                         _______ _______ _______ _____ _____    ______ ____
ROOT
ATOM      1  C   UNL     1      46.313   5.763  12.593  0.00  0.00    +0.000 A 
ATOM      2  C   UNL     1      45.509   5.902  11.452  0.00  0.00    +0.000 A 
ATOM      3  C   UNL     1      44.718   4.833  11.060  0.00  0.00    +0.000 A 
ATOM      4  N   UNL     1      44.682   3.659  11.716  0.00  0.00    +0.000 NA
ATOM      5  C   UNL     1      45.476   3.539  12.807  0.00  0.00    +0.000 A 
ATOM      6  C   UNL     1      46.310   4.542  13.285  0.00  0.00    +0.000 A 
ENDROOT
BRANCH   6   7
ATOM      7  C   UNL     1      47.107   4.216  14.497  0.00  0.00    +0.000 C 
ATOM      8  N   UNL     1      47.292   5.187  15.435  0.00  0.00    +0.000 N 
ATOM      9  O   UNL     1      47.594   3.101  14.662  0.00  0.00    +0.000 OA
ATOM     10  H   UNL     1      46.945   6.129  15.299  0.00  0.00    +0.000 HD
ATOM     11  H   UNL     1      47.862   4.977  16.243  0.00  0.00    +0.000 HD
ENDBRANCH   6   7
BRANCH   1  13
ATOM     12  C   UNL     1      48.116   7.239  12.107  0.00  0.00    +0.000 C 
ATOM     13  O   UNL     1      47.150   6.757  13.037  0.00  0.00    +0.000 OA
ENDBRANCH   1  13
BRANCH   3  14
ATOM     14  O   UNL     1      43.942   5.002   9.926  0.00  0.00    +0.000 OA
BRANCH  14  15
ATOM     15  C   UNL     1      44.200   3.987   8.943  0.00  0.00    +0.000 C 
BRANCH  15  16
ATOM     16  C   UNL     1      45.512   4.290   8.219  0.00  0.00    +0.000 C 
BRANCH  16  17
ATOM     17  C   UNL     1      46.121   3.033   7.645  0.00  0.00    +0.000 A 
ATOM     18  C   UNL     1      46.115   1.841   8.379  0.00  0.00    +0.000 A 
ATOM     19  C   UNL     1      46.627   0.668   7.824  0.00  0.00    +0.000 A 
ATOM     20  C   UNL     1      47.128   0.666   6.521  0.00  0.00    +0.000 A 
ATOM     21  C   UNL     1      47.121   1.840   5.758  0.00  0.00    +0.000 A 
ATOM     22  C   UNL     1      46.632   3.023   6.338  0.00  0.00    +0.000 A 
BRANCH  21  23
ATOM     23  C   UNL     1      47.622   1.840   4.335  0.00  0.00    +0.000 C 
BRANCH  23  24
ATOM     24  N   UNL     1      47.377   0.557   3.683  0.00  0.00    +0.000 NA
ATOM     25  H   UNL     1      48.273   0.162   3.393  0.00  0.00    +0.000 HD
ATOM     26  H   UNL     1      46.837   0.706   2.835  0.00  0.00    +0.000 HD
ENDBRANCH  23  24
ENDBRANCH  21  23
ENDBRANCH  16  17
ENDBRANCH  15  16
ENDBRANCH  14  15
ENDBRANCH   3  14
TORSDOF 8
ENDMDL
MODEL 4
REMARK VINA RESULT:    -6.628      4.170      7.524
REMARK INTER + INTRA:         -10.607
REMARK INTER:                  -9.872
REMARK INTRA:                  -0.735
REMARK UNBOUND:                -1.073
REMARK  Name = 
REMARK  9 active torsions:
REMARK  status: ('A' for Active; 'I' for Inactive)
REMARK    1  A    between atoms: C_1  and  O_2
REMARK    2  A    between atoms: O_2  and  C_3
REMARK    3  A    between atoms: C_5  and  O_6
REMARK    4  A    between atoms: O_6  and  C_7
REMARK    5  A    between atoms: C_7  and  C_8
REMARK    6  A    between atoms: C_8  and  C_9
REMARK    7  A    between atoms: C_13  and  C_14
REMARK    8  A    between atoms: C_14  and  N_15
REMARK    9  A    between atoms: C_19  and  C_20
REMARK                            x       y       z     vdW  Elec       q    Type
REMARK                         _______ _______ _______ _____ _____    ______ ____
ROOT
ATOM      1  C   UNL     1      45.658   5.743  12.349  0.00  0.00    +0.000 A 
ATOM      2  C   UNL     1      46.574   5.235  13.283  0.00  0.00    +0.000 A 
ATOM      3  C   UNL     1      46.573   3.873  13.543  0.00  0.00    +0.000 A 
ATOM      4  N   UNL     1      45.735   3.006  12.948  0.00  0.00    +0.000 NA
ATOM      5  C   UNL     1      44.849   3.516  12.061  0.00  0.00    +0.000 A 
ATOM      6  C   UNL     1      44.758   4.863  11.729  0.00  0.00    +0.000 A 
ENDROOT
BRANCH   6   7
ATOM      7  C   UNL     1      43.716   5.228  10.732  0.00  0.00    +0.000 C 
ATOM      8  N   UNL     1      42.884   6.269  11.013  0.00  0.00    +0.000 N 
ATOM      9  O   UNL     1      43.597   4.613   9.677  0.00  0.00    +0.000 OA
ATOM     10  H   UNL     1      42.927   6.760  11.899  0.00  0.00    +0.000 HD
ATOM     11  H   UNL     1      42.153   6.497  10.352  0.00  0.00    +0.000 HD
ENDBRANCH   6   7
BRANCH   1  13
ATOM     12  C   UNL     1      46.108   7.985  13.011  0.00  0.00    +0.000 C 
ATOM     13  O   UNL     1      45.566   7.080  12.051  0.00  0.00    +0.000 OA
ENDBRANCH   1  13
BRANCH   3  14
ATOM     14  O   UNL     1      47.485   3.407  14.475  0.00  0.00    +0.000 OA
BRANCH  14  15
ATOM     15  C   UNL     1      47.305   4.027  15.758  0.00  0.00    +0.000 C 
BRANCH  15  16
ATOM     16  C   UNL     1      47.822   3.099  16.858  0.00  0.00    +0.000 C 
BRANCH  16  17
ATOM     17  C   UNL     1      49.281   3.358  17.147  0.00  0.00    +0.000 A 
ATOM     18  C   UNL     1      49.743   4.661  17.365  0.00  0.00    +0.000 A 
ATOM     19  C   UNL     1      51.081   4.891  17.688  0.00  0.00    +0.000 A 
ATOM     20  C   UNL     1      51.966   3.821  17.822  0.00  0.00    +0.000 A 
ATOM     21  C   UNL     1      51.523   2.506  17.634  0.00  0.00    +0.000 A 
ATOM     22  C   UNL     1      50.181   2.288  17.278  0.00  0.00    +0.000 A 
BRANCH  21  23
ATOM     23  C   UNL     1      52.462   1.340  17.816  0.00  0.00    +0.000 C 
BRANCH  23  24
ATOM     24  N   UNL     1      51.738   0.122  18.167  0.00  0.00    +0.000 NA
ATOM     25  H   UNL     1      52.416  -0.625  18.327  0.00  0.00    +0.000 HD
ATOM     26  H   UNL     1      51.165  -0.170  17.379  0.00  0.00    +0.000 HD
ENDBRANCH  23  24
ENDBRANCH  21  23
ENDBRANCH  16  17
ENDBRANCH  15  16
ENDBRANCH  14  15
ENDBRANCH   3  14
TORSDOF 8
ENDMDL
MODEL 5
REMARK VINA RESULT:    -6.214      1.659      2.703
REMARK INTER + INTRA:         -10.011
REMARK INTER:                  -9.121
REMARK INTRA:                  -0.890
REMARK UNBOUND:                -1.073
REMARK  Name = 
REMARK  9 active torsions:
REMARK  status: ('A' for Active; 'I' for Inactive)
REMARK    1  A    between atoms: C_1  and  O_2
REMARK    2  A    between atoms: O_2  and  C_3
REMARK    3  A    between atoms: C_5  and  O_6
REMARK    4  A    between atoms: O_6  and  C_7
REMARK    5  A    between atoms: C_7  and  C_8
REMARK    6  A    between atoms: C_8  and  C_9
REMARK    7  A    between atoms: C_13  and  C_14
REMARK    8  A    between atoms: C_14  and  N_15
REMARK    9  A    between atoms: C_19  and  C_20
REMARK                            x       y       z     vdW  Elec       q    Type
REMARK                         _______ _______ _______ _____ _____    ______ ____
ROOT
ATOM      1  C   UNL     1      45.977   7.596  12.052  0.00  0.00    +0.000 A 
ATOM      2  C   UNL     1      45.796   6.207  12.133  0.00  0.00    +0.000 A 
ATOM      3  C   UNL     1      44.565   5.674  11.783  0.00  0.00    +0.000 A 
ATOM      4  N   UNL     1      43.525   6.420  11.368  0.00  0.00    +0.000 NA
ATOM      5  C   UNL     1      43.714   7.760  11.309  0.00  0.00    +0.000 A 
ATOM      6  C   UNL     1      44.902   8.400  11.642  0.00  0.00    +0.000 A 
ENDROOT
BRANCH   6   7
ATOM      7  C   UNL     1      44.911   9.882  11.512  0.00  0.00    +0.000 C 
ATOM      8  N   UNL     1      45.613  10.610  12.425  0.00  0.00    +0.000 N 
ATOM      9  O   UNL     1      44.303  10.449  10.610  0.00  0.00    +0.000 OA
ATOM     10  H   UNL     1      46.081  10.170  13.210  0.00  0.00    +0.000 HD
ATOM     11  H   UNL     1      45.593  11.619  12.359  0.00  0.00    +0.000 HD
ENDBRANCH   6   7
BRANCH   1  13
ATOM     12  C   UNL     1      48.345   7.695  11.827  0.00  0.00    +0.000 C 
ATOM     13  O   UNL     1      47.150   8.214  12.407  0.00  0.00    +0.000 OA
ENDBRANCH   1  13
BRANCH   3  14
ATOM     14  O   UNL     1      44.419   4.300  11.883  0.00  0.00    +0.000 OA
BRANCH  14  15
ATOM     15  C   UNL     1      43.620   3.767  10.815  0.00  0.00    +0.000 C 
BRANCH  15  16
ATOM     16  C   UNL     1      44.275   2.502  10.261  0.00  0.00    +0.000 C 
BRANCH  16  17
ATOM     17  C   UNL     1      45.161   2.819   9.079  0.00  0.00    +0.000 A 
ATOM     18  C   UNL     1      45.354   4.144   8.671  0.00  0.00    +0.000 A 
ATOM     19  C   UNL     1      46.217   4.438   7.615  0.00  0.00    +0.000 A 
ATOM     20  C   UNL     1      46.916   3.415   6.972  0.00  0.00    +0.000 A 
ATOM     21  C   UNL     1      46.759   2.085   7.379  0.00  0.00    +0.000 A 
ATOM     22  C   UNL     1      45.863   1.797   8.423  0.00  0.00    +0.000 A 
BRANCH  21  23
ATOM     23  C   UNL     1      47.540   0.977   6.717  0.00  0.00    +0.000 C 
BRANCH  23  24
ATOM     24  N   UNL     1      48.328   1.477   5.595  0.00  0.00    +0.000 NA
ATOM     25  H   UNL     1      47.723   2.042   4.998  0.00  0.00    +0.000 HD
ATOM     26  H   UNL     1      48.644   0.693   5.029  0.00  0.00    +0.000 HD
ENDBRANCH  23  24
ENDBRANCH  21  23
ENDBRANCH  16  17
ENDBRANCH  15  16
ENDBRANCH  14  15
ENDBRANCH   3  14
TORSDOF 8
ENDMDL
MODEL 6
REMARK VINA RESULT:    -6.164      3.906      7.769
REMARK INTER + INTRA:          -9.940
REMARK INTER:                  -9.226
REMARK INTRA:                  -0.714
REMARK UNBOUND:                -1.073
REMARK  Name = 
REMARK  9 active torsions:
REMARK  status: ('A' for Active; 'I' for Inactive)
REMARK    1  A    between atoms: C_1  and  O_2
REMARK    2  A    between atoms: O_2  and  C_3
REMARK    3  A    between atoms: C_5  and  O_6
REMARK    4  A    between atoms: O_6  and  C_7
REMARK    5  A    between atoms: C_7  and  C_8
REMARK    6  A    between atoms: C_8  and  C_9
REMARK    7  A    between atoms: C_13  and  C_14
REMARK    8  A    between atoms: C_14  and  N_15
REMARK    9  A    between atoms: C_19  and  C_20
REMARK                            x       y       z     vdW  Elec       q    Type
REMARK                         _______ _______ _______ _____ _____    ______ ____
ROOT
ATOM      1  C   UNL     1      45.348   5.788  12.786  0.00  0.00    +0.000 A 
ATOM      2  C   UNL     1      46.296   5.232  13.658  0.00  0.00    +0.000 A 
ATOM      3  C   UNL     1      46.495   3.859  13.639  0.00  0.00    +0.000 A 
ATOM      4  N   UNL     1      45.823   3.025  12.825  0.00  0.00    +0.000 NA
ATOM      5  C   UNL     1      44.902   3.579  12.001  0.00  0.00    +0.000 A 
ATOM      6  C   UNL     1      44.618   4.938  11.942  0.00  0.00    +0.000 A 
ENDROOT
BRANCH   6   7
ATOM      7  C   UNL     1      43.570   5.351  10.971  0.00  0.00    +0.000 C 
ATOM      8  N   UNL     1      42.779   6.416  11.282  0.00  0.00    +0.000 N 
ATOM      9  O   UNL     1      43.409   4.754   9.911  0.00  0.00    +0.000 OA
ATOM     10  H   UNL     1      42.856   6.894  12.172  0.00  0.00    +0.000 HD
ATOM     11  H   UNL     1      42.044   6.677  10.638  0.00  0.00    +0.000 HD
ENDBRANCH   6   7
BRANCH   1  13
ATOM     12  C   UNL     1      46.164   8.020  12.931  0.00  0.00    +0.000 C 
ATOM     13  O   UNL     1      45.063   7.131  12.758  0.00  0.00    +0.000 OA
ENDBRANCH   1  13
BRANCH   3  14
ATOM     14  O   UNL     1      47.433   3.344  14.517  0.00  0.00    +0.000 OA
BRANCH  14  15
ATOM     15  C   UNL     1      47.468   4.074  15.754  0.00  0.00    +0.000 C 
BRANCH  15  16
ATOM     16  C   UNL     1      47.695   3.109  16.918  0.00  0.00    +0.000 C 
BRANCH  16  17
ATOM     17  C   UNL     1      49.156   3.045  17.294  0.00  0.00    +0.000 A 
ATOM     18  C   UNL     1      49.916   1.906  17.002  0.00  0.00    +0.000 A 
ATOM     19  C   UNL     1      51.279   1.871  17.300  0.00  0.00    +0.000 A 
ATOM     20  C   UNL     1      51.903   2.983  17.870  0.00  0.00    +0.000 A 
ATOM     21  C   UNL     1      51.169   4.142  18.147  0.00  0.00    +0.000 A 
ATOM     22  C   UNL     1      49.791   4.155  17.872  0.00  0.00    +0.000 A 
BRANCH  21  23
ATOM     23  C   UNL     1      51.842   5.363  18.725  0.00  0.00    +0.000 C 
BRANCH  23  24
ATOM     24  N   UNL     1      51.171   6.590  18.308  0.00  0.00    +0.000 NA
ATOM     25  H   UNL     1      50.452   6.351  17.624  0.00  0.00    +0.000 HD
ATOM     26  H   UNL     1      51.836   7.195  17.834  0.00  0.00    +0.000 HD
ENDBRANCH  23  24
ENDBRANCH  21  23
ENDBRANCH  16  17
ENDBRANCH  15  16
ENDBRANCH  14  15
ENDBRANCH   3  14
TORSDOF 8
ENDMDL
MODEL 7
REMARK VINA RESULT:    -6.072      4.022      7.546
REMARK INTER + INTRA:          -9.807
REMARK INTER:                  -8.801
REMARK INTRA:                  -1.006
REMARK UNBOUND:                -1.073
REMARK  Name = 
REMARK  9 active torsions:
REMARK  status: ('A' for Active; 'I' for Inactive)
REMARK    1  A    between atoms: C_1  and  O_2
REMARK    2  A    between atoms: O_2  and  C_3
REMARK    3  A    between atoms: C_5  and  O_6
REMARK    4  A    between atoms: O_6  and  C_7
REMARK    5  A    between atoms: C_7  and  C_8
REMARK    6  A    between atoms: C_8  and  C_9
REMARK    7  A    between atoms: C_13  and  C_14
REMARK    8  A    between atoms: C_14  and  N_15
REMARK    9  A    between atoms: C_19  and  C_20
REMARK                            x       y       z     vdW  Elec       q    Type
REMARK                         _______ _______ _______ _____ _____    ______ ____
ROOT
ATOM      1  C   UNL     1      45.604   6.299  12.361  0.00  0.00    +0.000 A 
ATOM      2  C   UNL     1      46.938   6.713  12.495  0.00  0.00    +0.000 A 
ATOM      3  C   UNL     1      47.784   5.981  13.315  0.00  0.00    +0.000 A 
ATOM      4  N   UNL     1      47.393   4.889  13.996  0.00  0.00    +0.000 NA
ATOM      5  C   UNL     1      46.099   4.513  13.866  0.00  0.00    +0.000 A 
ATOM      6  C   UNL     1      45.165   5.175  13.078  0.00  0.00    +0.000 A 
ENDROOT
BRANCH   6   7
ATOM      7  C   UNL     1      43.790   4.607  13.067  0.00  0.00    +0.000 C 
ATOM      8  N   UNL     1      42.732   5.466  13.079  0.00  0.00    +0.000 N 
ATOM      9  O   UNL     1      43.598   3.395  13.049  0.00  0.00    +0.000 OA
ATOM     10  H   UNL     1      42.862   6.469  13.146  0.00  0.00    +0.000 HD
ATOM     11  H   UNL     1      41.797   5.081  13.106  0.00  0.00    +0.000 HD
ENDBRANCH   6   7
BRANCH   1  13
ATOM     12  C   UNL     1      44.822   8.397  11.554  0.00  0.00    +0.000 C 
ATOM     13  O   UNL     1      44.689   6.979  11.596  0.00  0.00    +0.000 OA
ENDBRANCH   1  13
BRANCH   3  14
ATOM     14  O   UNL     1      49.091   6.422  13.428  0.00  0.00    +0.000 OA
BRANCH  14  15
ATOM     15  C   UNL     1      49.213   7.502  14.368  0.00  0.00    +0.000 C 
BRANCH  15  16
ATOM     16  C   UNL     1      50.132   7.087  15.517  0.00  0.00    +0.000 C 
BRANCH  16  17
ATOM     17  C   UNL     1      49.336   6.567  16.691  0.00  0.00    +0.000 A 
ATOM     18  C   UNL     1      48.754   7.453  17.604  0.00  0.00    +0.000 A 
ATOM     19  C   UNL     1      47.973   6.972  18.655  0.00  0.00    +0.000 A 
ATOM     20  C   UNL     1      47.744   5.602  18.791  0.00  0.00    +0.000 A 
ATOM     21  C   UNL     1      48.294   4.697  17.875  0.00  0.00    +0.000 A 
ATOM     22  C   UNL     1      49.105   5.190  16.839  0.00  0.00    +0.000 A 
BRANCH  21  23
ATOM     23  C   UNL     1      48.019   3.218  17.989  0.00  0.00    +0.000 C 
BRANCH  23  24
ATOM     24  N   UNL     1      46.641   2.902  17.626  0.00  0.00    +0.000 NA
ATOM     25  H   UNL     1      46.294   3.630  17.000  0.00  0.00    +0.000 HD
ATOM     26  H   UNL     1      46.057   2.931  18.457  0.00  0.00    +0.000 HD
ENDBRANCH  23  24
ENDBRANCH  21  23
ENDBRANCH  16  17
ENDBRANCH  15  16
ENDBRANCH  14  15
ENDBRANCH   3  14
TORSDOF 8
ENDMDL
MODEL 8
REMARK VINA RESULT:    -5.768      4.570      6.439
REMARK INTER + INTRA:          -9.370
REMARK INTER:                  -8.617
REMARK INTRA:                  -0.753
REMARK UNBOUND:                -1.073
REMARK  Name = 
REMARK  9 active torsions:
REMARK  status: ('A' for Active; 'I' for Inactive)
REMARK    1  A    between atoms: C_1  and  O_2
REMARK    2  A    between atoms: O_2  and  C_3
REMARK    3  A    between atoms: C_5  and  O_6
REMARK    4  A    between atoms: O_6  and  C_7
REMARK    5  A    between atoms: C_7  and  C_8
REMARK    6  A    between atoms: C_8  and  C_9
REMARK    7  A    between atoms: C_13  and  C_14
REMARK    8  A    between atoms: C_14  and  N_15
REMARK    9  A    between atoms: C_19  and  C_20
REMARK                            x       y       z     vdW  Elec       q    Type
REMARK                         _______ _______ _______ _____ _____    ______ ____
ROOT
ATOM      1  C   UNL     1      50.441   4.002  17.916  0.00  0.00    +0.000 A 
ATOM      2  C   UNL     1      49.140   4.150  17.412  0.00  0.00    +0.000 A 
ATOM      3  C   UNL     1      48.601   3.126  16.648  0.00  0.00    +0.000 A 
ATOM      4  N   UNL     1      49.261   1.990  16.360  0.00  0.00    +0.000 NA
ATOM      5  C   UNL     1      50.520   1.871  16.843  0.00  0.00    +0.000 A 
ATOM      6  C   UNL     1      51.160   2.835  17.613  0.00  0.00    +0.000 A 
ENDROOT
BRANCH   6   7
ATOM      7  C   UNL     1      52.547   2.519  18.048  0.00  0.00    +0.000 C 
ATOM      8  N   UNL     1      53.482   3.509  18.009  0.00  0.00    +0.000 N 
ATOM      9  O   UNL     1      52.856   1.396  18.434  0.00  0.00    +0.000 OA
ATOM     10  H   UNL     1      53.267   4.430  17.646  0.00  0.00    +0.000 HD
ATOM     11  H   UNL     1      54.433   3.287  18.272  0.00  0.00    +0.000 HD
ENDBRANCH   6   7
BRANCH   1  13
ATOM     12  C   UNL     1      50.622   5.140  19.999  0.00  0.00    +0.000 C 
ATOM     13  O   UNL     1      51.067   4.976  18.655  0.00  0.00    +0.000 OA
ENDBRANCH   1  13
BRANCH   3  14
ATOM     14  O   UNL     1      47.317   3.309  16.161  0.00  0.00    +0.000 OA
BRANCH  14  15
ATOM     15  C   UNL     1      47.305   3.479  14.735  0.00  0.00    +0.000 C 
BRANCH  15  16
ATOM     16  C   UNL     1      46.997   4.937  14.391  0.00  0.00    +0.000 C 
BRANCH  16  17
ATOM     17  C   UNL     1      46.220   5.039  13.100  0.00  0.00    +0.000 A 
ATOM     18  C   UNL     1      46.522   6.035  12.165  0.00  0.00    +0.000 A 
ATOM     19  C   UNL     1      45.841   6.093  10.949  0.00  0.00    +0.000 A 
ATOM     20  C   UNL     1      44.866   5.141  10.643  0.00  0.00    +0.000 A 
ATOM     21  C   UNL     1      44.564   4.120  11.552  0.00  0.00    +0.000 A 
ATOM     22  C   UNL     1      45.235   4.090  12.786  0.00  0.00    +0.000 A 
BRANCH  21  23
ATOM     23  C   UNL     1      43.542   3.063  11.214  0.00  0.00    +0.000 C 
BRANCH  23  24
ATOM     24  N   UNL     1      43.429   2.070  12.278  0.00  0.00    +0.000 NA
ATOM     25  H   UNL     1      43.431   2.554  13.177  0.00  0.00    +0.000 HD
ATOM     26  H   UNL     1      44.250   1.470  12.269  0.00  0.00    +0.000 HD
ENDBRANCH  23  24
ENDBRANCH  21  23
ENDBRANCH  16  17
ENDBRANCH  15  16
ENDBRANCH  14  15
ENDBRANCH   3  14
TORSDOF 8
ENDMDL
MODEL 9
REMARK VINA RESULT:    -5.738      1.622      2.424
REMARK INTER + INTRA:          -9.326
REMARK INTER:                  -8.647
REMARK INTRA:                  -0.679
REMARK UNBOUND:                -1.073
REMARK  Name = 
REMARK  9 active torsions:
REMARK  status: ('A' for Active; 'I' for Inactive)
REMARK    1  A    between atoms: C_1  and  O_2
REMARK    2  A    between atoms: O_2  and  C_3
REMARK    3  A    between atoms: C_5  and  O_6
REMARK    4  A    between atoms: O_6  and  C_7
REMARK    5  A    between atoms: C_7  and  C_8
REMARK    6  A    between atoms: C_8  and  C_9
REMARK    7  A    between atoms: C_13  and  C_14
REMARK    8  A    between atoms: C_14  and  N_15
REMARK    9  A    between atoms: C_19  and  C_20
REMARK                            x       y       z     vdW  Elec       q    Type
REMARK                         _______ _______ _______ _____ _____    ______ ____
ROOT
ATOM      1  C   UNL     1      47.884   6.037  13.903  0.00  0.00    +0.000 A 
ATOM      2  C   UNL     1      47.007   5.864  12.822  0.00  0.00    +0.000 A 
ATOM      3  C   UNL     1      45.964   4.959  12.948  0.00  0.00    +0.000 A 
ATOM      4  N   UNL     1      45.746   4.230  14.057  0.00  0.00    +0.000 NA
ATOM      5  C   UNL     1      46.611   4.400  15.085  0.00  0.00    +0.000 A 
ATOM      6  C   UNL     1      47.691   5.273  15.065  0.00  0.00    +0.000 A 
ENDROOT
BRANCH   6   7
ATOM      7  C   UNL     1      48.528   5.316  16.294  0.00  0.00    +0.000 C 
ATOM      8  N   UNL     1      48.547   6.463  17.028  0.00  0.00    +0.000 N 
ATOM      9  O   UNL     1      49.193   4.347  16.650  0.00  0.00    +0.000 OA
ATOM     10  H   UNL     1      48.048   7.294  16.729  0.00  0.00    +0.000 HD
ATOM     11  H   UNL     1      49.141   6.506  17.845  0.00  0.00    +0.000 HD
ENDBRANCH   6   7
BRANCH   1  13
ATOM     12  C   UNL     1      49.150   7.611  12.644  0.00  0.00    +0.000 C 
ATOM     13  O   UNL     1      48.961   6.888  13.857  0.00  0.00    +0.000 OA
ENDBRANCH   1  13
BRANCH   3  14
ATOM     14  O   UNL     1      45.122   4.809  11.858  0.00  0.00    +0.000 OA
BRANCH  14  15
ATOM     15  C   UNL     1      45.578   5.560  10.722  0.00  0.00    +0.000 C 
BRANCH  15  16
ATOM     16  C   UNL     1      44.776   5.160   9.483  0.00  0.00    +0.000 C 
BRANCH  16  17
ATOM     17  C   UNL     1      45.298   3.873   8.889  0.00  0.00    +0.000 A 
ATOM     18  C   UNL     1      44.901   2.637   9.410  0.00  0.00    +0.000 A 
ATOM     19  C   UNL     1      45.339   1.449   8.823  0.00  0.00    +0.000 A 
ATOM     20  C   UNL     1      46.160   1.483   7.694  0.00  0.00    +0.000 A 
ATOM     21  C   UNL     1      46.550   2.708   7.139  0.00  0.00    +0.000 A 
ATOM     22  C   UNL     1      46.127   3.897   7.757  0.00  0.00    +0.000 A 
BRANCH  21  23
ATOM     23  C   UNL     1      47.402   2.756   5.895  0.00  0.00    +0.000 C 
BRANCH  23  24
ATOM     24  N   UNL     1      48.766   2.313   6.166  0.00  0.00    +0.000 NA
ATOM     25  H   UNL     1      49.134   2.852   6.952  0.00  0.00    +0.000 HD
ATOM     26  H   UNL     1      49.356   2.526   5.366  0.00  0.00    +0.000 HD
ENDBRANCH  23  24
ENDBRANCH  21  23
ENDBRANCH  16  17
ENDBRANCH  15  16
ENDBRANCH  14  15
ENDBRANCH   3  14
TORSDOF 8
ENDMDL
