MODEL 1
REMARK VINA RESULT:    -8.210      0.000      0.000
REMARK INTER + INTRA:         -12.788
REMARK INTER:                 -11.569
REMARK INTRA:                  -1.219
REMARK UNBOUND:                -1.219
REMARK  Name = 
REMARK  9 active torsions:
REMARK  status: ('A' for Active; 'I' for Inactive)
REMARK    1  A    between atoms: C_1  and  C_2
REMARK    2  A    between atoms: C_2  and  N_3
REMARK    3  A    between atoms: C_2  and  C_11
REMARK    4  A    between atoms: N_3  and  C_4
REMARK    5  A    between atoms: C_4  and  C_5
REMARK    6  A    between atoms: C_14  and  C_15
REMARK    7  A    between atoms: C_15  and  N_16
REMARK    8  A    between atoms: N_16  and  C_17
REMARK    9  A    between atoms: C_18  and  C_20
REMARK                            x       y       z     vdW  Elec       q    Type
REMARK                         _______ _______ _______ _____ _____    ______ ____
ROOT
ATOM      1  C   UNL     1      44.384   5.199  11.335  0.00  0.00    +0.000 A 
ATOM      2  C   UNL     1      45.434   5.610  10.514  0.00  0.00    +0.000 A 
ATOM      3  C   UNL     1      46.307   6.645  10.855  0.00  0.00    +0.000 A 
ATOM      4  C   UNL     1      46.201   7.294  12.082  0.00  0.00    +0.000 A 
ATOM      5  C   UNL     1      45.067   7.022  12.855  0.00  0.00    +0.000 A 
ATOM      6  C   UNL     1      44.158   6.001  12.487  0.00  0.00    +0.000 A 
ENDROOT
BRANCH   1   8
ATOM      7  C   UNL     1      43.674   2.772  11.888  0.00  0.00    +0.000 C 
ATOM      8  C   UNL     1      43.510   3.986  10.956  0.00  0.00    +0.000 C 
BRANCH   8   9
ATOM      9  N   UNL     1      43.769   3.534   9.563  0.00  0.00    +0.000 NA
ATOM     10  H   UNL     1      42.890   3.410   9.070  0.00  0.00    +0.000 HD
BRANCH   9  11
ATOM     11  C   UNL     1      44.528   2.283   9.460  0.00  0.00    +0.000 C 
BRANCH  11  12
ATOM     12  C   UNL     1      45.809   2.429   8.623  0.00  0.00    +0.000 C 
ATOM     13  C   UNL     1      45.559   3.435   7.480  0.00  0.00    +0.000 C 
ATOM     14  C   UNL     1      46.754   3.541   6.536  0.00  0.00    +0.000 C 
ATOM     15  C   UNL     1      47.151   2.174   5.992  0.00  0.00    +0.000 C 
ATOM     16  C   UNL     1      47.445   1.196   7.123  0.00  0.00    +0.000 C 
ATOM     17  C   UNL     1      46.257   1.067   8.068  0.00  0.00    +0.000 C 
ENDBRANCH  11  12
ENDBRANCH   9  11
ENDBRANCH   8   9
ENDBRANCH   1   8
BRANCH   4  18
ATOM     18  C   UNL     1      47.362   8.130  12.586  0.00  0.00    +0.000 C 
BRANCH  18  19
ATOM     19  N   UNL     1      47.863   7.851  13.927  0.00  0.00    +0.000 N 
ATOM     20  C   UNL     1      47.862   8.924  14.909  0.00  0.00    +0.000 C 
ATOM     21  C   UNL     1      48.611   6.667  14.098  0.00  0.00    +0.000 C 
ATOM     22  O   UNL     1      48.800   5.881  13.175  0.00  0.00    +0.000 OA
BRANCH  21  23
ATOM     23  C   UNL     1      49.126   6.369  15.446  0.00  0.00    +0.000 A 
ATOM     24  C   UNL     1      50.245   6.970  16.000  0.00  0.00    +0.000 A 
ATOM     25  S   UNL     1      50.618   6.456  17.580  0.00  0.00    +0.000 S 
ATOM     26  C   UNL     1      49.226   5.488  17.619  0.00  0.00    +0.000 A 
ATOM     27  N   UNL     1      48.904   4.829  18.763  0.00  0.00    +0.000 NA
ATOM     28  C   UNL     1      47.818   4.140  18.667  0.00  0.00    +0.000 A 
ATOM     29  N   UNL     1      47.051   4.024  17.538  0.00  0.00    +0.000 N 
ATOM     30  C   UNL     1      47.386   4.611  16.336  0.00  0.00    +0.000 A 
ATOM     31  O   UNL     1      46.755   4.354  15.313  0.00  0.00    +0.000 OA
ATOM     32  C   UNL     1      48.544   5.489  16.422  0.00  0.00    +0.000 A 
ATOM     33  H   UNL     1      46.258   3.399  17.516  0.00  0.00    +0.000 HD
ENDBRANCH  21  23
ENDBRANCH  18  19
ENDBRANCH   4  18
TORSDOF 7
ENDMDL
MODEL 2
REMARK VINA RESULT:    -7.890      1.858      2.264
REMARK INTER + INTRA:         -12.337
REMARK INTER:                 -10.975
REMARK INTRA:                  -1.362
REMARK UNBOUND:                -1.219
REMARK  Name = 
REMARK  9 active torsions:
REMARK  status: ('A' for Active; 'I' for Inactive)
REMARK    1  A    between atoms: C_1  and  C_2
REMARK    2  A    between atoms: C_2  and  N_3
REMARK    3  A    between atoms: C_2  and  C_11
REMARK    4  A    between atoms: N_3  and  C_4
REMARK    5  A    between atoms: C_4  and  C_5
REMARK    6  A    between atoms: C_14  and  C_15
REMARK    7  A    between atoms: C_15  and  N_16
REMARK    8  A    between atoms: N_16  and  C_17
REMARK    9  A    between atoms: C_18  and  C_20
REMARK                            x       y       z     vdW  Elec       q    Type
REMARK                         _______ _______ _______ _____ _____    ______ ____
ROOT
ATOM      1  C   UNL     1      45.130   5.940  11.968  0.00  0.00    +0.000 A 
ATOM      2  C   UNL     1      45.667   5.287  13.077  0.00  0.00    +0.000 A 
ATOM      3  C   UNL     1      46.957   5.530  13.554  0.00  0.00    +0.000 A 
ATOM      4  C   UNL     1      47.767   6.496  12.963  0.00  0.00    +0.000 A 
ATOM      5  C   UNL     1      47.327   7.050  11.755  0.00  0.00    +0.000 A 
ATOM      6  C   UNL     1      46.034   6.770  11.250  0.00  0.00    +0.000 A 
ENDROOT
BRANCH   1   8
ATOM      7  C   UNL     1      42.835   4.897  12.554  0.00  0.00    +0.000 C 
ATOM      8  C   UNL     1      43.666   5.707  11.543  0.00  0.00    +0.000 C 
BRANCH   8   9
ATOM      9  N   UNL     1      43.577   5.023  10.224  0.00  0.00    +0.000 NA
ATOM     10  H   UNL     1      42.639   5.116   9.849  0.00  0.00    +0.000 HD
BRANCH   9  11
ATOM     11  C   UNL     1      43.918   3.597  10.254  0.00  0.00    +0.000 C 
BRANCH  11  12
ATOM     12  C   UNL     1      45.214   3.277   9.490  0.00  0.00    +0.000 C 
ATOM     13  C   UNL     1      45.417   4.320   8.372  0.00  0.00    +0.000 C 
ATOM     14  C   UNL     1      46.625   3.995   7.496  0.00  0.00    +0.000 C 
ATOM     15  C   UNL     1      46.530   2.585   6.926  0.00  0.00    +0.000 C 
ATOM     16  C   UNL     1      46.378   1.552   8.036  0.00  0.00    +0.000 C 
ATOM     17  C   UNL     1      45.169   1.853   8.913  0.00  0.00    +0.000 C 
ENDBRANCH  11  12
ENDBRANCH   9  11
ENDBRANCH   8   9
ENDBRANCH   1   8
BRANCH   4  18
ATOM     18  C   UNL     1      48.985   7.006  13.708  0.00  0.00    +0.000 C 
BRANCH  18  19
ATOM     19  N   UNL     1      48.786   7.514  15.060  0.00  0.00    +0.000 N 
ATOM     20  C   UNL     1      48.089   8.779  15.233  0.00  0.00    +0.000 C 
ATOM     21  C   UNL     1      49.553   6.926  16.087  0.00  0.00    +0.000 C 
ATOM     22  O   UNL     1      50.325   5.997  15.867  0.00  0.00    +0.000 OA
BRANCH  21  23
ATOM     23  C   UNL     1      49.365   7.428  17.459  0.00  0.00    +0.000 A 
ATOM     24  C   UNL     1      49.913   8.608  17.936  0.00  0.00    +0.000 A 
ATOM     25  S   UNL     1      49.530   8.965  19.556  0.00  0.00    +0.000 S 
ATOM     26  C   UNL     1      48.524   7.603  19.643  0.00  0.00    +0.000 A 
ATOM     27  N   UNL     1      47.803   7.377  20.773  0.00  0.00    +0.000 NA
ATOM     28  C   UNL     1      47.068   6.319  20.707  0.00  0.00    +0.000 A 
ATOM     29  N   UNL     1      47.013   5.458  19.644  0.00  0.00    +0.000 N 
ATOM     30  C   UNL     1      47.788   5.607  18.513  0.00  0.00    +0.000 A 
ATOM     31  O   UNL     1      47.821   4.730  17.653  0.00  0.00    +0.000 OA
ATOM     32  C   UNL     1      48.552   6.846  18.492  0.00  0.00    +0.000 A 
ATOM     33  H   UNL     1      46.477   4.605  19.699  0.00  0.00    +0.000 HD
ENDBRANCH  21  23
ENDBRANCH  18  19
ENDBRANCH   4  18
TORSDOF 7
ENDMDL
MODEL 3
REMARK VINA RESULT:    -7.529      1.375      1.746
REMARK INTER + INTRA:         -11.829
REMARK INTER:                 -10.531
REMARK INTRA:                  -1.298
REMARK UNBOUND:                -1.219
REMARK  Name = 
REMARK  9 active torsions:
REMARK  status: ('A' for Active; 'I' for Inactive)
REMARK    1  A    between atoms: C_1  and  C_2
REMARK    2  A    between atoms: C_2  and  N_3
REMARK    3  A    between atoms: C_2  and  C_11
REMARK    4  A    between atoms: N_3  and  C_4
REMARK    5  A    between atoms: C_4  and  C_5
REMARK    6  A    between atoms: C_14  and  C_15
REMARK    7  A    between atoms: C_15  and  N_16
REMARK    8  A    between atoms: N_16  and  C_17
REMARK    9  A    between atoms: C_18  and  C_20
REMARK                            x       y       z     vdW  Elec       q    Type
REMARK                         _______ _______ _______ _____ _____    ______ ____
ROOT
ATOM      1  C   UNL     1      44.435   5.240  11.466  0.00  0.00    +0.000 A 
ATOM      2  C   UNL     1      44.155   6.604  11.393  0.00  0.00    +0.000 A 
ATOM      3  C   UNL     1      45.066   7.591  11.777  0.00  0.00    +0.000 A 
ATOM      4  C   UNL     1      46.344   7.253  12.212  0.00  0.00    +0.000 A 
ATOM      5  C   UNL     1      46.602   5.898  12.454  0.00  0.00    +0.000 A 
ATOM      6  C   UNL     1      45.661   4.901  12.102  0.00  0.00    +0.000 A 
ENDROOT
BRANCH   1   8
ATOM      7  C   UNL     1      43.241   2.978  11.858  0.00  0.00    +0.000 C 
ATOM      8  C   UNL     1      43.433   4.195  10.936  0.00  0.00    +0.000 C 
BRANCH   8   9
ATOM      9  N   UNL     1      43.819   3.695   9.589  0.00  0.00    +0.000 NA
ATOM     10  H   UNL     1      42.990   3.558   9.021  0.00  0.00    +0.000 HD
BRANCH   9  11
ATOM     11  C   UNL     1      44.575   2.438   9.601  0.00  0.00    +0.000 C 
BRANCH  11  12
ATOM     12  C   UNL     1      45.840   2.494   8.730  0.00  0.00    +0.000 C 
ATOM     13  C   UNL     1      45.670   3.587   7.654  0.00  0.00    +0.000 C 
ATOM     14  C   UNL     1      46.842   3.619   6.677  0.00  0.00    +0.000 C 
ATOM     15  C   UNL     1      47.071   2.252   6.044  0.00  0.00    +0.000 C 
ATOM     16  C   UNL     1      47.287   1.182   7.107  0.00  0.00    +0.000 C 
ATOM     17  C   UNL     1      46.120   1.127   8.085  0.00  0.00    +0.000 C 
ENDBRANCH  11  12
ENDBRANCH   9  11
ENDBRANCH   8   9
ENDBRANCH   1   8
BRANCH   4  18
ATOM     18  C   UNL     1      47.423   8.319  12.259  0.00  0.00    +0.000 C 
BRANCH  18  19
ATOM     19  N   UNL     1      48.295   8.345  13.428  0.00  0.00    +0.000 N 
ATOM     20  C   UNL     1      47.998   9.283  14.498  0.00  0.00    +0.000 C 
ATOM     21  C   UNL     1      49.544   7.700  13.311  0.00  0.00    +0.000 C 
ATOM     22  O   UNL     1      49.872   7.104  12.288  0.00  0.00    +0.000 OA
BRANCH  21  23
ATOM     23  C   UNL     1      50.439   7.717  14.481  0.00  0.00    +0.000 A 
ATOM     24  C   UNL     1      51.590   8.484  14.567  0.00  0.00    +0.000 A 
ATOM     25  S   UNL     1      52.437   8.330  16.036  0.00  0.00    +0.000 S 
ATOM     26  C   UNL     1      51.229   7.312  16.653  0.00  0.00    +0.000 A 
ATOM     27  N   UNL     1      51.311   6.886  17.941  0.00  0.00    +0.000 NA
ATOM     28  C   UNL     1      50.326   6.130  18.292  0.00  0.00    +0.000 A 
ATOM     29  N   UNL     1      49.298   5.739  17.476  0.00  0.00    +0.000 N 
ATOM     30  C   UNL     1      49.222   6.083  16.143  0.00  0.00    +0.000 A 
ATOM     31  O   UNL     1      48.369   5.584  15.412  0.00  0.00    +0.000 OA
ATOM     32  C   UNL     1      50.251   7.026  15.727  0.00  0.00    +0.000 A 
ATOM     33  H   UNL     1      48.607   5.078  17.799  0.00  0.00    +0.000 HD
ENDBRANCH  21  23
ENDBRANCH  18  19
ENDBRANCH   4  18
TORSDOF 7
ENDMDL
MODEL 4
REMARK VINA RESULT:    -7.122      2.520      3.496
REMARK INTER + INTRA:         -11.255
REMARK INTER:                 -10.134
REMARK INTRA:                  -1.121
REMARK UNBOUND:                -1.219
REMARK  Name = 
REMARK  9 active torsions:
REMARK  status: ('A' for Active; 'I' for Inactive)
REMARK    1  A    between atoms: C_1  and  C_2
REMARK    2  A    between atoms: C_2  and  N_3
REMARK    3  A    between atoms: C_2  and  C_11
REMARK    4  A    between atoms: N_3  and  C_4
REMARK    5  A    between atoms: C_4  and  C_5
REMARK    6  A    between atoms: C_14  and  C_15
REMARK    7  A    between atoms: C_15  and  N_16
REMARK    8  A    between atoms: N_16  and  C_17
REMARK    9  A    between atoms: C_18  and  C_20
REMARK                            x       y       z     vdW  Elec       q    Type
REMARK                         _______ _______ _______ _____ _____    ______ ____
ROOT
ATOM      1  C   UNL     1      46.212   6.264  11.895  0.00  0.00    +0.000 A 
ATOM      2  C   UNL     1      46.322   5.698  13.165  0.00  0.00    +0.000 A 
ATOM      3  C   UNL     1      47.427   5.899  13.995  0.00  0.00    +0.000 A 
ATOM      4  C   UNL     1      48.469   6.736  13.607  0.00  0.00    +0.000 A 
ATOM      5  C   UNL     1      48.471   7.187  12.282  0.00  0.00    +0.000 A 
ATOM      6  C   UNL     1      47.368   6.947  11.427  0.00  0.00    +0.000 A 
ENDROOT
BRANCH   1   8
ATOM      7  C   UNL     1      43.815   5.296  11.765  0.00  0.00    +0.000 C 
ATOM      8  C   UNL     1      44.927   6.091  11.059  0.00  0.00    +0.000 C 
BRANCH   8   9
ATOM      9  N   UNL     1      45.204   5.433   9.754  0.00  0.00    +0.000 NA
ATOM     10  H   UNL     1      45.047   6.088   8.996  0.00  0.00    +0.000 HD
BRANCH   9  11
ATOM     11  C   UNL     1      44.400   4.234   9.494  0.00  0.00    +0.000 C 
BRANCH  11  12
ATOM     12  C   UNL     1      44.992   3.345   8.389  0.00  0.00    +0.000 C 
ATOM     13  C   UNL     1      45.512   2.033   9.013  0.00  0.00    +0.000 C 
ATOM     14  C   UNL     1      46.221   1.151   7.989  0.00  0.00    +0.000 C 
ATOM     15  C   UNL     1      47.340   1.910   7.287  0.00  0.00    +0.000 C 
ATOM     16  C   UNL     1      46.816   3.181   6.629  0.00  0.00    +0.000 C 
ATOM     17  C   UNL     1      46.116   4.080   7.640  0.00  0.00    +0.000 C 
ENDBRANCH  11  12
ENDBRANCH   9  11
ENDBRANCH   8   9
ENDBRANCH   1   8
BRANCH   4  18
ATOM     18  C   UNL     1      49.453   7.235  14.649  0.00  0.00    +0.000 C 
BRANCH  18  19
ATOM     19  N   UNL     1      48.980   7.348  16.024  0.00  0.00    +0.000 N 
ATOM     20  C   UNL     1      48.488   8.635  16.489  0.00  0.00    +0.000 C 
ATOM     21  C   UNL     1      49.325   6.304  16.908  0.00  0.00    +0.000 C 
ATOM     22  O   UNL     1      49.958   5.321  16.534  0.00  0.00    +0.000 OA
BRANCH  21  23
ATOM     23  C   UNL     1      48.857   6.401  18.302  0.00  0.00    +0.000 A 
ATOM     24  C   UNL     1      47.640   5.910  18.748  0.00  0.00    +0.000 A 
ATOM     25  S   UNL     1      47.348   6.140  20.409  0.00  0.00    +0.000 S 
ATOM     26  C   UNL     1      48.893   6.809  20.612  0.00  0.00    +0.000 A 
ATOM     27  N   UNL     1      49.316   7.144  21.860  0.00  0.00    +0.000 NA
ATOM     28  C   UNL     1      50.511   7.628  21.881  0.00  0.00    +0.000 A 
ATOM     29  N   UNL     1      51.300   7.838  20.781  0.00  0.00    +0.000 N 
ATOM     30  C   UNL     1      50.878   7.587  19.493  0.00  0.00    +0.000 A 
ATOM     31  O   UNL     1      51.558   7.934  18.529  0.00  0.00    +0.000 OA
ATOM     32  C   UNL     1      49.578   6.936  19.424  0.00  0.00    +0.000 A 
ATOM     33  H   UNL     1      52.194   8.299  20.869  0.00  0.00    +0.000 HD
ENDBRANCH  21  23
ENDBRANCH  18  19
ENDBRANCH   4  18
TORSDOF 7
ENDMDL
MODEL 5
REMARK VINA RESULT:    -6.868      3.425      4.904
REMARK INTER + INTRA:         -10.898
REMARK INTER:                  -9.700
REMARK INTRA:                  -1.198
REMARK UNBOUND:                -1.219
REMARK  Name = 
REMARK  9 active torsions:
REMARK  status: ('A' for Active; 'I' for Inactive)
REMARK    1  A    between atoms: C_1  and  C_2
REMARK    2  A    between atoms: C_2  and  N_3
REMARK    3  A    between atoms: C_2  and  C_11
REMARK    4  A    between atoms: N_3  and  C_4
REMARK    5  A    between atoms: C_4  and  C_5
REMARK    6  A    between atoms: C_14  and  C_15
REMARK    7  A    between atoms: C_15  and  N_16
REMARK    8  A    between atoms: N_16  and  C_17
REMARK    9  A    between atoms: C_18  and  C_20
REMARK                            x       y       z     vdW  Elec       q    Type
REMARK                         _______ _______ _______ _____ _____    ______ ____
ROOT
ATOM      1  C   UNL     1      45.364   6.137  11.322  0.00  0.00    +0.000 A 
ATOM      2  C   UNL     1      44.802   7.362  11.680  0.00  0.00    +0.000 A 
ATOM      3  C   UNL     1      45.420   8.258  12.553  0.00  0.00    +0.000 A 
ATOM      4  C   UNL     1      46.681   7.989  13.079  0.00  0.00    +0.000 A 
ATOM      5  C   UNL     1      47.199   6.705  12.875  0.00  0.00    +0.000 A 
ATOM      6  C   UNL     1      46.550   5.781  12.021  0.00  0.00    +0.000 A 
ENDROOT
BRANCH   1   8
ATOM      7  C   UNL     1      44.361   3.813  10.784  0.00  0.00    +0.000 C 
ATOM      8  C   UNL     1      44.686   5.228  10.276  0.00  0.00    +0.000 C 
BRANCH   8   9
ATOM      9  N   UNL     1      45.511   5.096   9.044  0.00  0.00    +0.000 NA
ATOM     10  H   UNL     1      45.468   5.954   8.506  0.00  0.00    +0.000 HD
BRANCH   9  11
ATOM     11  C   UNL     1      45.120   3.987   8.167  0.00  0.00    +0.000 C 
BRANCH  11  12
ATOM     12  C   UNL     1      46.321   3.170   7.665  0.00  0.00    +0.000 C 
ATOM     13  C   UNL     1      46.438   3.324   6.134  0.00  0.00    +0.000 C 
ATOM     14  C   UNL     1      47.541   2.445   5.550  0.00  0.00    +0.000 C 
ATOM     15  C   UNL     1      47.351   0.985   5.946  0.00  0.00    +0.000 C 
ATOM     16  C   UNL     1      47.285   0.830   7.461  0.00  0.00    +0.000 C 
ATOM     17  C   UNL     1      46.180   1.692   8.060  0.00  0.00    +0.000 C 
ENDBRANCH  11  12
ENDBRANCH   9  11
ENDBRANCH   8   9
ENDBRANCH   1   8
BRANCH   4  18
ATOM     18  C   UNL     1      47.485   9.113  13.704  0.00  0.00    +0.000 C 
BRANCH  18  19
ATOM     19  N   UNL     1      48.886   9.235  13.320  0.00  0.00    +0.000 N 
ATOM     20  C   UNL     1      49.909   8.894  14.296  0.00  0.00    +0.000 C 
ATOM     21  C   UNL     1      49.169   9.975  12.153  0.00  0.00    +0.000 C 
ATOM     22  O   UNL     1      48.278  10.463  11.463  0.00  0.00    +0.000 OA
BRANCH  21  23
ATOM     23  C   UNL     1      50.580  10.110  11.750  0.00  0.00    +0.000 A 
ATOM     24  C   UNL     1      51.311  11.282  11.864  0.00  0.00    +0.000 A 
ATOM     25  S   UNL     1      52.926  11.164  11.338  0.00  0.00    +0.000 S 
ATOM     26  C   UNL     1      52.733   9.506  11.040  0.00  0.00    +0.000 A 
ATOM     27  N   UNL     1      53.805   8.770  10.644  0.00  0.00    +0.000 NA
ATOM     28  C   UNL     1      53.530   7.523  10.465  0.00  0.00    +0.000 A 
ATOM     29  N   UNL     1      52.292   6.956  10.610  0.00  0.00    +0.000 N 
ATOM     30  C   UNL     1      51.165   7.681  10.931  0.00  0.00    +0.000 A 
ATOM     31  O   UNL     1      50.051   7.161  10.898  0.00  0.00    +0.000 OA
ATOM     32  C   UNL     1      51.443   9.074  11.252  0.00  0.00    +0.000 A 
ATOM     33  H   UNL     1      52.138   5.988  10.371  0.00  0.00    +0.000 HD
ENDBRANCH  21  23
ENDBRANCH  18  19
ENDBRANCH   4  18
TORSDOF 7
ENDMDL
MODEL 6
REMARK VINA RESULT:    -6.630      2.880      8.361
REMARK INTER + INTRA:         -10.562
REMARK INTER:                  -9.284
REMARK INTRA:                  -1.278
REMARK UNBOUND:                -1.219
REMARK  Name = 
REMARK  9 active torsions:
REMARK  status: ('A' for Active; 'I' for Inactive)
REMARK    1  A    between atoms: C_1  and  C_2
REMARK    2  A    between atoms: C_2  and  N_3
REMARK    3  A    between atoms: C_2  and  C_11
REMARK    4  A    between atoms: N_3  and  C_4
REMARK    5  A    between atoms: C_4  and  C_5
REMARK    6  A    between atoms: C_14  and  C_15
REMARK    7  A    between atoms: C_15  and  N_16
REMARK    8  A    between atoms: N_16  and  C_17
REMARK    9  A    between atoms: C_18  and  C_20
REMARK                            x       y       z     vdW  Elec       q    Type
REMARK                         _______ _______ _______ _____ _____    ______ ____
ROOT
ATOM      1  C   UNL     1      50.242   8.048  16.137  0.00  0.00    +0.000 A 
ATOM      2  C   UNL     1      48.948   8.511  16.373  0.00  0.00    +0.000 A 
ATOM      3  C   UNL     1      48.005   8.686  15.358  0.00  0.00    +0.000 A 
ATOM      4  C   UNL     1      48.302   8.348  14.041  0.00  0.00    +0.000 A 
ATOM      5  C   UNL     1      49.634   8.038  13.743  0.00  0.00    +0.000 A 
ATOM      6  C   UNL     1      50.600   7.902  14.769  0.00  0.00    +0.000 A 
ENDROOT
BRANCH   1   8
ATOM      7  C   UNL     1      52.444   8.702  17.331  0.00  0.00    +0.000 C 
ATOM      8  C   UNL     1      51.213   7.779  17.305  0.00  0.00    +0.000 C 
BRANCH   8   9
ATOM      9  N   UNL     1      51.695   6.371  17.307  0.00  0.00    +0.000 NA
ATOM     10  H   UNL     1      51.688   6.002  16.362  0.00  0.00    +0.000 HD
BRANCH   9  11
ATOM     11  C   UNL     1      50.917   5.463  18.157  0.00  0.00    +0.000 C 
BRANCH  11  12
ATOM     12  C   UNL     1      49.804   4.733  17.389  0.00  0.00    +0.000 C 
ATOM     13  C   UNL     1      48.431   5.189  17.926  0.00  0.00    +0.000 C 
ATOM     14  C   UNL     1      47.279   4.416  17.288  0.00  0.00    +0.000 C 
ATOM     15  C   UNL     1      47.466   2.912  17.452  0.00  0.00    +0.000 C 
ATOM     16  C   UNL     1      48.802   2.457  16.877  0.00  0.00    +0.000 C 
ATOM     17  C   UNL     1      49.964   3.209  17.512  0.00  0.00    +0.000 C 
ENDBRANCH  11  12
ENDBRANCH   9  11
ENDBRANCH   8   9
ENDBRANCH   1   8
BRANCH   4  18
ATOM     18  C   UNL     1      47.174   8.186  13.040  0.00  0.00    +0.000 C 
BRANCH  18  19
ATOM     19  N   UNL     1      46.631   6.846  12.847  0.00  0.00    +0.000 N 
ATOM     20  C   UNL     1      47.469   5.701  13.166  0.00  0.00    +0.000 C 
ATOM     21  C   UNL     1      45.461   6.734  12.067  0.00  0.00    +0.000 C 
ATOM     22  O   UNL     1      44.895   7.720  11.602  0.00  0.00    +0.000 OA
BRANCH  21  23
ATOM     23  C   UNL     1      44.897   5.389  11.861  0.00  0.00    +0.000 A 
ATOM     24  C   UNL     1      44.189   4.687  12.824  0.00  0.00    +0.000 A 
ATOM     25  S   UNL     1      43.635   3.158  12.324  0.00  0.00    +0.000 S 
ATOM     26  C   UNL     1      44.230   3.427  10.760  0.00  0.00    +0.000 A 
ATOM     27  N   UNL     1      43.996   2.504   9.789  0.00  0.00    +0.000 NA
ATOM     28  C   UNL     1      44.488   2.833   8.643  0.00  0.00    +0.000 A 
ATOM     29  N   UNL     1      45.212   3.967   8.388  0.00  0.00    +0.000 N 
ATOM     30  C   UNL     1      45.540   4.887   9.362  0.00  0.00    +0.000 A 
ATOM     31  O   UNL     1      46.320   5.806   9.122  0.00  0.00    +0.000 OA
ATOM     32  C   UNL     1      44.914   4.617  10.648  0.00  0.00    +0.000 A 
ATOM     33  H   UNL     1      45.636   4.115   7.484  0.00  0.00    +0.000 HD
ENDBRANCH  21  23
ENDBRANCH  18  19
ENDBRANCH   4  18
TORSDOF 7
ENDMDL
MODEL 7
REMARK VINA RESULT:    -6.439      4.666      7.780
REMARK INTER + INTRA:         -10.293
REMARK INTER:                  -9.361
REMARK INTRA:                  -0.932
REMARK UNBOUND:                -1.219
REMARK  Name = 
REMARK  9 active torsions:
REMARK  status: ('A' for Active; 'I' for Inactive)
REMARK    1  A    between atoms: C_1  and  C_2
REMARK    2  A    between atoms: C_2  and  N_3
REMARK    3  A    between atoms: C_2  and  C_11
REMARK    4  A    between atoms: N_3  and  C_4
REMARK    5  A    between atoms: C_4  and  C_5
REMARK    6  A    between atoms: C_14  and  C_15
REMARK    7  A    between atoms: C_15  and  N_16
REMARK    8  A    between atoms: N_16  and  C_17
REMARK    9  A    between atoms: C_18  and  C_20
REMARK                            x       y       z     vdW  Elec       q    Type
REMARK                         _______ _______ _______ _____ _____    ______ ____
ROOT
ATOM      1  C   UNL     1      50.296   9.921  11.116  0.00  0.00    +0.000 A 
ATOM      2  C   UNL     1      49.063  10.572  11.138  0.00  0.00    +0.000 A 
ATOM      3  C   UNL     1      47.895   9.977  11.619  0.00  0.00    +0.000 A 
ATOM      4  C   UNL     1      47.918   8.694  12.160  0.00  0.00    +0.000 A 
ATOM      5  C   UNL     1      49.095   7.954  12.005  0.00  0.00    +0.000 A 
ATOM      6  C   UNL     1      50.268   8.547  11.478  0.00  0.00    +0.000 A 
ENDROOT
BRANCH   1   8
ATOM      7  C   UNL     1      51.359  11.648   9.508  0.00  0.00    +0.000 C 
ATOM      8  C   UNL     1      51.574  10.658  10.667  0.00  0.00    +0.000 C 
BRANCH   8   9
ATOM      9  N   UNL     1      52.646   9.708  10.266  0.00  0.00    +0.000 NA
ATOM     10  H   UNL     1      53.529   9.990  10.677  0.00  0.00    +0.000 HD
BRANCH   9  11
ATOM     11  C   UNL     1      52.838   9.583   8.817  0.00  0.00    +0.000 C 
BRANCH  11  12
ATOM     12  C   UNL     1      53.514   8.262   8.416  0.00  0.00    +0.000 C 
ATOM     13  C   UNL     1      53.221   7.971   6.929  0.00  0.00    +0.000 C 
ATOM     14  C   UNL     1      53.765   6.613   6.491  0.00  0.00    +0.000 C 
ATOM     15  C   UNL     1      53.245   5.495   7.387  0.00  0.00    +0.000 C 
ATOM     16  C   UNL     1      53.578   5.761   8.850  0.00  0.00    +0.000 C 
ATOM     17  C   UNL     1      53.031   7.108   9.308  0.00  0.00    +0.000 C 
ENDBRANCH  11  12
ENDBRANCH   9  11
ENDBRANCH   8   9
ENDBRANCH   1   8
BRANCH   4  18
ATOM     18  C   UNL     1      46.751   8.220  13.006  0.00  0.00    +0.000 C 
BRANCH  18  19
ATOM     19  N   UNL     1      46.292   6.850  12.815  0.00  0.00    +0.000 N 
ATOM     20  C   UNL     1      47.137   5.760  13.276  0.00  0.00    +0.000 C 
ATOM     21  C   UNL     1      45.223   6.651  11.915  0.00  0.00    +0.000 C 
ATOM     22  O   UNL     1      44.672   7.590  11.347  0.00  0.00    +0.000 OA
BRANCH  21  23
ATOM     23  C   UNL     1      44.746   5.273  11.708  0.00  0.00    +0.000 A 
ATOM     24  C   UNL     1      44.031   4.549  12.649  0.00  0.00    +0.000 A 
ATOM     25  S   UNL     1      43.587   2.982  12.153  0.00  0.00    +0.000 S 
ATOM     26  C   UNL     1      44.244   3.259  10.614  0.00  0.00    +0.000 A 
ATOM     27  N   UNL     1      44.109   2.308   9.651  0.00  0.00    +0.000 NA
ATOM     28  C   UNL     1      44.638   2.645   8.524  0.00  0.00    +0.000 A 
ATOM     29  N   UNL     1      45.310   3.813   8.282  0.00  0.00    +0.000 N 
ATOM     30  C   UNL     1      45.538   4.766   9.253  0.00  0.00    +0.000 A 
ATOM     31  O   UNL     1      46.277   5.724   9.034  0.00  0.00    +0.000 OA
ATOM     32  C   UNL     1      44.865   4.483  10.513  0.00  0.00    +0.000 A 
ATOM     33  H   UNL     1      45.769   3.970   7.397  0.00  0.00    +0.000 HD
ENDBRANCH  21  23
ENDBRANCH  18  19
ENDBRANCH   4  18
TORSDOF 7
ENDMDL
MODEL 8
REMARK VINA RESULT:    -6.405      2.161      3.074
REMARK INTER + INTRA:         -10.245
REMARK INTER:                  -9.244
REMARK INTRA:                  -1.001
REMARK UNBOUND:                -1.219
REMARK  Name = 
REMARK  9 active torsions:
REMARK  status: ('A' for Active; 'I' for Inactive)
REMARK    1  A    between atoms: C_1  and  C_2
REMARK    2  A    between atoms: C_2  and  N_3
REMARK    3  A    between atoms: C_2  and  C_11
REMARK    4  A    between atoms: N_3  and  C_4
REMARK    5  A    between atoms: C_4  and  C_5
REMARK    6  A    between atoms: C_14  and  C_15
REMARK    7  A    between atoms: C_15  and  N_16
REMARK    8  A    between atoms: N_16  and  C_17
REMARK    9  A    between atoms: C_18  and  C_20
REMARK                            x       y       z     vdW  Elec       q    Type
REMARK                         _______ _______ _______ _____ _____    ______ ____
ROOT
ATOM      1  C   UNL     1      45.123   5.140  12.025  0.00  0.00    +0.000 A 
ATOM      2  C   UNL     1      46.322   5.830  12.205  0.00  0.00    +0.000 A 
ATOM      3  C   UNL     1      47.187   5.589  13.274  0.00  0.00    +0.000 A 
ATOM      4  C   UNL     1      46.914   4.588  14.203  0.00  0.00    +0.000 A 
ATOM      5  C   UNL     1      45.648   3.992  14.149  0.00  0.00    +0.000 A 
ATOM      6  C   UNL     1      44.754   4.269  13.086  0.00  0.00    +0.000 A 
ENDROOT
BRANCH   1   8
ATOM      7  C   UNL     1      42.839   5.902  11.078  0.00  0.00    +0.000 C 
ATOM      8  C   UNL     1      44.253   5.376  10.774  0.00  0.00    +0.000 C 
BRANCH   8   9
ATOM      9  N   UNL     1      44.117   4.141   9.956  0.00  0.00    +0.000 NA
ATOM     10  H   UNL     1      44.568   3.363  10.428  0.00  0.00    +0.000 HD
BRANCH   9  11
ATOM     11  C   UNL     1      44.678   4.241   8.605  0.00  0.00    +0.000 C 
BRANCH  11  12
ATOM     12  C   UNL     1      45.869   3.296   8.380  0.00  0.00    +0.000 C 
ATOM     13  C   UNL     1      46.555   3.649   7.044  0.00  0.00    +0.000 C 
ATOM     14  C   UNL     1      47.677   2.673   6.699  0.00  0.00    +0.000 C 
ATOM     15  C   UNL     1      47.176   1.233   6.699  0.00  0.00    +0.000 C 
ATOM     16  C   UNL     1      46.543   0.872   8.038  0.00  0.00    +0.000 C 
ATOM     17  C   UNL     1      45.411   1.828   8.392  0.00  0.00    +0.000 C 
ENDBRANCH  11  12
ENDBRANCH   9  11
ENDBRANCH   8   9
ENDBRANCH   1   8
BRANCH   4  18
ATOM     18  C   UNL     1      48.021   4.092  15.113  0.00  0.00    +0.000 C 
BRANCH  18  19
ATOM     19  N   UNL     1      48.103   4.668  16.450  0.00  0.00    +0.000 N 
ATOM     20  C   UNL     1      47.109   4.282  17.439  0.00  0.00    +0.000 C 
ATOM     21  C   UNL     1      48.933   5.798  16.612  0.00  0.00    +0.000 C 
ATOM     22  O   UNL     1      49.593   6.255  15.683  0.00  0.00    +0.000 OA
BRANCH  21  23
ATOM     23  C   UNL     1      49.029   6.394  17.956  0.00  0.00    +0.000 A 
ATOM     24  C   UNL     1      48.367   7.550  18.342  0.00  0.00    +0.000 A 
ATOM     25  S   UNL     1      48.638   8.017  19.956  0.00  0.00    +0.000 S 
ATOM     26  C   UNL     1      49.564   6.623  20.229  0.00  0.00    +0.000 A 
ATOM     27  N   UNL     1      50.034   6.369  21.479  0.00  0.00    +0.000 NA
ATOM     28  C   UNL     1      50.711   5.274  21.557  0.00  0.00    +0.000 A 
ATOM     29  N   UNL     1      50.987   4.437  20.509  0.00  0.00    +0.000 N 
ATOM     30  C   UNL     1      50.598   4.700  19.213  0.00  0.00    +0.000 A 
ATOM     31  O   UNL     1      50.999   4.005  18.282  0.00  0.00    +0.000 OA
ATOM     32  C   UNL     1      49.737   5.868  19.091  0.00  0.00    +0.000 A 
ATOM     33  H   UNL     1      51.594   3.640  20.633  0.00  0.00    +0.000 HD
ENDBRANCH  21  23
ENDBRANCH  18  19
ENDBRANCH   4  18
TORSDOF 7
ENDMDL
MODEL 9
REMARK VINA RESULT:    -6.218      2.985      5.191
REMARK INTER + INTRA:          -9.982
REMARK INTER:                  -8.883
REMARK INTRA:                  -1.098
REMARK UNBOUND:                -1.219
REMARK  Name = 
REMARK  9 active torsions:
REMARK  status: ('A' for Active; 'I' for Inactive)
REMARK    1  A    between atoms: C_1  and  C_2
REMARK    2  A    between atoms: C_2  and  N_3
REMARK    3  A    between atoms: C_2  and  C_11
REMARK    4  A    between atoms: N_3  and  C_4
REMARK    5  A    between atoms: C_4  and  C_5
REMARK    6  A    between atoms: C_14  and  C_15
REMARK    7  A    between atoms: C_15  and  N_16
REMARK    8  A    between atoms: N_16  and  C_17
REMARK    9  A    between atoms: C_18  and  C_20
REMARK                            x       y       z     vdW  Elec       q    Type
REMARK                         _______ _______ _______ _____ _____    ______ ____
ROOT
ATOM      1  C   UNL     1      47.644   8.012  13.541  0.00  0.00    +0.000 A 
ATOM      2  C   UNL     1      47.861   6.708  13.984  0.00  0.00    +0.000 A 
ATOM      3  C   UNL     1      48.531   6.407  15.171  0.00  0.00    +0.000 A 
ATOM      4  C   UNL     1      48.979   7.420  16.015  0.00  0.00    +0.000 A 
ATOM      5  C   UNL     1      48.926   8.731  15.527  0.00  0.00    +0.000 A 
ATOM      6  C   UNL     1      48.282   9.030  14.302  0.00  0.00    +0.000 A 
ENDROOT
BRANCH   1   8
ATOM      7  C   UNL     1      45.397   8.831  12.551  0.00  0.00    +0.000 C 
ATOM      8  C   UNL     1      46.812   8.292  12.273  0.00  0.00    +0.000 C 
BRANCH   8   9
ATOM      9  N   UNL     1      46.681   7.078  11.422  0.00  0.00    +0.000 NA
ATOM     10  H   UNL     1      47.110   7.244  10.517  0.00  0.00    +0.000 HD
BRANCH   9  11
ATOM     11  C   UNL     1      45.300   6.637  11.198  0.00  0.00    +0.000 C 
BRANCH  11  12
ATOM     12  C   UNL     1      45.102   5.136  11.464  0.00  0.00    +0.000 C 
ATOM     13  C   UNL     1      44.709   4.433  10.147  0.00  0.00    +0.000 C 
ATOM     14  C   UNL     1      44.381   2.958  10.360  0.00  0.00    +0.000 C 
ATOM     15  C   UNL     1      43.306   2.779  11.425  0.00  0.00    +0.000 C 
ATOM     16  C   UNL     1      43.718   3.432  12.739  0.00  0.00    +0.000 C 
ATOM     17  C   UNL     1      44.037   4.910  12.548  0.00  0.00    +0.000 C 
ENDBRANCH  11  12
ENDBRANCH   9  11
ENDBRANCH   8   9
ENDBRANCH   1   8
BRANCH   4  18
ATOM     18  C   UNL     1      49.353   7.088  17.447  0.00  0.00    +0.000 C 
BRANCH  18  19
ATOM     19  N   UNL     1      50.555   6.290  17.662  0.00  0.00    +0.000 N 
ATOM     20  C   UNL     1      51.691   6.487  16.775  0.00  0.00    +0.000 C 
ATOM     21  C   UNL     1      50.434   5.160  18.498  0.00  0.00    +0.000 C 
ATOM     22  O   UNL     1      49.378   4.878  19.057  0.00  0.00    +0.000 OA
BRANCH  21  23
ATOM     23  C   UNL     1      51.637   4.341  18.726  0.00  0.00    +0.000 A 
ATOM     24  C   UNL     1      52.699   4.729  19.528  0.00  0.00    +0.000 A 
ATOM     25  S   UNL     1      53.960   3.591  19.634  0.00  0.00    +0.000 S 
ATOM     26  C   UNL     1      53.078   2.489  18.694  0.00  0.00    +0.000 A 
ATOM     27  N   UNL     1      53.578   1.244  18.481  0.00  0.00    +0.000 NA
ATOM     28  C   UNL     1      52.807   0.499  17.764  0.00  0.00    +0.000 A 
ATOM     29  N   UNL     1      51.612   0.890  17.219  0.00  0.00    +0.000 N 
ATOM     30  C   UNL     1      51.109   2.168  17.344  0.00  0.00    +0.000 A 
ATOM     31  O   UNL     1      50.115   2.518  16.712  0.00  0.00    +0.000 OA
ATOM     32  C   UNL     1      51.889   3.013  18.237  0.00  0.00    +0.000 A 
ATOM     33  H   UNL     1      51.104   0.277  16.600  0.00  0.00    +0.000 HD
ENDBRANCH  21  23
ENDBRANCH  18  19
ENDBRANCH   4  18
TORSDOF 7
ENDMDL
