MODEL 1
REMARK VINA RESULT:    -7.479      0.000      0.000
REMARK INTER + INTRA:         -10.210
REMARK INTER:                  -9.665
REMARK INTRA:                  -0.545
REMARK UNBOUND:                -0.545
REMARK  Name = 
REMARK  6 active torsions:
REMARK  status: ('A' for Active; 'I' for Inactive)
REMARK    1  A    between atoms: C_1  and  O_2
REMARK    2  A    between atoms: O_2  and  C_3
REMARK    3  A    between atoms: C_6  and  C_7
REMARK    4  A    between atoms: C_7  and  O_8
REMARK    5  A    between atoms: O_8  and  C_9
REMARK    6  A    between atoms: C_12  and  C_13
REMARK                            x       y       z     vdW  Elec       q    Type
REMARK                         _______ _______ _______ _____ _____    ______ ____
ROOT
ATOM      1  C   UNL     1      44.801   3.807   8.989  0.00  0.00    +0.000 A 
ATOM      2  C   UNL     1      44.884   2.430   9.142  0.00  0.00    +0.000 A 
ATOM      3  C   UNL     1      45.809   1.730   8.369  0.00  0.00    +0.000 A 
ATOM      4  C   UNL     1      46.616   2.431   7.469  0.00  0.00    +0.000 A 
ATOM      5  C   UNL     1      46.449   3.806   7.377  0.00  0.00    +0.000 A 
ATOM      6  N   UNL     1      45.567   4.509   8.128  0.00  0.00    +0.000 NA
ENDROOT
BRANCH   4   7
ATOM      7  C   UNL     1      47.615   1.785   6.596  0.00  0.00    +0.000 C 
ATOM      8  N   UNL     1      48.757   2.484   6.316  0.00  0.00    +0.000 N 
ATOM      9  O   UNL     1      47.418   0.680   6.110  0.00  0.00    +0.000 OA
ATOM     10  H   UNL     1      48.858   3.472   6.497  0.00  0.00    +0.000 HD
ATOM     11  H   UNL     1      49.381   2.067   5.635  0.00  0.00    +0.000 HD
ENDBRANCH   4   7
BRANCH   1  12
ATOM     12  O   UNL     1      43.867   4.465   9.764  0.00  0.00    +0.000 OA
BRANCH  12  13
ATOM     13  C   UNL     1      43.805   3.941  11.092  0.00  0.00    +0.000 C 
BRANCH  13  17
ATOM     14  C   UNL     1      47.078   5.270  13.599  0.00  0.00    +0.000 A 
ATOM     15  C   UNL     1      46.401   6.187  12.795  0.00  0.00    +0.000 A 
ATOM     16  C   UNL     1      45.352   5.765  11.969  0.00  0.00    +0.000 A 
ATOM     17  C   UNL     1      44.976   4.417  11.924  0.00  0.00    +0.000 A 
ATOM     18  C   UNL     1      45.657   3.502  12.739  0.00  0.00    +0.000 A 
ATOM     19  C   UNL     1      46.700   3.926  13.565  0.00  0.00    +0.000 A 
BRANCH  14  21
ATOM     20  C   UNL     1      48.498   6.919  14.543  0.00  0.00    +0.000 C 
ATOM     21  O   UNL     1      48.106   5.555  14.453  0.00  0.00    +0.000 OA
ENDBRANCH  14  21
ENDBRANCH  13  17
ENDBRANCH  12  13
ENDBRANCH   1  12
TORSDOF 5
ENDMDL
MODEL 2
REMARK VINA RESULT:    -7.206      2.331      6.615
REMARK INTER + INTRA:          -9.858
REMARK INTER:                  -9.355
REMARK INTRA:                  -0.503
REMARK UNBOUND:                -0.545
REMARK  Name = 
REMARK  6 active torsions:
REMARK  status: ('A' for Active; 'I' for Inactive)
REMARK    1  A    between atoms: C_1  and  O_2
REMARK    2  A    between atoms: O_2  and  C_3
REMARK    3  A    between atoms: C_6  and  C_7
REMARK    4  A    between atoms: C_7  and  O_8
REMARK    5  A    between atoms: O_8  and  C_9
REMARK    6  A    between atoms: C_12  and  C_13
REMARK                            x       y       z     vdW  Elec       q    Type
REMARK                         _______ _______ _______ _____ _____    ______ ____
ROOT
ATOM      1  C   UNL     1      45.143   3.959  11.911  0.00  0.00    +0.000 A 
ATOM      2  C   UNL     1      45.379   5.308  11.684  0.00  0.00    +0.000 A 
ATOM      3  C   UNL     1      46.304   5.966  12.494  0.00  0.00    +0.000 A 
ATOM      4  C   UNL     1      46.957   5.253  13.502  0.00  0.00    +0.000 A 
ATOM      5  C   UNL     1      46.643   3.910  13.661  0.00  0.00    +0.000 A 
ATOM      6  N   UNL     1      45.759   3.246  12.878  0.00  0.00    +0.000 NA
ENDROOT
BRANCH   4   7
ATOM      7  C   UNL     1      47.942   5.857  14.421  0.00  0.00    +0.000 C 
ATOM      8  N   UNL     1      47.765   5.652  15.761  0.00  0.00    +0.000 N 
ATOM      9  O   UNL     1      48.864   6.545  14.004  0.00  0.00    +0.000 OA
ATOM     10  H   UNL     1      46.907   5.298  16.157  0.00  0.00    +0.000 HD
ATOM     11  H   UNL     1      48.391   6.159  16.378  0.00  0.00    +0.000 HD
ENDBRANCH   4   7
BRANCH   1  12
ATOM     12  O   UNL     1      44.214   3.343  11.097  0.00  0.00    +0.000 OA
BRANCH  12  13
ATOM     13  C   UNL     1      44.137   3.956   9.809  0.00  0.00    +0.000 C 
BRANCH  13  17
ATOM     14  C   UNL     1      47.031   2.113   7.164  0.00  0.00    +0.000 A 
ATOM     15  C   UNL     1      46.811   3.490   7.104  0.00  0.00    +0.000 A 
ATOM     16  C   UNL     1      45.866   4.093   7.943  0.00  0.00    +0.000 A 
ATOM     17  C   UNL     1      45.117   3.326   8.843  0.00  0.00    +0.000 A 
ATOM     18  C   UNL     1      45.349   1.944   8.903  0.00  0.00    +0.000 A 
ATOM     19  C   UNL     1      46.294   1.346   8.068  0.00  0.00    +0.000 A 
BRANCH  14  21
ATOM     20  C   UNL     1      47.477   0.955   5.143  0.00  0.00    +0.000 C 
ATOM     21  O   UNL     1      47.928   1.410   6.411  0.00  0.00    +0.000 OA
ENDBRANCH  14  21
ENDBRANCH  13  17
ENDBRANCH  12  13
ENDBRANCH   1  12
TORSDOF 5
ENDMDL
MODEL 3
REMARK VINA RESULT:    -5.759      3.847      6.064
REMARK INTER + INTRA:          -7.988
REMARK INTER:                  -7.599
REMARK INTRA:                  -0.389
REMARK UNBOUND:                -0.545
REMARK  Name = 
REMARK  6 active torsions:
REMARK  status: ('A' for Active; 'I' for Inactive)
REMARK    1  A    between atoms: C_1  and  O_2
REMARK    2  A    between atoms: O_2  and  C_3
REMARK    3  A    between atoms: C_6  and  C_7
REMARK    4  A    between atoms: C_7  and  O_8
REMARK    5  A    between atoms: O_8  and  C_9
REMARK    6  A    between atoms: C_12  and  C_13
REMARK                            x       y       z     vdW  Elec       q    Type
REMARK                         _______ _______ _______ _____ _____    ______ ____
ROOT
ATOM      1  C   UNL     1      46.751   4.762  13.859  0.00  0.00    +0.000 A 
ATOM      2  C   UNL     1      46.319   5.802  13.048  0.00  0.00    +0.000 A 
ATOM      3  C   UNL     1      45.507   5.497  11.955  0.00  0.00    +0.000 A 
ATOM      4  C   UNL     1      45.161   4.166  11.712  0.00  0.00    +0.000 A 
ATOM      5  C   UNL     1      45.655   3.195  12.572  0.00  0.00    +0.000 A 
ATOM      6  N   UNL     1      46.433   3.468  13.648  0.00  0.00    +0.000 NA
ENDROOT
BRANCH   4   7
ATOM      7  C   UNL     1      44.320   3.737  10.577  0.00  0.00    +0.000 C 
ATOM      8  N   UNL     1      43.992   2.411  10.498  0.00  0.00    +0.000 N 
ATOM      9  O   UNL     1      43.956   4.528   9.718  0.00  0.00    +0.000 OA
ATOM     10  H   UNL     1      44.454   1.695  11.041  0.00  0.00    +0.000 HD
ATOM     11  H   UNL     1      43.502   2.120   9.660  0.00  0.00    +0.000 HD
ENDBRANCH   4   7
BRANCH   1  12
ATOM     12  O   UNL     1      47.561   5.099  14.925  0.00  0.00    +0.000 OA
BRANCH  12  13
ATOM     13  C   UNL     1      47.316   4.276  16.068  0.00  0.00    +0.000 C 
BRANCH  13  17
ATOM     14  C   UNL     1      51.103   2.959  17.707  0.00  0.00    +0.000 A 
ATOM     15  C   UNL     1      50.214   2.025  17.174  0.00  0.00    +0.000 A 
ATOM     16  C   UNL     1      48.980   2.439  16.657  0.00  0.00    +0.000 A 
ATOM     17  C   UNL     1      48.613   3.790  16.679  0.00  0.00    +0.000 A 
ATOM     18  C   UNL     1      49.515   4.723  17.209  0.00  0.00    +0.000 A 
ATOM     19  C   UNL     1      50.746   4.308  17.722  0.00  0.00    +0.000 A 
BRANCH  14  21
ATOM     20  C   UNL     1      52.950   1.473  17.812  0.00  0.00    +0.000 C 
ATOM     21  O   UNL     1      52.336   2.686  18.229  0.00  0.00    +0.000 OA
ENDBRANCH  14  21
ENDBRANCH  13  17
ENDBRANCH  12  13
ENDBRANCH   1  12
TORSDOF 5
ENDMDL
MODEL 4
REMARK VINA RESULT:    -5.668      3.884      7.729
REMARK INTER + INTRA:          -7.870
REMARK INTER:                  -7.526
REMARK INTRA:                  -0.344
REMARK UNBOUND:                -0.545
REMARK  Name = 
REMARK  6 active torsions:
REMARK  status: ('A' for Active; 'I' for Inactive)
REMARK    1  A    between atoms: C_1  and  O_2
REMARK    2  A    between atoms: O_2  and  C_3
REMARK    3  A    between atoms: C_6  and  C_7
REMARK    4  A    between atoms: C_7  and  O_8
REMARK    5  A    between atoms: O_8  and  C_9
REMARK    6  A    between atoms: C_12  and  C_13
REMARK                            x       y       z     vdW  Elec       q    Type
REMARK                         _______ _______ _______ _____ _____    ______ ____
ROOT
ATOM      1  C   UNL     1      47.340   5.058  14.792  0.00  0.00    +0.000 A 
ATOM      2  C   UNL     1      48.128   5.975  15.474  0.00  0.00    +0.000 A 
ATOM      3  C   UNL     1      48.784   5.556  16.631  0.00  0.00    +0.000 A 
ATOM      4  C   UNL     1      48.626   4.237  17.064  0.00  0.00    +0.000 A 
ATOM      5  C   UNL     1      47.806   3.399  16.323  0.00  0.00    +0.000 A 
ATOM      6  N   UNL     1      47.169   3.780  15.189  0.00  0.00    +0.000 NA
ENDROOT
BRANCH   4   7
ATOM      7  C   UNL     1      49.265   3.698  18.281  0.00  0.00    +0.000 C 
ATOM      8  N   UNL     1      48.451   3.144  19.231  0.00  0.00    +0.000 N 
ATOM      9  O   UNL     1      50.474   3.773  18.453  0.00  0.00    +0.000 OA
ATOM     10  H   UNL     1      47.449   3.270  19.240  0.00  0.00    +0.000 HD
ATOM     11  H   UNL     1      48.897   2.874  20.100  0.00  0.00    +0.000 HD
ENDBRANCH   4   7
BRANCH   1  12
ATOM     12  O   UNL     1      46.697   5.511  13.657  0.00  0.00    +0.000 OA
BRANCH  12  13
ATOM     13  C   UNL     1      45.511   4.766  13.377  0.00  0.00    +0.000 C 
BRANCH  13  17
ATOM     14  C   UNL     1      45.080   4.113   9.116  0.00  0.00    +0.000 A 
ATOM     15  C   UNL     1      45.559   5.336   9.587  0.00  0.00    +0.000 A 
ATOM     16  C   UNL     1      45.686   5.563  10.963  0.00  0.00    +0.000 A 
ATOM     17  C   UNL     1      45.322   4.576  11.887  0.00  0.00    +0.000 A 
ATOM     18  C   UNL     1      44.849   3.347  11.406  0.00  0.00    +0.000 A 
ATOM     19  C   UNL     1      44.725   3.122  10.033  0.00  0.00    +0.000 A 
BRANCH  14  21
ATOM     20  C   UNL     1      46.076   3.285   7.129  0.00  0.00    +0.000 C 
ATOM     21  O   UNL     1      44.921   3.765   7.804  0.00  0.00    +0.000 OA
ENDBRANCH  14  21
ENDBRANCH  13  17
ENDBRANCH  12  13
ENDBRANCH   1  12
TORSDOF 5
ENDMDL
MODEL 5
REMARK VINA RESULT:    -5.625      4.364      8.309
REMARK INTER + INTRA:          -7.815
REMARK INTER:                  -7.505
REMARK INTRA:                  -0.310
REMARK UNBOUND:                -0.545
REMARK  Name = 
REMARK  6 active torsions:
REMARK  status: ('A' for Active; 'I' for Inactive)
REMARK    1  A    between atoms: C_1  and  O_2
REMARK    2  A    between atoms: O_2  and  C_3
REMARK    3  A    between atoms: C_6  and  C_7
REMARK    4  A    between atoms: C_7  and  O_8
REMARK    5  A    between atoms: O_8  and  C_9
REMARK    6  A    between atoms: C_12  and  C_13
REMARK                            x       y       z     vdW  Elec       q    Type
REMARK                         _______ _______ _______ _____ _____    ______ ____
ROOT
ATOM      1  C   UNL     1      47.559   4.108  15.733  0.00  0.00    +0.000 A 
ATOM      2  C   UNL     1      47.583   3.180  16.764  0.00  0.00    +0.000 A 
ATOM      3  C   UNL     1      48.310   3.485  17.915  0.00  0.00    +0.000 A 
ATOM      4  C   UNL     1      48.986   4.705  17.991  0.00  0.00    +0.000 A 
ATOM      5  C   UNL     1      48.914   5.561  16.901  0.00  0.00    +0.000 A 
ATOM      6  N   UNL     1      48.204   5.293  15.779  0.00  0.00    +0.000 NA
ENDROOT
BRANCH   4   7
ATOM      7  C   UNL     1      49.793   5.118  19.157  0.00  0.00    +0.000 C 
ATOM      8  N   UNL     1      50.658   4.200  19.684  0.00  0.00    +0.000 N 
ATOM      9  O   UNL     1      49.670   6.228  19.656  0.00  0.00    +0.000 OA
ATOM     10  H   UNL     1      50.624   3.216  19.459  0.00  0.00    +0.000 HD
ATOM     11  H   UNL     1      51.126   4.467  20.543  0.00  0.00    +0.000 HD
ENDBRANCH   4   7
BRANCH   1  12
ATOM     12  O   UNL     1      46.838   3.768  14.605  0.00  0.00    +0.000 OA
BRANCH  12  13
ATOM     13  C   UNL     1      46.149   4.890  14.049  0.00  0.00    +0.000 C 
BRANCH  13  17
ATOM     14  C   UNL     1      44.834   4.222   9.976  0.00  0.00    +0.000 A 
ATOM     15  C   UNL     1      44.703   3.207  10.924  0.00  0.00    +0.000 A 
ATOM     16  C   UNL     1      45.140   3.407  12.239  0.00  0.00    +0.000 A 
ATOM     17  C   UNL     1      45.728   4.619  12.621  0.00  0.00    +0.000 A 
ATOM     18  C   UNL     1      45.849   5.637  11.664  0.00  0.00    +0.000 A 
ATOM     19  C   UNL     1      45.410   5.436  10.354  0.00  0.00    +0.000 A 
BRANCH  14  21
ATOM     20  C   UNL     1      45.268   3.410   7.789  0.00  0.00    +0.000 C 
ATOM     21  O   UNL     1      44.438   4.156   8.669  0.00  0.00    +0.000 OA
ENDBRANCH  14  21
ENDBRANCH  13  17
ENDBRANCH  12  13
ENDBRANCH   1  12
TORSDOF 5
ENDMDL
MODEL 6
REMARK VINA RESULT:    -5.624      2.961      6.683
REMARK INTER + INTRA:          -7.813
REMARK INTER:                  -7.313
REMARK INTRA:                  -0.501
REMARK UNBOUND:                -0.545
REMARK  Name = 
REMARK  6 active torsions:
REMARK  status: ('A' for Active; 'I' for Inactive)
REMARK    1  A    between atoms: C_1  and  O_2
REMARK    2  A    between atoms: O_2  and  C_3
REMARK    3  A    between atoms: C_6  and  C_7
REMARK    4  A    between atoms: C_7  and  O_8
REMARK    5  A    between atoms: O_8  and  C_9
REMARK    6  A    between atoms: C_12  and  C_13
REMARK                            x       y       z     vdW  Elec       q    Type
REMARK                         _______ _______ _______ _____ _____    ______ ____
ROOT
ATOM      1  C   UNL     1      45.798   5.792  12.523  0.00  0.00    +0.000 A 
ATOM      2  C   UNL     1      45.000   6.928  12.502  0.00  0.00    +0.000 A 
ATOM      3  C   UNL     1      45.620   8.176  12.561  0.00  0.00    +0.000 A 
ATOM      4  C   UNL     1      47.013   8.243  12.642  0.00  0.00    +0.000 A 
ATOM      5  C   UNL     1      47.723   7.051  12.672  0.00  0.00    +0.000 A 
ATOM      6  N   UNL     1      47.145   5.828  12.602  0.00  0.00    +0.000 NA
ENDROOT
BRANCH   4   7
ATOM      7  C   UNL     1      47.764   9.511  12.723  0.00  0.00    +0.000 C 
ATOM      8  N   UNL     1      47.945  10.061  13.961  0.00  0.00    +0.000 N 
ATOM      9  O   UNL     1      48.182  10.070  11.717  0.00  0.00    +0.000 OA
ATOM     10  H   UNL     1      47.427   9.767  14.777  0.00  0.00    +0.000 HD
ATOM     11  H   UNL     1      48.372  10.980  13.985  0.00  0.00    +0.000 HD
ENDBRANCH   4   7
BRANCH   1  12
ATOM     12  O   UNL     1      45.150   4.574  12.473  0.00  0.00    +0.000 OA
BRANCH  12  13
ATOM     13  C   UNL     1      44.169   4.529  11.435  0.00  0.00    +0.000 C 
BRANCH  13  17
ATOM     14  C   UNL     1      45.968   2.938   7.830  0.00  0.00    +0.000 A 
ATOM     15  C   UNL     1      45.968   4.315   8.058  0.00  0.00    +0.000 A 
ATOM     16  C   UNL     1      45.375   4.840   9.212  0.00  0.00    +0.000 A 
ATOM     17  C   UNL     1      44.760   3.998  10.147  0.00  0.00    +0.000 A 
ATOM     18  C   UNL     1      44.771   2.616   9.914  0.00  0.00    +0.000 A 
ATOM     19  C   UNL     1      45.366   2.094   8.764  0.00  0.00    +0.000 A 
BRANCH  14  21
ATOM     20  C   UNL     1      47.919   2.047   6.816  0.00  0.00    +0.000 C 
ATOM     21  O   UNL     1      46.522   2.302   6.754  0.00  0.00    +0.000 OA
ENDBRANCH  14  21
ENDBRANCH  13  17
ENDBRANCH  12  13
ENDBRANCH   1  12
TORSDOF 5
ENDMDL
MODEL 7
REMARK VINA RESULT:    -5.606      3.603      5.966
REMARK INTER + INTRA:          -7.790
REMARK INTER:                  -7.420
REMARK INTRA:                  -0.370
REMARK UNBOUND:                -0.545
REMARK  Name = 
REMARK  6 active torsions:
REMARK  status: ('A' for Active; 'I' for Inactive)
REMARK    1  A    between atoms: C_1  and  O_2
REMARK    2  A    between atoms: O_2  and  C_3
REMARK    3  A    between atoms: C_6  and  C_7
REMARK    4  A    between atoms: C_7  and  O_8
REMARK    5  A    between atoms: O_8  and  C_9
REMARK    6  A    between atoms: C_12  and  C_13
REMARK                            x       y       z     vdW  Elec       q    Type
REMARK                         _______ _______ _______ _____ _____    ______ ____
ROOT
ATOM      1  C   UNL     1      46.507   3.812  13.588  0.00  0.00    +0.000 A 
ATOM      2  C   UNL     1      46.381   5.179  13.383  0.00  0.00    +0.000 A 
ATOM      3  C   UNL     1      45.472   5.626  12.424  0.00  0.00    +0.000 A 
ATOM      4  C   UNL     1      44.725   4.690  11.705  0.00  0.00    +0.000 A 
ATOM      5  C   UNL     1      44.932   3.344  11.971  0.00  0.00    +0.000 A 
ATOM      6  N   UNL     1      45.799   2.887  12.907  0.00  0.00    +0.000 NA
ENDROOT
BRANCH   4   7
ATOM      7  C   UNL     1      43.747   5.057  10.661  0.00  0.00    +0.000 C 
ATOM      8  N   UNL     1      44.023   4.680   9.375  0.00  0.00    +0.000 N 
ATOM      9  O   UNL     1      42.743   5.704  10.926  0.00  0.00    +0.000 OA
ATOM     10  H   UNL     1      44.933   4.359   9.078  0.00  0.00    +0.000 HD
ATOM     11  H   UNL     1      43.394   5.030   8.662  0.00  0.00    +0.000 HD
ENDBRANCH   4   7
BRANCH   1  12
ATOM     12  O   UNL     1      47.424   3.406  14.537  0.00  0.00    +0.000 OA
BRANCH  12  13
ATOM     13  C   UNL     1      47.208   4.041  15.799  0.00  0.00    +0.000 C 
BRANCH  13  17
ATOM     14  C   UNL     1      50.807   4.201  18.205  0.00  0.00    +0.000 A 
ATOM     15  C   UNL     1      50.192   5.385  17.793  0.00  0.00    +0.000 A 
ATOM     16  C   UNL     1      49.038   5.344  17.001  0.00  0.00    +0.000 A 
ATOM     17  C   UNL     1      48.491   4.120  16.598  0.00  0.00    +0.000 A 
ATOM     18  C   UNL     1      49.110   2.935  17.022  0.00  0.00    +0.000 A 
ATOM     19  C   UNL     1      50.259   2.978  17.814  0.00  0.00    +0.000 A 
BRANCH  14  21
ATOM     20  C   UNL     1      51.877   4.759  20.247  0.00  0.00    +0.000 C 
ATOM     21  O   UNL     1      51.925   4.107  18.985  0.00  0.00    +0.000 OA
ENDBRANCH  14  21
ENDBRANCH  13  17
ENDBRANCH  12  13
ENDBRANCH   1  12
TORSDOF 5
ENDMDL
MODEL 8
REMARK VINA RESULT:    -5.391      4.472      6.355
REMARK INTER + INTRA:          -7.513
REMARK INTER:                  -7.106
REMARK INTRA:                  -0.406
REMARK UNBOUND:                -0.545
REMARK  Name = 
REMARK  6 active torsions:
REMARK  status: ('A' for Active; 'I' for Inactive)
REMARK    1  A    between atoms: C_1  and  O_2
REMARK    2  A    between atoms: O_2  and  C_3
REMARK    3  A    between atoms: C_6  and  C_7
REMARK    4  A    between atoms: C_7  and  O_8
REMARK    5  A    between atoms: O_8  and  C_9
REMARK    6  A    between atoms: C_12  and  C_13
REMARK                            x       y       z     vdW  Elec       q    Type
REMARK                         _______ _______ _______ _____ _____    ______ ____
ROOT
ATOM      1  C   UNL     1      46.612   5.019  13.577  0.00  0.00    +0.000 A 
ATOM      2  C   UNL     1      46.757   6.141  12.773  0.00  0.00    +0.000 A 
ATOM      3  C   UNL     1      45.657   6.576  12.034  0.00  0.00    +0.000 A 
ATOM      4  C   UNL     1      44.454   5.872  12.123  0.00  0.00    +0.000 A 
ATOM      5  C   UNL     1      44.411   4.753  12.943  0.00  0.00    +0.000 A 
ATOM      6  N   UNL     1      45.462   4.320  13.681  0.00  0.00    +0.000 NA
ENDROOT
BRANCH   4   7
ATOM      7  C   UNL     1      43.237   6.241  11.374  0.00  0.00    +0.000 C 
ATOM      8  N   UNL     1      43.086   7.553  11.018  0.00  0.00    +0.000 N 
ATOM      9  O   UNL     1      42.376   5.412  11.109  0.00  0.00    +0.000 OA
ATOM     10  H   UNL     1      43.642   8.298  11.411  0.00  0.00    +0.000 HD
ATOM     11  H   UNL     1      42.199   7.803  10.596  0.00  0.00    +0.000 HD
ENDBRANCH   4   7
BRANCH   1  12
ATOM     12  O   UNL     1      47.724   4.612  14.286  0.00  0.00    +0.000 OA
BRANCH  12  13
ATOM     13  C   UNL     1      47.400   3.641  15.283  0.00  0.00    +0.000 C 
BRANCH  13  17
ATOM     14  C   UNL     1      48.924   4.691  19.200  0.00  0.00    +0.000 A 
ATOM     15  C   UNL     1      48.668   5.692  18.262  0.00  0.00    +0.000 A 
ATOM     16  C   UNL     1      48.190   5.362  16.988  0.00  0.00    +0.000 A 
ATOM     17  C   UNL     1      47.978   4.025  16.628  0.00  0.00    +0.000 A 
ATOM     18  C   UNL     1      48.231   3.026  17.578  0.00  0.00    +0.000 A 
ATOM     19  C   UNL     1      48.704   3.357  18.849  0.00  0.00    +0.000 A 
BRANCH  14  21
ATOM     20  C   UNL     1      48.398   4.902  21.503  0.00  0.00    +0.000 C 
ATOM     21  O   UNL     1      49.379   4.882  20.475  0.00  0.00    +0.000 OA
ENDBRANCH  14  21
ENDBRANCH  13  17
ENDBRANCH  12  13
ENDBRANCH   1  12
TORSDOF 5
ENDMDL
MODEL 9
REMARK VINA RESULT:    -5.210      3.752      5.846
REMARK INTER + INTRA:          -7.278
REMARK INTER:                  -6.826
REMARK INTRA:                  -0.452
REMARK UNBOUND:                -0.545
REMARK  Name = 
REMARK  6 active torsions:
REMARK  status: ('A' for Active; 'I' for Inactive)
REMARK    1  A    between atoms: C_1  and  O_2
REMARK    2  A    between atoms: O_2  and  C_3
REMARK    3  A    between atoms: C_6  and  C_7
REMARK    4  A    between atoms: C_7  and  O_8
REMARK    5  A    between atoms: O_8  and  C_9
REMARK    6  A    between atoms: C_12  and  C_13
REMARK                            x       y       z     vdW  Elec       q    Type
REMARK                         _______ _______ _______ _____ _____    ______ ____
ROOT
ATOM      1  C   UNL     1      46.388   6.123  12.536  0.00  0.00    +0.000 A 
ATOM      2  C   UNL     1      46.048   6.209  11.192  0.00  0.00    +0.000 A 
ATOM      3  C   UNL     1      45.256   5.201  10.643  0.00  0.00    +0.000 A 
ATOM      4  C   UNL     1      44.835   4.145  11.454  0.00  0.00    +0.000 A 
ATOM      5  C   UNL     1      45.238   4.141  12.782  0.00  0.00    +0.000 A 
ATOM      6  N   UNL     1      45.996   5.115  13.342  0.00  0.00    +0.000 NA
ENDROOT
BRANCH   4   7
ATOM      7  C   UNL     1      44.006   3.024  10.968  0.00  0.00    +0.000 C 
ATOM      8  N   UNL     1      44.501   2.272   9.939  0.00  0.00    +0.000 N 
ATOM      9  O   UNL     1      42.902   2.794  11.443  0.00  0.00    +0.000 OA
ATOM     10  H   UNL     1      45.284   2.561   9.370  0.00  0.00    +0.000 HD
ATOM     11  H   UNL     1      43.875   1.574   9.553  0.00  0.00    +0.000 HD
ENDBRANCH   4   7
BRANCH   1  12
ATOM     12  O   UNL     1      47.181   7.133  13.043  0.00  0.00    +0.000 OA
BRANCH  12  13
ATOM     13  C   UNL     1      47.219   8.272  12.181  0.00  0.00    +0.000 C 
BRANCH  13  17
ATOM     14  C   UNL     1      51.243   9.337  10.983  0.00  0.00    +0.000 A 
ATOM     15  C   UNL     1      50.943   8.016  11.315  0.00  0.00    +0.000 A 
ATOM     16  C   UNL     1      49.650   7.664  11.719  0.00  0.00    +0.000 A 
ATOM     17  C   UNL     1      48.642   8.631  11.812  0.00  0.00    +0.000 A 
ATOM     18  C   UNL     1      48.949   9.956  11.469  0.00  0.00    +0.000 A 
ATOM     19  C   UNL     1      50.239  10.304  11.063  0.00  0.00    +0.000 A 
BRANCH  14  21
ATOM     20  C   UNL     1      53.453   8.829  10.286  0.00  0.00    +0.000 C 
ATOM     21  O   UNL     1      52.457   9.804  10.564  0.00  0.00    +0.000 OA
ENDBRANCH  14  21
ENDBRANCH  13  17
ENDBRANCH  12  13
ENDBRANCH   1  12
TORSDOF 5
ENDMDL
