MODEL 1
REMARK VINA RESULT:    -8.874      0.000      0.000
REMARK INTER + INTRA:         -13.412
REMARK INTER:                 -12.505
REMARK INTRA:                  -0.907
REMARK UNBOUND:                -0.907
REMARK  Name = 
REMARK  7 active torsions:
REMARK  status: ('A' for Active; 'I' for Inactive)
REMARK    1  A    between atoms: C_2  and  C_4
REMARK    2  A    between atoms: C_7  and  O_8
REMARK    3  A    between atoms: O_8  and  C_9
REMARK    4  A    between atoms: C_9  and  C_10
REMARK    5  A    between atoms: C_13  and  C_14
REMARK    6  A    between atoms: C_14  and  N_15
REMARK    7  A    between atoms: C_16  and  C_18
REMARK                            x       y       z     vdW  Elec       q    Type
REMARK                         _______ _______ _______ _____ _____    ______ ____
ROOT
ATOM      1  C   UNL     1      45.085   4.720  11.850  0.00  0.00    +0.000 A 
ATOM      2  C   UNL     1      45.771   4.110  12.908  0.00  0.00    +0.000 A 
ATOM      3  C   UNL     1      46.840   4.760  13.533  0.00  0.00    +0.000 A 
ATOM      4  C   UNL     1      47.230   6.042  13.126  0.00  0.00    +0.000 A 
ATOM      5  C   UNL     1      46.554   6.645  12.055  0.00  0.00    +0.000 A 
ATOM      6  C   UNL     1      45.485   5.995  11.431  0.00  0.00    +0.000 A 
ENDROOT
BRANCH   1   7
ATOM      7  C   UNL     1      43.945   4.007  11.160  0.00  0.00    +0.000 C 
BRANCH   7   8
ATOM      8  O   UNL     1      43.869   4.417   9.792  0.00  0.00    +0.000 OA
BRANCH   8  12
ATOM      9  C   UNL     1      46.591   2.379   7.460  0.00  0.00    +0.000 A 
ATOM     10  C   UNL     1      45.852   1.687   8.422  0.00  0.00    +0.000 A 
ATOM     11  C   UNL     1      44.934   2.386   9.212  0.00  0.00    +0.000 A 
ATOM     12  C   UNL     1      44.793   3.752   9.005  0.00  0.00    +0.000 A 
ATOM     13  N   UNL     1      45.505   4.445   8.094  0.00  0.00    +0.000 NA
ATOM     14  C   UNL     1      46.397   3.748   7.350  0.00  0.00    +0.000 A 
BRANCH   9  16
ATOM     15  N   UNL     1      48.713   2.436   6.281  0.00  0.00    +0.000 N 
ATOM     16  C   UNL     1      47.572   1.739   6.561  0.00  0.00    +0.000 C 
ATOM     17  O   UNL     1      47.399   0.607   6.127  0.00  0.00    +0.000 OA
ATOM     18  H   UNL     1      49.428   1.930   5.772  0.00  0.00    +0.000 HD
ATOM     19  H   UNL     1      49.007   3.238   6.821  0.00  0.00    +0.000 HD
ENDBRANCH   9  16
ENDBRANCH   8  12
ENDBRANCH   7   8
ENDBRANCH   1   7
BRANCH   4  20
ATOM     20  C   UNL     1      48.374   6.755  13.799  0.00  0.00    +0.000 C 
BRANCH  20  21
ATOM     21  N   UNL     1      48.160   6.868  15.218  0.00  0.00    +0.000 N 
ATOM     22  C   UNL     1      49.187   6.692  16.108  0.00  0.00    +0.000 C 
ATOM     23  O   UNL     1      50.339   6.476  15.737  0.00  0.00    +0.000 OA
ATOM     24  H   UNL     1      47.199   6.817  15.544  0.00  0.00    +0.000 HD
BRANCH  22  25
ATOM     25  C   UNL     1      48.856   6.836  17.531  0.00  0.00    +0.000 A 
ATOM     26  C   UNL     1      48.503   8.083  18.031  0.00  0.00    +0.000 A 
ATOM     27  S   UNL     1      48.097   8.066  19.688  0.00  0.00    +0.000 S 
ATOM     28  C   UNL     1      48.434   6.402  19.808  0.00  0.00    +0.000 A 
ATOM     29  N   UNL     1      48.309   5.749  20.995  0.00  0.00    +0.000 NA
ATOM     30  C   UNL     1      48.625   4.498  20.949  0.00  0.00    +0.000 A 
ATOM     31  N   UNL     1      49.048   3.839  19.824  0.00  0.00    +0.000 N 
ATOM     32  C   UNL     1      49.164   4.452  18.599  0.00  0.00    +0.000 A 
ATOM     33  O   UNL     1      49.509   3.823  17.602  0.00  0.00    +0.000 OA
ATOM     34  C   UNL     1      48.831   5.864  18.597  0.00  0.00    +0.000 A 
ATOM     35  H   UNL     1      49.274   2.856  19.853  0.00  0.00    +0.000 HD
ENDBRANCH  22  25
ENDBRANCH  20  21
ENDBRANCH   4  20
TORSDOF 7
ENDMDL
MODEL 2
REMARK VINA RESULT:    -8.745      1.297      1.942
REMARK INTER + INTRA:         -13.231
REMARK INTER:                 -12.035
REMARK INTRA:                  -1.196
REMARK UNBOUND:                -0.907
REMARK  Name = 
REMARK  7 active torsions:
REMARK  status: ('A' for Active; 'I' for Inactive)
REMARK    1  A    between atoms: C_2  and  C_4
REMARK    2  A    between atoms: C_7  and  O_8
REMARK    3  A    between atoms: O_8  and  C_9
REMARK    4  A    between atoms: C_9  and  C_10
REMARK    5  A    between atoms: C_13  and  C_14
REMARK    6  A    between atoms: C_14  and  N_15
REMARK    7  A    between atoms: C_16  and  C_18
REMARK                            x       y       z     vdW  Elec       q    Type
REMARK                         _______ _______ _______ _____ _____    ______ ____
ROOT
ATOM      1  C   UNL     1      44.880   4.826  11.988  0.00  0.00    +0.000 A 
ATOM      2  C   UNL     1      45.701   4.048  12.815  0.00  0.00    +0.000 A 
ATOM      3  C   UNL     1      46.758   4.632  13.522  0.00  0.00    +0.000 A 
ATOM      4  C   UNL     1      46.999   6.009  13.432  0.00  0.00    +0.000 A 
ATOM      5  C   UNL     1      46.187   6.784  12.592  0.00  0.00    +0.000 A 
ATOM      6  C   UNL     1      45.131   6.200  11.885  0.00  0.00    +0.000 A 
ENDROOT
BRANCH   1   7
ATOM      7  C   UNL     1      43.754   4.190  11.207  0.00  0.00    +0.000 C 
BRANCH   7   8
ATOM      8  O   UNL     1      43.788   4.637   9.849  0.00  0.00    +0.000 OA
BRANCH   8  12
ATOM      9  C   UNL     1      46.496   2.465   7.623  0.00  0.00    +0.000 A 
ATOM     10  C   UNL     1      45.659   1.807   8.526  0.00  0.00    +0.000 A 
ATOM     11  C   UNL     1      44.747   2.551   9.280  0.00  0.00    +0.000 A 
ATOM     12  C   UNL     1      44.708   3.926   9.099  0.00  0.00    +0.000 A 
ATOM     13  N   UNL     1      45.516   4.587   8.245  0.00  0.00    +0.000 NA
ATOM     14  C   UNL     1      46.400   3.847   7.535  0.00  0.00    +0.000 A 
BRANCH   9  16
ATOM     15  N   UNL     1      48.597   2.481   6.406  0.00  0.00    +0.000 N 
ATOM     16  C   UNL     1      47.482   1.778   6.765  0.00  0.00    +0.000 C 
ATOM     17  O   UNL     1      47.335   0.609   6.431  0.00  0.00    +0.000 OA
ATOM     18  H   UNL     1      49.319   1.953   5.930  0.00  0.00    +0.000 HD
ATOM     19  H   UNL     1      48.876   3.334   6.871  0.00  0.00    +0.000 HD
ENDBRANCH   9  16
ENDBRANCH   8  12
ENDBRANCH   7   8
ENDBRANCH   1   7
BRANCH   4  20
ATOM     20  C   UNL     1      48.128   6.649  14.197  0.00  0.00    +0.000 C 
BRANCH  20  21
ATOM     21  N   UNL     1      47.990   6.435  15.614  0.00  0.00    +0.000 N 
ATOM     22  C   UNL     1      49.078   6.154  16.399  0.00  0.00    +0.000 C 
ATOM     23  O   UNL     1      50.218   6.118  15.943  0.00  0.00    +0.000 OA
ATOM     24  H   UNL     1      47.056   6.237  15.961  0.00  0.00    +0.000 HD
BRANCH  22  25
ATOM     25  C   UNL     1      48.822   5.961  17.832  0.00  0.00    +0.000 A 
ATOM     26  C   UNL     1      49.088   4.730  18.418  0.00  0.00    +0.000 A 
ATOM     27  S   UNL     1      48.786   4.691  20.097  0.00  0.00    +0.000 S 
ATOM     28  C   UNL     1      48.236   6.302  20.088  0.00  0.00    +0.000 A 
ATOM     29  N   UNL     1      47.794   6.893  21.231  0.00  0.00    +0.000 NA
ATOM     30  C   UNL     1      47.378   8.106  21.076  0.00  0.00    +0.000 A 
ATOM     31  N   UNL     1      47.370   8.782  19.884  0.00  0.00    +0.000 N 
ATOM     32  C   UNL     1      47.831   8.234  18.710  0.00  0.00    +0.000 A 
ATOM     33  O   UNL     1      47.845   8.881  17.667  0.00  0.00    +0.000 OA
ATOM     34  C   UNL     1      48.301   6.867  18.828  0.00  0.00    +0.000 A 
ATOM     35  H   UNL     1      47.037   9.733  19.830  0.00  0.00    +0.000 HD
ENDBRANCH  22  25
ENDBRANCH  20  21
ENDBRANCH   4  20
TORSDOF 7
ENDMDL
MODEL 3
REMARK VINA RESULT:    -8.021      2.143      2.939
REMARK INTER + INTRA:         -12.211
REMARK INTER:                 -11.268
REMARK INTRA:                  -0.943
REMARK UNBOUND:                -0.907
REMARK  Name = 
REMARK  7 active torsions:
REMARK  status: ('A' for Active; 'I' for Inactive)
REMARK    1  A    between atoms: C_2  and  C_4
REMARK    2  A    between atoms: C_7  and  O_8
REMARK    3  A    between atoms: O_8  and  C_9
REMARK    4  A    between atoms: C_9  and  C_10
REMARK    5  A    between atoms: C_13  and  C_14
REMARK    6  A    between atoms: C_14  and  N_15
REMARK    7  A    between atoms: C_16  and  C_18
REMARK                            x       y       z     vdW  Elec       q    Type
REMARK                         _______ _______ _______ _____ _____    ______ ____
ROOT
ATOM      1  C   UNL     1      44.917   4.692  11.768  0.00  0.00    +0.000 A 
ATOM      2  C   UNL     1      45.089   6.012  11.332  0.00  0.00    +0.000 A 
ATOM      3  C   UNL     1      45.985   6.866  11.986  0.00  0.00    +0.000 A 
ATOM      4  C   UNL     1      46.740   6.409  13.072  0.00  0.00    +0.000 A 
ATOM      5  C   UNL     1      46.555   5.092  13.518  0.00  0.00    +0.000 A 
ATOM      6  C   UNL     1      45.660   4.239  12.865  0.00  0.00    +0.000 A 
ENDROOT
BRANCH   1   7
ATOM      7  C   UNL     1      43.932   3.777  11.076  0.00  0.00    +0.000 C 
BRANCH   7   8
ATOM      8  O   UNL     1      43.793   4.156   9.705  0.00  0.00    +0.000 OA
BRANCH   8  12
ATOM      9  C   UNL     1      46.648   2.337   7.349  0.00  0.00    +0.000 A 
ATOM     10  C   UNL     1      45.989   1.596   8.332  0.00  0.00    +0.000 A 
ATOM     11  C   UNL     1      45.026   2.221   9.130  0.00  0.00    +0.000 A 
ATOM     12  C   UNL     1      44.759   3.565   8.909  0.00  0.00    +0.000 A 
ATOM     13  N   UNL     1      45.391   4.306   7.977  0.00  0.00    +0.000 NA
ATOM     14  C   UNL     1      46.330   3.682   7.226  0.00  0.00    +0.000 A 
BRANCH   9  16
ATOM     15  N   UNL     1      48.851   2.448   6.335  0.00  0.00    +0.000 N 
ATOM     16  C   UNL     1      47.667   1.775   6.440  0.00  0.00    +0.000 C 
ATOM     17  O   UNL     1      47.483   0.721   5.846  0.00  0.00    +0.000 OA
ATOM     18  H   UNL     1      49.582   1.979   5.812  0.00  0.00    +0.000 HD
ATOM     19  H   UNL     1      49.135   3.156   6.998  0.00  0.00    +0.000 HD
ENDBRANCH   9  16
ENDBRANCH   8  12
ENDBRANCH   7   8
ENDBRANCH   1   7
BRANCH   4  20
ATOM     20  C   UNL     1      47.714   7.318  13.776  0.00  0.00    +0.000 C 
BRANCH  20  21
ATOM     21  N   UNL     1      48.610   6.572  14.623  0.00  0.00    +0.000 N 
ATOM     22  C   UNL     1      49.011   7.063  15.838  0.00  0.00    +0.000 C 
ATOM     23  O   UNL     1      48.592   8.131  16.279  0.00  0.00    +0.000 OA
ATOM     24  H   UNL     1      49.134   5.818  14.188  0.00  0.00    +0.000 HD
BRANCH  22  25
ATOM     25  C   UNL     1      49.921   6.217  16.620  0.00  0.00    +0.000 A 
ATOM     26  C   UNL     1      49.400   5.301  17.526  0.00  0.00    +0.000 A 
ATOM     27  S   UNL     1      50.589   4.362  18.310  0.00  0.00    +0.000 S 
ATOM     28  C   UNL     1      51.844   5.185  17.508  0.00  0.00    +0.000 A 
ATOM     29  N   UNL     1      53.147   4.877  17.752  0.00  0.00    +0.000 NA
ATOM     30  C   UNL     1      53.995   5.599  17.098  0.00  0.00    +0.000 A 
ATOM     31  N   UNL     1      53.659   6.596  16.219  0.00  0.00    +0.000 N 
ATOM     32  C   UNL     1      52.357   6.924  15.923  0.00  0.00    +0.000 A 
ATOM     33  O   UNL     1      52.091   7.797  15.102  0.00  0.00    +0.000 OA
ATOM     34  C   UNL     1      51.363   6.148  16.640  0.00  0.00    +0.000 A 
ATOM     35  H   UNL     1      54.371   7.121  15.734  0.00  0.00    +0.000 HD
ENDBRANCH  22  25
ENDBRANCH  20  21
ENDBRANCH   4  20
TORSDOF 7
ENDMDL
MODEL 4
REMARK VINA RESULT:    -7.682      3.044      9.029
REMARK INTER + INTRA:         -11.732
REMARK INTER:                 -10.354
REMARK INTRA:                  -1.378
REMARK UNBOUND:                -0.907
REMARK  Name = 
REMARK  7 active torsions:
REMARK  status: ('A' for Active; 'I' for Inactive)
REMARK    1  A    between atoms: C_2  and  C_4
REMARK    2  A    between atoms: C_7  and  O_8
REMARK    3  A    between atoms: O_8  and  C_9
REMARK    4  A    between atoms: C_9  and  C_10
REMARK    5  A    between atoms: C_13  and  C_14
REMARK    6  A    between atoms: C_14  and  N_15
REMARK    7  A    between atoms: C_16  and  C_18
REMARK                            x       y       z     vdW  Elec       q    Type
REMARK                         _______ _______ _______ _____ _____    ______ ____
ROOT
ATOM      1  C   UNL     1      49.578   8.313  15.903  0.00  0.00    +0.000 A 
ATOM      2  C   UNL     1      48.304   8.837  15.649  0.00  0.00    +0.000 A 
ATOM      3  C   UNL     1      47.736   8.741  14.374  0.00  0.00    +0.000 A 
ATOM      4  C   UNL     1      48.424   8.102  13.335  0.00  0.00    +0.000 A 
ATOM      5  C   UNL     1      49.706   7.593  13.585  0.00  0.00    +0.000 A 
ATOM      6  C   UNL     1      50.273   7.688  14.860  0.00  0.00    +0.000 A 
ENDROOT
BRANCH   1   7
ATOM      7  C   UNL     1      50.200   8.438  17.275  0.00  0.00    +0.000 C 
BRANCH   7   8
ATOM      8  O   UNL     1      49.496   7.613  18.207  0.00  0.00    +0.000 OA
BRANCH   8  12
ATOM      9  C   UNL     1      49.911   3.605  17.328  0.00  0.00    +0.000 A 
ATOM     10  C   UNL     1      48.641   4.186  17.318  0.00  0.00    +0.000 A 
ATOM     11  C   UNL     1      48.508   5.544  17.622  0.00  0.00    +0.000 A 
ATOM     12  C   UNL     1      49.655   6.268  17.922  0.00  0.00    +0.000 A 
ATOM     13  N   UNL     1      50.889   5.727  17.953  0.00  0.00    +0.000 NA
ATOM     14  C   UNL     1      50.991   4.407  17.669  0.00  0.00    +0.000 A 
BRANCH   9  16
ATOM     15  N   UNL     1      51.027   1.506  17.821  0.00  0.00    +0.000 N 
ATOM     16  C   UNL     1      50.168   2.187  17.006  0.00  0.00    +0.000 C 
ATOM     17  O   UNL     1      49.595   1.627  16.081  0.00  0.00    +0.000 OA
ATOM     18  H   UNL     1      51.088   0.507  17.664  0.00  0.00    +0.000 HD
ATOM     19  H   UNL     1      51.304   1.851  18.730  0.00  0.00    +0.000 HD
ENDBRANCH   9  16
ENDBRANCH   8  12
ENDBRANCH   7   8
ENDBRANCH   1   7
BRANCH   4  20
ATOM     20  C   UNL     1      47.817   7.985  11.961  0.00  0.00    +0.000 C 
BRANCH  20  21
ATOM     21  N   UNL     1      47.067   6.763  11.819  0.00  0.00    +0.000 N 
ATOM     22  C   UNL     1      45.698   6.761  11.870  0.00  0.00    +0.000 C 
ATOM     23  O   UNL     1      45.049   7.798  11.990  0.00  0.00    +0.000 OA
ATOM     24  H   UNL     1      47.576   5.893  11.948  0.00  0.00    +0.000 HD
BRANCH  22  25
ATOM     25  C   UNL     1      45.037   5.460  11.708  0.00  0.00    +0.000 A 
ATOM     26  C   UNL     1      44.350   4.900  12.778  0.00  0.00    +0.000 A 
ATOM     27  S   UNL     1      43.596   3.416  12.406  0.00  0.00    +0.000 S 
ATOM     28  C   UNL     1      44.208   3.443  10.818  0.00  0.00    +0.000 A 
ATOM     29  N   UNL     1      43.947   2.425   9.954  0.00  0.00    +0.000 NA
ATOM     30  C   UNL     1      44.497   2.559   8.793  0.00  0.00    +0.000 A 
ATOM     31  N   UNL     1      45.278   3.621   8.416  0.00  0.00    +0.000 N 
ATOM     32  C   UNL     1      45.546   4.683   9.247  0.00  0.00    +0.000 A 
ATOM     33  O   UNL     1      46.218   5.637   8.865  0.00  0.00    +0.000 OA
ATOM     34  C   UNL     1      44.959   4.577  10.570  0.00  0.00    +0.000 A 
ATOM     35  H   UNL     1      45.675   3.670   7.490  0.00  0.00    +0.000 HD
ENDBRANCH  22  25
ENDBRANCH  20  21
ENDBRANCH   4  20
TORSDOF 7
ENDMDL
MODEL 5
REMARK VINA RESULT:    -7.626      4.607      5.680
REMARK INTER + INTRA:         -11.653
REMARK INTER:                 -10.534
REMARK INTRA:                  -1.120
REMARK UNBOUND:                -0.907
REMARK  Name = 
REMARK  7 active torsions:
REMARK  status: ('A' for Active; 'I' for Inactive)
REMARK    1  A    between atoms: C_2  and  C_4
REMARK    2  A    between atoms: C_7  and  O_8
REMARK    3  A    between atoms: O_8  and  C_9
REMARK    4  A    between atoms: C_9  and  C_10
REMARK    5  A    between atoms: C_13  and  C_14
REMARK    6  A    between atoms: C_14  and  N_15
REMARK    7  A    between atoms: C_16  and  C_18
REMARK                            x       y       z     vdW  Elec       q    Type
REMARK                         _______ _______ _______ _____ _____    ______ ____
ROOT
ATOM      1  C   UNL     1      44.752   4.669  11.643  0.00  0.00    +0.000 A 
ATOM      2  C   UNL     1      45.824   4.744  12.542  0.00  0.00    +0.000 A 
ATOM      3  C   UNL     1      46.350   5.983  12.923  0.00  0.00    +0.000 A 
ATOM      4  C   UNL     1      45.798   7.172  12.429  0.00  0.00    +0.000 A 
ATOM      5  C   UNL     1      44.736   7.097  11.517  0.00  0.00    +0.000 A 
ATOM      6  C   UNL     1      44.211   5.858  11.136  0.00  0.00    +0.000 A 
ENDROOT
BRANCH   1   7
ATOM      7  C   UNL     1      44.200   3.330  11.215  0.00  0.00    +0.000 C 
BRANCH   7   8
ATOM      8  O   UNL     1      43.756   3.396   9.857  0.00  0.00    +0.000 OA
BRANCH   8  12
ATOM      9  C   UNL     1      46.739   2.307   7.226  0.00  0.00    +0.000 A 
ATOM     10  C   UNL     1      46.223   1.361   8.114  0.00  0.00    +0.000 A 
ATOM     11  C   UNL     1      45.216   1.740   9.006  0.00  0.00    +0.000 A 
ATOM     12  C   UNL     1      44.763   3.051   8.972  0.00  0.00    +0.000 A 
ATOM     13  N   UNL     1      45.255   3.987   8.134  0.00  0.00    +0.000 NA
ATOM     14  C   UNL     1      46.239   3.600   7.289  0.00  0.00    +0.000 A 
BRANCH   9  16
ATOM     15  N   UNL     1      48.931   2.761   6.286  0.00  0.00    +0.000 N 
ATOM     16  C   UNL     1      47.790   2.013   6.231  0.00  0.00    +0.000 C 
ATOM     17  O   UNL     1      47.669   1.101   5.423  0.00  0.00    +0.000 OA
ATOM     18  H   UNL     1      49.689   2.459   5.684  0.00  0.00    +0.000 HD
ATOM     19  H   UNL     1      49.173   3.327   7.088  0.00  0.00    +0.000 HD
ENDBRANCH   9  16
ENDBRANCH   8  12
ENDBRANCH   7   8
ENDBRANCH   1   7
BRANCH   4  20
ATOM     20  C   UNL     1      46.351   8.512  12.840  0.00  0.00    +0.000 C 
BRANCH  20  21
ATOM     21  N   UNL     1      47.520   8.856  12.072  0.00  0.00    +0.000 N 
ATOM     22  C   UNL     1      48.226  10.002  12.329  0.00  0.00    +0.000 C 
ATOM     23  O   UNL     1      47.926  10.759  13.250  0.00  0.00    +0.000 OA
ATOM     24  H   UNL     1      47.645   8.378  11.184  0.00  0.00    +0.000 HD
BRANCH  22  25
ATOM     25  C   UNL     1      49.404  10.251  11.489  0.00  0.00    +0.000 A 
ATOM     26  C   UNL     1      49.439  11.371  10.668  0.00  0.00    +0.000 A 
ATOM     27  S   UNL     1      50.899  11.539   9.801  0.00  0.00    +0.000 S 
ATOM     28  C   UNL     1      51.512  10.090  10.450  0.00  0.00    +0.000 A 
ATOM     29  N   UNL     1      52.741   9.631  10.089  0.00  0.00    +0.000 NA
ATOM     30  C   UNL     1      53.069   8.506  10.633  0.00  0.00    +0.000 A 
ATOM     31  N   UNL     1      52.282   7.803  11.509  0.00  0.00    +0.000 N 
ATOM     32  C   UNL     1      51.046   8.241  11.920  0.00  0.00    +0.000 A 
ATOM     33  O   UNL     1      50.384   7.606  12.736  0.00  0.00    +0.000 OA
ATOM     34  C   UNL     1      50.625   9.498  11.330  0.00  0.00    +0.000 A 
ATOM     35  H   UNL     1      52.600   6.931  11.905  0.00  0.00    +0.000 HD
ENDBRANCH  22  25
ENDBRANCH  20  21
ENDBRANCH   4  20
TORSDOF 7
ENDMDL
MODEL 6
REMARK VINA RESULT:    -7.292      3.247      5.036
REMARK INTER + INTRA:         -11.183
REMARK INTER:                 -10.127
REMARK INTRA:                  -1.056
REMARK UNBOUND:                -0.907
REMARK  Name = 
REMARK  7 active torsions:
REMARK  status: ('A' for Active; 'I' for Inactive)
REMARK    1  A    between atoms: C_2  and  C_4
REMARK    2  A    between atoms: C_7  and  O_8
REMARK    3  A    between atoms: O_8  and  C_9
REMARK    4  A    between atoms: C_9  and  C_10
REMARK    5  A    between atoms: C_13  and  C_14
REMARK    6  A    between atoms: C_14  and  N_15
REMARK    7  A    between atoms: C_16  and  C_18
REMARK                            x       y       z     vdW  Elec       q    Type
REMARK                         _______ _______ _______ _____ _____    ______ ____
ROOT
ATOM      1  C   UNL     1      44.671   5.271  11.676  0.00  0.00    +0.000 A 
ATOM      2  C   UNL     1      45.059   4.328  12.638  0.00  0.00    +0.000 A 
ATOM      3  C   UNL     1      46.107   4.604  13.523  0.00  0.00    +0.000 A 
ATOM      4  C   UNL     1      46.772   5.835  13.476  0.00  0.00    +0.000 A 
ATOM      5  C   UNL     1      46.395   6.771  12.503  0.00  0.00    +0.000 A 
ATOM      6  C   UNL     1      45.347   6.496  11.619  0.00  0.00    +0.000 A 
ENDROOT
BRANCH   1   7
ATOM      7  C   UNL     1      43.555   4.963  10.706  0.00  0.00    +0.000 C 
BRANCH   7   8
ATOM      8  O   UNL     1      43.561   3.571  10.378  0.00  0.00    +0.000 OA
BRANCH   8  12
ATOM      9  C   UNL     1      46.478   2.735   7.586  0.00  0.00    +0.000 A 
ATOM     10  C   UNL     1      45.928   4.016   7.646  0.00  0.00    +0.000 A 
ATOM     11  C   UNL     1      44.936   4.291   8.593  0.00  0.00    +0.000 A 
ATOM     12  C   UNL     1      44.536   3.269   9.443  0.00  0.00    +0.000 A 
ATOM     13  N   UNL     1      45.042   2.020   9.396  0.00  0.00    +0.000 NA
ATOM     14  C   UNL     1      45.991   1.775   8.462  0.00  0.00    +0.000 A 
BRANCH   9  16
ATOM     15  N   UNL     1      47.609   3.018   5.456  0.00  0.00    +0.000 N 
ATOM     16  C   UNL     1      47.542   2.341   6.641  0.00  0.00    +0.000 C 
ATOM     17  O   UNL     1      48.365   1.480   6.926  0.00  0.00    +0.000 OA
ATOM     18  H   UNL     1      48.420   2.825   4.881  0.00  0.00    +0.000 HD
ATOM     19  H   UNL     1      47.128   3.893   5.302  0.00  0.00    +0.000 HD
ENDBRANCH   9  16
ENDBRANCH   8  12
ENDBRANCH   7   8
ENDBRANCH   1   7
BRANCH   4  20
ATOM     20  C   UNL     1      47.896   6.146  14.431  0.00  0.00    +0.000 C 
BRANCH  20  21
ATOM     21  N   UNL     1      48.542   7.389  14.096  0.00  0.00    +0.000 N 
ATOM     22  C   UNL     1      49.798   7.684  14.559  0.00  0.00    +0.000 C 
ATOM     23  O   UNL     1      50.445   6.889  15.237  0.00  0.00    +0.000 OA
ATOM     24  H   UNL     1      47.950   8.134  13.741  0.00  0.00    +0.000 HD
BRANCH  22  25
ATOM     25  C   UNL     1      50.362   8.976  14.150  0.00  0.00    +0.000 A 
ATOM     26  C   UNL     1      50.716   9.908  15.117  0.00  0.00    +0.000 A 
ATOM     27  S   UNL     1      51.405  11.331  14.476  0.00  0.00    +0.000 S 
ATOM     28  C   UNL     1      51.203  10.774  12.881  0.00  0.00    +0.000 A 
ATOM     29  N   UNL     1      51.575  11.542  11.822  0.00  0.00    +0.000 NA
ATOM     30  C   UNL     1      51.338  11.011  10.669  0.00  0.00    +0.000 A 
ATOM     31  N   UNL     1      50.768   9.778  10.480  0.00  0.00    +0.000 N 
ATOM     32  C   UNL     1      50.400   8.957  11.520  0.00  0.00    +0.000 A 
ATOM     33  O   UNL     1      49.927   7.843  11.315  0.00  0.00    +0.000 OA
ATOM     34  C   UNL     1      50.636   9.513  12.839  0.00  0.00    +0.000 A 
ATOM     35  H   UNL     1      50.614   9.415   9.551  0.00  0.00    +0.000 HD
ENDBRANCH  22  25
ENDBRANCH  20  21
ENDBRANCH   4  20
TORSDOF 7
ENDMDL
MODEL 7
REMARK VINA RESULT:    -7.156      3.980      8.983
REMARK INTER + INTRA:         -10.992
REMARK INTER:                  -9.583
REMARK INTRA:                  -1.409
REMARK UNBOUND:                -0.907
REMARK  Name = 
REMARK  7 active torsions:
REMARK  status: ('A' for Active; 'I' for Inactive)
REMARK    1  A    between atoms: C_2  and  C_4
REMARK    2  A    between atoms: C_7  and  O_8
REMARK    3  A    between atoms: O_8  and  C_9
REMARK    4  A    between atoms: C_9  and  C_10
REMARK    5  A    between atoms: C_13  and  C_14
REMARK    6  A    between atoms: C_14  and  N_15
REMARK    7  A    between atoms: C_16  and  C_18
REMARK                            x       y       z     vdW  Elec       q    Type
REMARK                         _______ _______ _______ _____ _____    ______ ____
ROOT
ATOM      1  C   UNL     1      50.190   7.901  18.143  0.00  0.00    +0.000 A 
ATOM      2  C   UNL     1      48.929   8.512  18.175  0.00  0.00    +0.000 A 
ATOM      3  C   UNL     1      48.271   8.848  16.987  0.00  0.00    +0.000 A 
ATOM      4  C   UNL     1      48.851   8.559  15.746  0.00  0.00    +0.000 A 
ATOM      5  C   UNL     1      50.120   7.963  15.715  0.00  0.00    +0.000 A 
ATOM      6  C   UNL     1      50.778   7.627  16.902  0.00  0.00    +0.000 A 
ENDROOT
BRANCH   1   7
ATOM      7  C   UNL     1      50.911   7.560  19.427  0.00  0.00    +0.000 C 
BRANCH   7   8
ATOM      8  O   UNL     1      50.260   6.465  20.077  0.00  0.00    +0.000 OA
BRANCH   8  12
ATOM      9  C   UNL     1      50.378   3.032  17.795  0.00  0.00    +0.000 A 
ATOM     10  C   UNL     1      49.145   3.562  18.183  0.00  0.00    +0.000 A 
ATOM     11  C   UNL     1      49.114   4.723  18.960  0.00  0.00    +0.000 A 
ATOM     12  C   UNL     1      50.320   5.310  19.318  0.00  0.00    +0.000 A 
ATOM     13  N   UNL     1      51.523   4.810  18.969  0.00  0.00    +0.000 NA
ATOM     14  C   UNL     1      51.528   3.677  18.227  0.00  0.00    +0.000 A 
BRANCH   9  16
ATOM     15  N   UNL     1      51.451   0.898  17.358  0.00  0.00    +0.000 N 
ATOM     16  C   UNL     1      50.527   1.823  16.961  0.00  0.00    +0.000 C 
ATOM     17  O   UNL     1      49.817   1.628  15.983  0.00  0.00    +0.000 OA
ATOM     18  H   UNL     1      51.446   0.021  16.851  0.00  0.00    +0.000 HD
ATOM     19  H   UNL     1      51.856   0.897  18.285  0.00  0.00    +0.000 HD
ENDBRANCH   9  16
ENDBRANCH   8  12
ENDBRANCH   7   8
ENDBRANCH   1   7
BRANCH   4  20
ATOM     20  C   UNL     1      48.146   8.908  14.461  0.00  0.00    +0.000 C 
BRANCH  20  21
ATOM     21  N   UNL     1      47.218   7.876  14.074  0.00  0.00    +0.000 N 
ATOM     22  C   UNL     1      47.578   6.890  13.194  0.00  0.00    +0.000 C 
ATOM     23  O   UNL     1      48.715   6.813  12.733  0.00  0.00    +0.000 OA
ATOM     24  H   UNL     1      46.234   8.050  14.258  0.00  0.00    +0.000 HD
BRANCH  22  25
ATOM     25  C   UNL     1      46.555   5.887  12.876  0.00  0.00    +0.000 A 
ATOM     26  C   UNL     1      46.794   4.548  13.156  0.00  0.00    +0.000 A 
ATOM     27  S   UNL     1      45.484   3.523  12.775  0.00  0.00    +0.000 S 
ATOM     28  C   UNL     1      44.572   4.827  12.170  0.00  0.00    +0.000 A 
ATOM     29  N   UNL     1      43.330   4.628  11.653  0.00  0.00    +0.000 NA
ATOM     30  C   UNL     1      42.763   5.698  11.202  0.00  0.00    +0.000 A 
ATOM     31  N   UNL     1      43.324   6.948  11.228  0.00  0.00    +0.000 N 
ATOM     32  C   UNL     1      44.565   7.201  11.764  0.00  0.00    +0.000 A 
ATOM     33  O   UNL     1      45.022   8.340  11.806  0.00  0.00    +0.000 OA
ATOM     34  C   UNL     1      45.250   6.028  12.275  0.00  0.00    +0.000 A 
ATOM     35  H   UNL     1      42.826   7.747  10.865  0.00  0.00    +0.000 HD
ENDBRANCH  22  25
ENDBRANCH  20  21
ENDBRANCH   4  20
TORSDOF 7
ENDMDL
MODEL 8
REMARK VINA RESULT:    -7.065      4.128      5.306
REMARK INTER + INTRA:         -10.864
REMARK INTER:                  -9.914
REMARK INTRA:                  -0.949
REMARK UNBOUND:                -0.907
REMARK  Name = 
REMARK  7 active torsions:
REMARK  status: ('A' for Active; 'I' for Inactive)
REMARK    1  A    between atoms: C_2  and  C_4
REMARK    2  A    between atoms: C_7  and  O_8
REMARK    3  A    between atoms: O_8  and  C_9
REMARK    4  A    between atoms: C_9  and  C_10
REMARK    5  A    between atoms: C_13  and  C_14
REMARK    6  A    between atoms: C_14  and  N_15
REMARK    7  A    between atoms: C_16  and  C_18
REMARK                            x       y       z     vdW  Elec       q    Type
REMARK                         _______ _______ _______ _____ _____    ______ ____
ROOT
ATOM      1  C   UNL     1      44.960   4.501  11.927  0.00  0.00    +0.000 A 
ATOM      2  C   UNL     1      44.835   5.755  11.314  0.00  0.00    +0.000 A 
ATOM      3  C   UNL     1      45.516   6.866  11.824  0.00  0.00    +0.000 A 
ATOM      4  C   UNL     1      46.349   6.740  12.942  0.00  0.00    +0.000 A 
ATOM      5  C   UNL     1      46.460   5.488  13.564  0.00  0.00    +0.000 A 
ATOM      6  C   UNL     1      45.781   4.377  13.055  0.00  0.00    +0.000 A 
ENDROOT
BRANCH   1   7
ATOM      7  C   UNL     1      44.207   3.306  11.390  0.00  0.00    +0.000 C 
BRANCH   7   8
ATOM      8  O   UNL     1      43.803   3.548  10.040  0.00  0.00    +0.000 OA
BRANCH   8  12
ATOM      9  C   UNL     1      46.630   2.252   7.332  0.00  0.00    +0.000 A 
ATOM     10  C   UNL     1      46.239   3.592   7.333  0.00  0.00    +0.000 A 
ATOM     11  C   UNL     1      45.277   4.023   8.251  0.00  0.00    +0.000 A 
ATOM     12  C   UNL     1      44.745   3.093   9.134  0.00  0.00    +0.000 A 
ATOM     13  N   UNL     1      45.095   1.791   9.143  0.00  0.00    +0.000 NA
ATOM     14  C   UNL     1      46.019   1.395   8.236  0.00  0.00    +0.000 A 
BRANCH   9  16
ATOM     15  N   UNL     1      47.280   0.633   5.644  0.00  0.00    +0.000 N 
ATOM     16  C   UNL     1      47.649   1.694   6.420  0.00  0.00    +0.000 C 
ATOM     17  O   UNL     1      48.763   2.193   6.323  0.00  0.00    +0.000 OA
ATOM     18  H   UNL     1      47.946   0.349   4.935  0.00  0.00    +0.000 HD
ATOM     19  H   UNL     1      46.314   0.370   5.504  0.00  0.00    +0.000 HD
ENDBRANCH   9  16
ENDBRANCH   8  12
ENDBRANCH   7   8
ENDBRANCH   1   7
BRANCH   4  20
ATOM     20  C   UNL     1      47.093   7.929  13.492  0.00  0.00    +0.000 C 
BRANCH  20  21
ATOM     21  N   UNL     1      48.316   8.164  12.768  0.00  0.00    +0.000 N 
ATOM     22  C   UNL     1      49.504   7.625  13.187  0.00  0.00    +0.000 C 
ATOM     23  O   UNL     1      49.574   6.883  14.164  0.00  0.00    +0.000 OA
ATOM     24  H   UNL     1      48.320   8.940  12.112  0.00  0.00    +0.000 HD
BRANCH  22  25
ATOM     25  C   UNL     1      50.686   7.925  12.370  0.00  0.00    +0.000 A 
ATOM     26  C   UNL     1      50.760   7.452  11.066  0.00  0.00    +0.000 A 
ATOM     27  S   UNL     1      52.172   7.935  10.240  0.00  0.00    +0.000 S 
ATOM     28  C   UNL     1      52.761   8.747  11.614  0.00  0.00    +0.000 A 
ATOM     29  N   UNL     1      53.968   9.375  11.589  0.00  0.00    +0.000 NA
ATOM     30  C   UNL     1      54.305   9.925  12.708  0.00  0.00    +0.000 A 
ATOM     31  N   UNL     1      53.542   9.910  13.847  0.00  0.00    +0.000 N 
ATOM     32  C   UNL     1      52.306   9.311  13.911  0.00  0.00    +0.000 A 
ATOM     33  O   UNL     1      51.632   9.349  14.937  0.00  0.00    +0.000 OA
ATOM     34  C   UNL     1      51.884   8.668  12.681  0.00  0.00    +0.000 A 
ATOM     35  H   UNL     1      53.861  10.365  14.690  0.00  0.00    +0.000 HD
ENDBRANCH  22  25
ENDBRANCH  20  21
ENDBRANCH   4  20
TORSDOF 7
ENDMDL
MODEL 9
REMARK VINA RESULT:    -6.863      5.082      7.288
REMARK INTER + INTRA:         -10.578
REMARK INTER:                  -9.417
REMARK INTRA:                  -1.161
REMARK UNBOUND:                -0.907
REMARK  Name = 
REMARK  7 active torsions:
REMARK  status: ('A' for Active; 'I' for Inactive)
REMARK    1  A    between atoms: C_2  and  C_4
REMARK    2  A    between atoms: C_7  and  O_8
REMARK    3  A    between atoms: O_8  and  C_9
REMARK    4  A    between atoms: C_9  and  C_10
REMARK    5  A    between atoms: C_13  and  C_14
REMARK    6  A    between atoms: C_14  and  N_15
REMARK    7  A    between atoms: C_16  and  C_18
REMARK                            x       y       z     vdW  Elec       q    Type
REMARK                         _______ _______ _______ _____ _____    ______ ____
ROOT
ATOM      1  C   UNL     1      44.605   8.913  11.522  0.00  0.00    +0.000 A 
ATOM      2  C   UNL     1      44.032   7.720  11.064  0.00  0.00    +0.000 A 
ATOM      3  C   UNL     1      44.440   6.488  11.586  0.00  0.00    +0.000 A 
ATOM      4  C   UNL     1      45.413   6.428  12.591  0.00  0.00    +0.000 A 
ATOM      5  C   UNL     1      45.999   7.621  13.037  0.00  0.00    +0.000 A 
ATOM      6  C   UNL     1      45.591   8.852  12.516  0.00  0.00    +0.000 A 
ENDROOT
BRANCH   1   7
ATOM      7  C   UNL     1      44.181  10.242  10.941  0.00  0.00    +0.000 C 
BRANCH   7   8
ATOM      8  O   UNL     1      43.558  11.040  11.951  0.00  0.00    +0.000 OA
BRANCH   8  12
ATOM      9  C   UNL     1      39.477  11.207  11.381  0.00  0.00    +0.000 A 
ATOM     10  C   UNL     1      40.292  10.663  10.386  0.00  0.00    +0.000 A 
ATOM     11  C   UNL     1      41.675  10.615  10.585  0.00  0.00    +0.000 A 
ATOM     12  C   UNL     1      42.188  11.112  11.775  0.00  0.00    +0.000 A 
ATOM     13  N   UNL     1      41.424  11.655  12.745  0.00  0.00    +0.000 NA
ATOM     14  C   UNL     1      40.089  11.704  12.524  0.00  0.00    +0.000 A 
BRANCH   9  16
ATOM     15  N   UNL     1      37.335  11.781  12.368  0.00  0.00    +0.000 N 
ATOM     16  C   UNL     1      38.007  11.292  11.285  0.00  0.00    +0.000 C 
ATOM     17  O   UNL     1      37.414  10.988  10.257  0.00  0.00    +0.000 OA
ATOM     18  H   UNL     1      36.345  11.955  12.236  0.00  0.00    +0.000 HD
ATOM     19  H   UNL     1      37.798  12.282  13.115  0.00  0.00    +0.000 HD
ENDBRANCH   9  16
ENDBRANCH   8  12
ENDBRANCH   7   8
ENDBRANCH   1   7
BRANCH   4  20
ATOM     20  C   UNL     1      45.853   5.106  13.166  0.00  0.00    +0.000 C 
BRANCH  20  21
ATOM     21  N   UNL     1      46.510   5.279  14.437  0.00  0.00    +0.000 N 
ATOM     22  C   UNL     1      47.218   4.258  15.014  0.00  0.00    +0.000 C 
ATOM     23  O   UNL     1      47.365   3.172  14.458  0.00  0.00    +0.000 OA
ATOM     24  H   UNL     1      46.215   6.069  15.004  0.00  0.00    +0.000 HD
BRANCH  22  25
ATOM     25  C   UNL     1      47.852   4.547  16.307  0.00  0.00    +0.000 A 
ATOM     26  C   UNL     1      47.500   3.804  17.426  0.00  0.00    +0.000 A 
ATOM     27  S   UNL     1      48.367   4.230  18.832  0.00  0.00    +0.000 S 
ATOM     28  C   UNL     1      49.203   5.461  18.006  0.00  0.00    +0.000 A 
ATOM     29  N   UNL     1      50.105   6.247  18.654  0.00  0.00    +0.000 NA
ATOM     30  C   UNL     1      50.644   7.160  17.916  0.00  0.00    +0.000 A 
ATOM     31  N   UNL     1      50.366   7.354  16.587  0.00  0.00    +0.000 N 
ATOM     32  C   UNL     1      49.482   6.568  15.886  0.00  0.00    +0.000 A 
ATOM     33  O   UNL     1      49.285   6.745  14.687  0.00  0.00    +0.000 OA
ATOM     34  C   UNL     1      48.841   5.532  16.673  0.00  0.00    +0.000 A 
ATOM     35  H   UNL     1      50.826   8.083  16.063  0.00  0.00    +0.000 HD
ENDBRANCH  22  25
ENDBRANCH  20  21
ENDBRANCH   4  20
TORSDOF 7
ENDMDL
