MODEL 1
REMARK VINA RESULT:    -8.252      0.000      0.000
REMARK INTER + INTRA:         -12.353
REMARK INTER:                 -11.146
REMARK INTRA:                  -1.206
REMARK UNBOUND:                -1.206
REMARK  Name = 
REMARK  6 active torsions:
REMARK  status: ('A' for Active; 'I' for Inactive)
REMARK    1  A    between atoms: C_2  and  C_25
REMARK    2  A    between atoms: N_3  and  C_4
REMARK    3  A    between atoms: C_4  and  C_5
REMARK    4  A    between atoms: C_8  and  C_9
REMARK    5  A    between atoms: C_9  and  N_10
REMARK    6  A    between atoms: C_11  and  C_13
REMARK                            x       y       z     vdW  Elec       q    Type
REMARK                         _______ _______ _______ _____ _____    ______ ____
ROOT
ATOM      1  C   UNL     1      44.891   5.691  10.838  0.00  0.00    +0.000 A 
ATOM      2  C   UNL     1      44.311   6.199  12.008  0.00  0.00    +0.000 A 
ATOM      3  C   UNL     1      45.046   7.021  12.869  0.00  0.00    +0.000 A 
ATOM      4  C   UNL     1      46.369   7.367  12.567  0.00  0.00    +0.000 A 
ATOM      5  C   UNL     1      46.950   6.853  11.400  0.00  0.00    +0.000 A 
ATOM      6  C   UNL     1      46.216   6.033  10.538  0.00  0.00    +0.000 A 
ENDROOT
BRANCH   1   7
ATOM      7  C   UNL     1      44.103   4.796   9.918  0.00  0.00    +0.000 C 
BRANCH   7  10
ATOM      8  O   UNL     1      45.113   2.221   9.764  0.00  0.00    +0.000 OA
ATOM      9  C   UNL     1      45.344   2.991   8.838  0.00  0.00    +0.000 C 
ATOM     10  N   UNL     1      44.906   4.300   8.823  0.00  0.00    +0.000 N 
ATOM     11  H   UNL     1      44.932   4.838   7.967  0.00  0.00    +0.000 HD
BRANCH   9  12
ATOM     12  C   UNL     1      46.092   2.517   7.650  0.00  0.00    +0.000 A 
ATOM     13  C   UNL     1      46.694   1.258   7.710  0.00  0.00    +0.000 A 
ATOM     14  C   UNL     1      47.410   0.826   6.609  0.00  0.00    +0.000 A 
ATOM     15  N   UNL     1      47.568   1.560   5.487  0.00  0.00    +0.000 NA
ATOM     16  C   UNL     1      46.993   2.782   5.466  0.00  0.00    +0.000 A 
ATOM     17  C   UNL     1      46.249   3.303   6.511  0.00  0.00    +0.000 A 
ENDBRANCH   9  12
ENDBRANCH   7  10
ENDBRANCH   1   7
BRANCH   4  18
ATOM     18  C   UNL     1      47.170   8.246  13.492  0.00  0.00    +0.000 C 
BRANCH  18  19
ATOM     19  N   UNL     1      47.583   7.534  14.675  0.00  0.00    +0.000 N 
ATOM     20  C   UNL     1      48.781   6.868  14.714  0.00  0.00    +0.000 C 
ATOM     21  O   UNL     1      49.568   6.892  13.771  0.00  0.00    +0.000 OA
ATOM     22  H   UNL     1      46.866   7.318  15.361  0.00  0.00    +0.000 HD
BRANCH  20  23
ATOM     23  C   UNL     1      49.112   6.172  15.965  0.00  0.00    +0.000 A 
ATOM     24  C   UNL     1      50.198   6.595  16.719  0.00  0.00    +0.000 A 
ATOM     25  S   UNL     1      50.410   5.718  18.167  0.00  0.00    +0.000 S 
ATOM     26  C   UNL     1      49.089   4.707  17.811  0.00  0.00    +0.000 A 
ATOM     27  N   UNL     1      48.734   3.700  18.653  0.00  0.00    +0.000 NA
ATOM     28  C   UNL     1      47.736   2.988  18.244  0.00  0.00    +0.000 A 
ATOM     29  N   UNL     1      47.059   3.197  17.070  0.00  0.00    +0.000 N 
ATOM     30  C   UNL     1      47.363   4.220  16.203  0.00  0.00    +0.000 A 
ATOM     31  O   UNL     1      46.712   4.403  15.180  0.00  0.00    +0.000 OA
ATOM     32  C   UNL     1      48.485   5.043  16.612  0.00  0.00    +0.000 A 
ATOM     33  H   UNL     1      46.283   2.608  16.810  0.00  0.00    +0.000 HD
ENDBRANCH  20  23
ENDBRANCH  18  19
ENDBRANCH   4  18
TORSDOF 6
ENDMDL
MODEL 2
REMARK VINA RESULT:    -7.891      1.168      1.452
REMARK INTER + INTRA:         -11.866
REMARK INTER:                 -11.151
REMARK INTRA:                  -0.715
REMARK UNBOUND:                -1.206
REMARK  Name = 
REMARK  6 active torsions:
REMARK  status: ('A' for Active; 'I' for Inactive)
REMARK    1  A    between atoms: C_2  and  C_25
REMARK    2  A    between atoms: N_3  and  C_4
REMARK    3  A    between atoms: C_4  and  C_5
REMARK    4  A    between atoms: C_8  and  C_9
REMARK    5  A    between atoms: C_9  and  N_10
REMARK    6  A    between atoms: C_11  and  C_13
REMARK                            x       y       z     vdW  Elec       q    Type
REMARK                         _______ _______ _______ _____ _____    ______ ____
ROOT
ATOM      1  C   UNL     1      45.097   4.530  11.336  0.00  0.00    +0.000 A 
ATOM      2  C   UNL     1      45.547   4.288  12.641  0.00  0.00    +0.000 A 
ATOM      3  C   UNL     1      46.290   5.254  13.329  0.00  0.00    +0.000 A 
ATOM      4  C   UNL     1      46.578   6.488  12.734  0.00  0.00    +0.000 A 
ATOM      5  C   UNL     1      46.133   6.727  11.427  0.00  0.00    +0.000 A 
ATOM      6  C   UNL     1      45.390   5.763  10.739  0.00  0.00    +0.000 A 
ENDROOT
BRANCH   1   7
ATOM      7  C   UNL     1      44.309   3.485  10.591  0.00  0.00    +0.000 C 
BRANCH   7  10
ATOM      8  O   UNL     1      44.676   4.244   7.952  0.00  0.00    +0.000 OA
ATOM      9  C   UNL     1      45.255   3.239   8.353  0.00  0.00    +0.000 C 
ATOM     10  N   UNL     1      45.126   2.763   9.642  0.00  0.00    +0.000 N 
ATOM     11  H   UNL     1      45.768   2.066   9.996  0.00  0.00    +0.000 HD
BRANCH   9  12
ATOM     12  C   UNL     1      46.171   2.503   7.450  0.00  0.00    +0.000 A 
ATOM     13  C   UNL     1      46.558   3.120   6.259  0.00  0.00    +0.000 A 
ATOM     14  C   UNL     1      47.394   2.423   5.406  0.00  0.00    +0.000 A 
ATOM     15  N   UNL     1      47.845   1.176   5.659  0.00  0.00    +0.000 NA
ATOM     16  C   UNL     1      47.437   0.596   6.809  0.00  0.00    +0.000 A 
ATOM     17  C   UNL     1      46.608   1.211   7.732  0.00  0.00    +0.000 A 
ENDBRANCH   9  12
ENDBRANCH   7  10
ENDBRANCH   1   7
BRANCH   4  18
ATOM     18  C   UNL     1      47.382   7.531  13.466  0.00  0.00    +0.000 C 
BRANCH  18  19
ATOM     19  N   UNL     1      47.706   7.107  14.805  0.00  0.00    +0.000 N 
ATOM     20  C   UNL     1      49.008   6.911  15.188  0.00  0.00    +0.000 C 
ATOM     21  O   UNL     1      49.948   7.135  14.428  0.00  0.00    +0.000 OA
ATOM     22  H   UNL     1      46.954   6.709  15.360  0.00  0.00    +0.000 HD
BRANCH  20  23
ATOM     23  C   UNL     1      49.234   6.479  16.573  0.00  0.00    +0.000 A 
ATOM     24  C   UNL     1      49.911   7.316  17.451  0.00  0.00    +0.000 A 
ATOM     25  S   UNL     1      50.039   6.690  19.033  0.00  0.00    +0.000 S 
ATOM     26  C   UNL     1      49.243   5.254  18.586  0.00  0.00    +0.000 A 
ATOM     27  N   UNL     1      49.041   4.258  19.491  0.00  0.00    +0.000 NA
ATOM     28  C   UNL     1      48.457   3.211  19.010  0.00  0.00    +0.000 A 
ATOM     29  N   UNL     1      48.053   3.073  17.707  0.00  0.00    +0.000 N 
ATOM     30  C   UNL     1      48.209   4.064  16.767  0.00  0.00    +0.000 A 
ATOM     31  O   UNL     1      47.800   3.923  15.618  0.00  0.00    +0.000 OA
ATOM     32  C   UNL     1      48.870   5.259  17.254  0.00  0.00    +0.000 A 
ATOM     33  H   UNL     1      47.595   2.230  17.395  0.00  0.00    +0.000 HD
ENDBRANCH  20  23
ENDBRANCH  18  19
ENDBRANCH   4  18
TORSDOF 6
ENDMDL
MODEL 3
REMARK VINA RESULT:    -7.809      2.427      2.889
REMARK INTER + INTRA:         -11.754
REMARK INTER:                 -10.705
REMARK INTRA:                  -1.049
REMARK UNBOUND:                -1.206
REMARK  Name = 
REMARK  6 active torsions:
REMARK  status: ('A' for Active; 'I' for Inactive)
REMARK    1  A    between atoms: C_2  and  C_25
REMARK    2  A    between atoms: N_3  and  C_4
REMARK    3  A    between atoms: C_4  and  C_5
REMARK    4  A    between atoms: C_8  and  C_9
REMARK    5  A    between atoms: C_9  and  N_10
REMARK    6  A    between atoms: C_11  and  C_13
REMARK                            x       y       z     vdW  Elec       q    Type
REMARK                         _______ _______ _______ _____ _____    ______ ____
ROOT
ATOM      1  C   UNL     1      45.412   4.640  11.744  0.00  0.00    +0.000 A 
ATOM      2  C   UNL     1      45.963   4.075  12.902  0.00  0.00    +0.000 A 
ATOM      3  C   UNL     1      46.869   4.798  13.686  0.00  0.00    +0.000 A 
ATOM      4  C   UNL     1      47.226   6.106  13.338  0.00  0.00    +0.000 A 
ATOM      5  C   UNL     1      46.680   6.667  12.175  0.00  0.00    +0.000 A 
ATOM      6  C   UNL     1      45.773   5.947  11.392  0.00  0.00    +0.000 A 
ENDROOT
BRANCH   1   7
ATOM      7  C   UNL     1      44.447   3.857  10.894  0.00  0.00    +0.000 C 
BRANCH   7  10
ATOM      8  O   UNL     1      44.993   4.580   8.275  0.00  0.00    +0.000 OA
ATOM      9  C   UNL     1      45.364   3.477   8.662  0.00  0.00    +0.000 C 
ATOM     10  N   UNL     1      45.126   3.010   9.940  0.00  0.00    +0.000 N 
ATOM     11  H   UNL     1      45.618   2.197  10.286  0.00  0.00    +0.000 HD
BRANCH   9  12
ATOM     12  C   UNL     1      46.137   2.596   7.755  0.00  0.00    +0.000 A 
ATOM     13  C   UNL     1      46.563   3.121   6.532  0.00  0.00    +0.000 A 
ATOM     14  C   UNL     1      47.263   2.292   5.677  0.00  0.00    +0.000 A 
ATOM     15  N   UNL     1      47.549   1.002   5.955  0.00  0.00    +0.000 NA
ATOM     16  C   UNL     1      47.106   0.515   7.136  0.00  0.00    +0.000 A 
ATOM     17  C   UNL     1      46.403   1.264   8.064  0.00  0.00    +0.000 A 
ENDBRANCH   9  12
ENDBRANCH   7  10
ENDBRANCH   1   7
BRANCH   4  18
ATOM     18  C   UNL     1      48.206   6.889  14.173  0.00  0.00    +0.000 C 
BRANCH  18  19
ATOM     19  N   UNL     1      48.028   6.632  15.580  0.00  0.00    +0.000 N 
ATOM     20  C   UNL     1      49.094   6.299  16.376  0.00  0.00    +0.000 C 
ATOM     21  O   UNL     1      50.242   6.256  15.939  0.00  0.00    +0.000 OA
ATOM     22  H   UNL     1      47.083   6.443  15.901  0.00  0.00    +0.000 HD
BRANCH  20  23
ATOM     23  C   UNL     1      48.809   6.055  17.797  0.00  0.00    +0.000 A 
ATOM     24  C   UNL     1      49.085   4.811  18.349  0.00  0.00    +0.000 A 
ATOM     25  S   UNL     1      48.749   4.713  20.018  0.00  0.00    +0.000 S 
ATOM     26  C   UNL     1      48.172   6.313  20.051  0.00  0.00    +0.000 A 
ATOM     27  N   UNL     1      47.698   6.860  21.202  0.00  0.00    +0.000 NA
ATOM     28  C   UNL     1      47.259   8.069  21.077  0.00  0.00    +0.000 A 
ATOM     29  N   UNL     1      47.257   8.781  19.905  0.00  0.00    +0.000 N 
ATOM     30  C   UNL     1      47.754   8.279  18.725  0.00  0.00    +0.000 A 
ATOM     31  O   UNL     1      47.773   8.957  17.703  0.00  0.00    +0.000 OA
ATOM     32  C   UNL     1      48.249   6.919  18.810  0.00  0.00    +0.000 A 
ATOM     33  H   UNL     1      46.905   9.726  19.876  0.00  0.00    +0.000 HD
ENDBRANCH  20  23
ENDBRANCH  18  19
ENDBRANCH   4  18
TORSDOF 6
ENDMDL
MODEL 4
REMARK VINA RESULT:    -7.732      3.398      6.087
REMARK INTER + INTRA:         -11.650
REMARK INTER:                 -10.662
REMARK INTRA:                  -0.988
REMARK UNBOUND:                -1.206
REMARK  Name = 
REMARK  6 active torsions:
REMARK  status: ('A' for Active; 'I' for Inactive)
REMARK    1  A    between atoms: C_2  and  C_25
REMARK    2  A    between atoms: N_3  and  C_4
REMARK    3  A    between atoms: C_4  and  C_5
REMARK    4  A    between atoms: C_8  and  C_9
REMARK    5  A    between atoms: C_9  and  N_10
REMARK    6  A    between atoms: C_11  and  C_13
REMARK                            x       y       z     vdW  Elec       q    Type
REMARK                         _______ _______ _______ _____ _____    ______ ____
ROOT
ATOM      1  C   UNL     1      46.867   2.118   6.531  0.00  0.00    +0.000 A 
ATOM      2  C   UNL     1      46.406   3.440   6.573  0.00  0.00    +0.000 A 
ATOM      3  C   UNL     1      45.646   3.897   7.655  0.00  0.00    +0.000 A 
ATOM      4  C   UNL     1      45.350   3.045   8.728  0.00  0.00    +0.000 A 
ATOM      5  C   UNL     1      45.807   1.721   8.681  0.00  0.00    +0.000 A 
ATOM      6  C   UNL     1      46.567   1.264   7.601  0.00  0.00    +0.000 A 
ENDROOT
BRANCH   1   7
ATOM      7  C   UNL     1      47.674   1.624   5.360  0.00  0.00    +0.000 C 
BRANCH   7  10
ATOM      8  O   UNL     1      46.475   0.788   3.006  0.00  0.00    +0.000 OA
ATOM      9  C   UNL     1      46.796  -0.064   3.828  0.00  0.00    +0.000 C 
ATOM     10  N   UNL     1      47.381   0.245   5.041  0.00  0.00    +0.000 N 
ATOM     11  H   UNL     1      47.817  -0.479   5.597  0.00  0.00    +0.000 HD
BRANCH   9  12
ATOM     12  C   UNL     1      46.596  -1.500   3.522  0.00  0.00    +0.000 A 
ATOM     13  C   UNL     1      46.634  -2.411   4.581  0.00  0.00    +0.000 A 
ATOM     14  C   UNL     1      46.471  -3.752   4.291  0.00  0.00    +0.000 A 
ATOM     15  N   UNL     1      46.288  -4.229   3.042  0.00  0.00    +0.000 NA
ATOM     16  C   UNL     1      46.278  -3.328   2.035  0.00  0.00    +0.000 A 
ATOM     17  C   UNL     1      46.425  -1.964   2.220  0.00  0.00    +0.000 A 
ENDBRANCH   9  12
ENDBRANCH   7  10
ENDBRANCH   1   7
BRANCH   4  18
ATOM     18  C   UNL     1      44.528   3.527   9.894  0.00  0.00    +0.000 C 
BRANCH  18  19
ATOM     19  N   UNL     1      45.092   4.713  10.488  0.00  0.00    +0.000 N 
ATOM     20  C   UNL     1      44.320   5.562  11.238  0.00  0.00    +0.000 C 
ATOM     21  O   UNL     1      43.138   5.325  11.475  0.00  0.00    +0.000 OA
ATOM     22  H   UNL     1      45.984   5.035  10.123  0.00  0.00    +0.000 HD
BRANCH  20  23
ATOM     23  C   UNL     1      44.988   6.744  11.800  0.00  0.00    +0.000 A 
ATOM     24  C   UNL     1      44.591   8.012  11.398  0.00  0.00    +0.000 A 
ATOM     25  S   UNL     1      45.427   9.273  12.185  0.00  0.00    +0.000 S 
ATOM     26  C   UNL     1      46.387   8.167  13.052  0.00  0.00    +0.000 A 
ATOM     27  N   UNL     1      47.348   8.601  13.911  0.00  0.00    +0.000 NA
ATOM     28  C   UNL     1      48.026   7.656  14.475  0.00  0.00    +0.000 A 
ATOM     29  N   UNL     1      47.826   6.317  14.259  0.00  0.00    +0.000 N 
ATOM     30  C   UNL     1      46.847   5.833  13.423  0.00  0.00    +0.000 A 
ATOM     31  O   UNL     1      46.668   4.627  13.282  0.00  0.00    +0.000 OA
ATOM     32  C   UNL     1      46.064   6.855  12.756  0.00  0.00    +0.000 A 
ATOM     33  H   UNL     1      48.386   5.628  14.736  0.00  0.00    +0.000 HD
ENDBRANCH  20  23
ENDBRANCH  18  19
ENDBRANCH   4  18
TORSDOF 6
ENDMDL
MODEL 5
REMARK VINA RESULT:    -7.361      1.934      2.594
REMARK INTER + INTRA:         -11.149
REMARK INTER:                 -10.625
REMARK INTRA:                  -0.524
REMARK UNBOUND:                -1.206
REMARK  Name = 
REMARK  6 active torsions:
REMARK  status: ('A' for Active; 'I' for Inactive)
REMARK    1  A    between atoms: C_2  and  C_25
REMARK    2  A    between atoms: N_3  and  C_4
REMARK    3  A    between atoms: C_4  and  C_5
REMARK    4  A    between atoms: C_8  and  C_9
REMARK    5  A    between atoms: C_9  and  N_10
REMARK    6  A    between atoms: C_11  and  C_13
REMARK                            x       y       z     vdW  Elec       q    Type
REMARK                         _______ _______ _______ _____ _____    ______ ____
ROOT
ATOM      1  C   UNL     1      44.840   4.869  11.234  0.00  0.00    +0.000 A 
ATOM      2  C   UNL     1      45.541   4.216  12.257  0.00  0.00    +0.000 A 
ATOM      3  C   UNL     1      46.418   4.925  13.085  0.00  0.00    +0.000 A 
ATOM      4  C   UNL     1      46.596   6.304  12.920  0.00  0.00    +0.000 A 
ATOM      5  C   UNL     1      45.899   6.955  11.892  0.00  0.00    +0.000 A 
ATOM      6  C   UNL     1      45.021   6.248  11.065  0.00  0.00    +0.000 A 
ENDROOT
BRANCH   1   7
ATOM      7  C   UNL     1      43.906   4.103  10.335  0.00  0.00    +0.000 C 
BRANCH   7  10
ATOM      8  O   UNL     1      45.459   4.952   8.204  0.00  0.00    +0.000 OA
ATOM      9  C   UNL     1      45.378   3.747   8.420  0.00  0.00    +0.000 C 
ATOM     10  N   UNL     1      44.616   3.216   9.442  0.00  0.00    +0.000 N 
ATOM     11  H   UNL     1      44.735   2.251   9.719  0.00  0.00    +0.000 HD
BRANCH   9  12
ATOM     12  C   UNL     1      46.150   2.793   7.589  0.00  0.00    +0.000 A 
ATOM     13  C   UNL     1      46.354   1.503   8.084  0.00  0.00    +0.000 A 
ATOM     14  C   UNL     1      47.094   0.622   7.318  0.00  0.00    +0.000 A 
ATOM     15  N   UNL     1      47.638   0.945   6.126  0.00  0.00    +0.000 NA
ATOM     16  C   UNL     1      47.444   2.206   5.682  0.00  0.00    +0.000 A 
ATOM     17  C   UNL     1      46.712   3.161   6.368  0.00  0.00    +0.000 A 
ENDBRANCH   9  12
ENDBRANCH   7  10
ENDBRANCH   1   7
BRANCH   4  18
ATOM     18  C   UNL     1      47.543   7.073  13.803  0.00  0.00    +0.000 C 
BRANCH  18  19
ATOM     19  N   UNL     1      48.084   6.244  14.850  0.00  0.00    +0.000 N 
ATOM     20  C   UNL     1      48.750   6.796  15.914  0.00  0.00    +0.000 C 
ATOM     21  O   UNL     1      48.868   8.012  16.045  0.00  0.00    +0.000 OA
ATOM     22  H   UNL     1      48.193   5.254  14.649  0.00  0.00    +0.000 HD
BRANCH  20  23
ATOM     23  C   UNL     1      49.265   5.867  16.929  0.00  0.00    +0.000 A 
ATOM     24  C   UNL     1      48.375   5.173  17.739  0.00  0.00    +0.000 A 
ATOM     25  S   UNL     1      49.131   4.096  18.823  0.00  0.00    +0.000 S 
ATOM     26  C   UNL     1      50.678   4.557  18.286  0.00  0.00    +0.000 A 
ATOM     27  N   UNL     1      51.798   4.015  18.835  0.00  0.00    +0.000 NA
ATOM     28  C   UNL     1      52.905   4.480  18.359  0.00  0.00    +0.000 A 
ATOM     29  N   UNL     1      52.992   5.436  17.379  0.00  0.00    +0.000 N 
ATOM     30  C   UNL     1      51.888   5.990  16.775  0.00  0.00    +0.000 A 
ATOM     31  O   UNL     1      52.001   6.815  15.874  0.00  0.00    +0.000 OA
ATOM     32  C   UNL     1      50.618   5.508  17.283  0.00  0.00    +0.000 A 
ATOM     33  H   UNL     1      53.890   5.753  17.046  0.00  0.00    +0.000 HD
ENDBRANCH  20  23
ENDBRANCH  18  19
ENDBRANCH   4  18
TORSDOF 6
ENDMDL
MODEL 6
REMARK VINA RESULT:    -7.354      3.483      6.328
REMARK INTER + INTRA:         -11.140
REMARK INTER:                 -10.167
REMARK INTRA:                  -0.973
REMARK UNBOUND:                -1.206
REMARK  Name = 
REMARK  6 active torsions:
REMARK  status: ('A' for Active; 'I' for Inactive)
REMARK    1  A    between atoms: C_2  and  C_25
REMARK    2  A    between atoms: N_3  and  C_4
REMARK    3  A    between atoms: C_4  and  C_5
REMARK    4  A    between atoms: C_8  and  C_9
REMARK    5  A    between atoms: C_9  and  N_10
REMARK    6  A    between atoms: C_11  and  C_13
REMARK                            x       y       z     vdW  Elec       q    Type
REMARK                         _______ _______ _______ _____ _____    ______ ____
ROOT
ATOM      1  C   UNL     1      46.688   2.094   6.497  0.00  0.00    +0.000 A 
ATOM      2  C   UNL     1      46.340   3.423   6.773  0.00  0.00    +0.000 A 
ATOM      3  C   UNL     1      45.722   3.761   7.982  0.00  0.00    +0.000 A 
ATOM      4  C   UNL     1      45.458   2.781   8.946  0.00  0.00    +0.000 A 
ATOM      5  C   UNL     1      45.801   1.451   8.665  0.00  0.00    +0.000 A 
ATOM      6  C   UNL     1      46.420   1.112   7.459  0.00  0.00    +0.000 A 
ENDROOT
BRANCH   1   7
ATOM      7  C   UNL     1      47.342   1.729   5.190  0.00  0.00    +0.000 C 
BRANCH   7  10
ATOM      8  O   UNL     1      46.530   0.664   2.764  0.00  0.00    +0.000 OA
ATOM      9  C   UNL     1      46.849  -0.110   3.661  0.00  0.00    +0.000 C 
ATOM     10  N   UNL     1      47.249   0.313   4.913  0.00  0.00    +0.000 N 
ATOM     11  H   UNL     1      47.698  -0.330   5.551  0.00  0.00    +0.000 HD
BRANCH   9  12
ATOM     12  C   UNL     1      46.853  -1.571   3.410  0.00  0.00    +0.000 A 
ATOM     13  C   UNL     1      46.587  -2.425   4.483  0.00  0.00    +0.000 A 
ATOM     14  C   UNL     1      46.615  -3.787   4.253  0.00  0.00    +0.000 A 
ATOM     15  N   UNL     1      46.896  -4.335   3.052  0.00  0.00    +0.000 NA
ATOM     16  C   UNL     1      47.170  -3.486   2.037  0.00  0.00    +0.000 A 
ATOM     17  C   UNL     1      47.161  -2.107   2.162  0.00  0.00    +0.000 A 
ENDBRANCH   9  12
ENDBRANCH   7  10
ENDBRANCH   1   7
BRANCH   4  18
ATOM     18  C   UNL     1      44.787   3.135  10.247  0.00  0.00    +0.000 C 
BRANCH  18  19
ATOM     19  N   UNL     1      45.278   4.384  10.774  0.00  0.00    +0.000 N 
ATOM     20  C   UNL     1      45.537   4.531  12.113  0.00  0.00    +0.000 C 
ATOM     21  O   UNL     1      45.410   3.599  12.904  0.00  0.00    +0.000 OA
ATOM     22  H   UNL     1      45.173   5.208  10.190  0.00  0.00    +0.000 HD
BRANCH  20  23
ATOM     23  C   UNL     1      46.034   5.841  12.552  0.00  0.00    +0.000 A 
ATOM     24  C   UNL     1      47.165   5.913  13.354  0.00  0.00    +0.000 A 
ATOM     25  S   UNL     1      47.641   7.507  13.727  0.00  0.00    +0.000 S 
ATOM     26  C   UNL     1      46.320   8.158  12.874  0.00  0.00    +0.000 A 
ATOM     27  N   UNL     1      46.121   9.502  12.817  0.00  0.00    +0.000 NA
ATOM     28  C   UNL     1      45.062   9.857  12.167  0.00  0.00    +0.000 A 
ATOM     29  N   UNL     1      44.188   8.989  11.566  0.00  0.00    +0.000 N 
ATOM     30  C   UNL     1      44.366   7.625  11.573  0.00  0.00    +0.000 A 
ATOM     31  O   UNL     1      43.586   6.878  10.992  0.00  0.00    +0.000 OA
ATOM     32  C   UNL     1      45.537   7.174  12.300  0.00  0.00    +0.000 A 
ATOM     33  H   UNL     1      43.381   9.331  11.068  0.00  0.00    +0.000 HD
ENDBRANCH  20  23
ENDBRANCH  18  19
ENDBRANCH   4  18
TORSDOF 6
ENDMDL
MODEL 7
REMARK VINA RESULT:    -7.229      2.041      2.503
REMARK INTER + INTRA:         -10.971
REMARK INTER:                 -10.240
REMARK INTRA:                  -0.731
REMARK UNBOUND:                -1.206
REMARK  Name = 
REMARK  6 active torsions:
REMARK  status: ('A' for Active; 'I' for Inactive)
REMARK    1  A    between atoms: C_2  and  C_25
REMARK    2  A    between atoms: N_3  and  C_4
REMARK    3  A    between atoms: C_4  and  C_5
REMARK    4  A    between atoms: C_8  and  C_9
REMARK    5  A    between atoms: C_9  and  N_10
REMARK    6  A    between atoms: C_11  and  C_13
REMARK                            x       y       z     vdW  Elec       q    Type
REMARK                         _______ _______ _______ _____ _____    ______ ____
ROOT
ATOM      1  C   UNL     1      44.649   4.682  11.725  0.00  0.00    +0.000 A 
ATOM      2  C   UNL     1      44.139   5.911  11.285  0.00  0.00    +0.000 A 
ATOM      3  C   UNL     1      44.633   7.114  11.802  0.00  0.00    +0.000 A 
ATOM      4  C   UNL     1      45.661   7.112  12.754  0.00  0.00    +0.000 A 
ATOM      5  C   UNL     1      46.165   5.881  13.198  0.00  0.00    +0.000 A 
ATOM      6  C   UNL     1      45.673   4.679  12.681  0.00  0.00    +0.000 A 
ENDROOT
BRANCH   1   7
ATOM      7  C   UNL     1      44.107   3.388  11.178  0.00  0.00    +0.000 C 
BRANCH   7  10
ATOM      8  O   UNL     1      44.222   3.958   8.469  0.00  0.00    +0.000 OA
ATOM      9  C   UNL     1      45.010   3.135   8.923  0.00  0.00    +0.000 C 
ATOM     10  N   UNL     1      45.025   2.763  10.253  0.00  0.00    +0.000 N 
ATOM     11  H   UNL     1      45.809   2.248  10.631  0.00  0.00    +0.000 HD
BRANCH   9  12
ATOM     12  C   UNL     1      46.029   2.521   8.040  0.00  0.00    +0.000 A 
ATOM     13  C   UNL     1      46.175   1.132   8.068  0.00  0.00    +0.000 A 
ATOM     14  C   UNL     1      47.142   0.563   7.261  0.00  0.00    +0.000 A 
ATOM     15  N   UNL     1      47.959   1.277   6.458  0.00  0.00    +0.000 NA
ATOM     16  C   UNL     1      47.810   2.620   6.467  0.00  0.00    +0.000 A 
ATOM     17  C   UNL     1      46.867   3.286   7.232  0.00  0.00    +0.000 A 
ENDBRANCH   9  12
ENDBRANCH   7  10
ENDBRANCH   1   7
BRANCH   4  18
ATOM     18  C   UNL     1      46.194   8.402  13.320  0.00  0.00    +0.000 C 
BRANCH  18  19
ATOM     19  N   UNL     1      47.460   8.208  13.980  0.00  0.00    +0.000 N 
ATOM     20  C   UNL     1      48.631   8.182  13.267  0.00  0.00    +0.000 C 
ATOM     21  O   UNL     1      48.656   8.371  12.053  0.00  0.00    +0.000 OA
ATOM     22  H   UNL     1      47.439   7.832  14.924  0.00  0.00    +0.000 HD
BRANCH  20  23
ATOM     23  C   UNL     1      49.869   7.978  14.032  0.00  0.00    +0.000 A 
ATOM     24  C   UNL     1      51.030   8.636  13.647  0.00  0.00    +0.000 A 
ATOM     25  S   UNL     1      52.360   8.334  14.671  0.00  0.00    +0.000 S 
ATOM     26  C   UNL     1      51.445   7.271  15.635  0.00  0.00    +0.000 A 
ATOM     27  N   UNL     1      52.007   6.635  16.697  0.00  0.00    +0.000 NA
ATOM     28  C   UNL     1      51.210   5.830  17.319  0.00  0.00    +0.000 A 
ATOM     29  N   UNL     1      49.901   5.609  16.976  0.00  0.00    +0.000 N 
ATOM     30  C   UNL     1      49.284   6.252  15.929  0.00  0.00    +0.000 A 
ATOM     31  O   UNL     1      48.099   6.060  15.673  0.00  0.00    +0.000 OA
ATOM     32  C   UNL     1      50.140   7.160  15.191  0.00  0.00    +0.000 A 
ATOM     33  H   UNL     1      49.329   4.970  17.508  0.00  0.00    +0.000 HD
ENDBRANCH  20  23
ENDBRANCH  18  19
ENDBRANCH   4  18
TORSDOF 6
ENDMDL
MODEL 8
REMARK VINA RESULT:    -7.077      3.101      5.546
REMARK INTER + INTRA:         -10.765
REMARK INTER:                  -9.824
REMARK INTRA:                  -0.941
REMARK UNBOUND:                -1.206
REMARK  Name = 
REMARK  6 active torsions:
REMARK  status: ('A' for Active; 'I' for Inactive)
REMARK    1  A    between atoms: C_2  and  C_25
REMARK    2  A    between atoms: N_3  and  C_4
REMARK    3  A    between atoms: C_4  and  C_5
REMARK    4  A    between atoms: C_8  and  C_9
REMARK    5  A    between atoms: C_9  and  N_10
REMARK    6  A    between atoms: C_11  and  C_13
REMARK                            x       y       z     vdW  Elec       q    Type
REMARK                         _______ _______ _______ _____ _____    ______ ____
ROOT
ATOM      1  C   UNL     1      46.619   2.493   6.613  0.00  0.00    +0.000 A 
ATOM      2  C   UNL     1      46.239   3.783   7.007  0.00  0.00    +0.000 A 
ATOM      3  C   UNL     1      45.637   4.000   8.251  0.00  0.00    +0.000 A 
ATOM      4  C   UNL     1      45.420   2.935   9.134  0.00  0.00    +0.000 A 
ATOM      5  C   UNL     1      45.794   1.644   8.735  0.00  0.00    +0.000 A 
ATOM      6  C   UNL     1      46.398   1.426   7.493  0.00  0.00    +0.000 A 
ENDROOT
BRANCH   1   7
ATOM      7  C   UNL     1      47.256   2.259   5.269  0.00  0.00    +0.000 C 
BRANCH   7  10
ATOM      8  O   UNL     1      46.056   1.090   3.062  0.00  0.00    +0.000 OA
ATOM      9  C   UNL     1      46.718   0.377   3.809  0.00  0.00    +0.000 C 
ATOM     10  N   UNL     1      47.340   0.852   4.945  0.00  0.00    +0.000 N 
ATOM     11  H   UNL     1      48.039   0.294   5.417  0.00  0.00    +0.000 HD
BRANCH   9  12
ATOM     12  C   UNL     1      46.909  -1.057   3.484  0.00  0.00    +0.000 A 
ATOM     13  C   UNL     1      46.532  -2.004   4.439  0.00  0.00    +0.000 A 
ATOM     14  C   UNL     1      46.734  -3.340   4.145  0.00  0.00    +0.000 A 
ATOM     15  N   UNL     1      47.284  -3.775   2.992  0.00  0.00    +0.000 NA
ATOM     16  C   UNL     1      47.659  -2.836   2.096  0.00  0.00    +0.000 A 
ATOM     17  C   UNL     1      47.494  -1.475   2.291  0.00  0.00    +0.000 A 
ENDBRANCH   9  12
ENDBRANCH   7  10
ENDBRANCH   1   7
BRANCH   4  18
ATOM     18  C   UNL     1      44.766   3.159  10.472  0.00  0.00    +0.000 C 
BRANCH  18  19
ATOM     19  N   UNL     1      45.659   3.813  11.396  0.00  0.00    +0.000 N 
ATOM     20  C   UNL     1      45.309   3.988  12.710  0.00  0.00    +0.000 C 
ATOM     21  O   UNL     1      44.252   3.554  13.163  0.00  0.00    +0.000 OA
ATOM     22  H   UNL     1      46.414   4.365  10.999  0.00  0.00    +0.000 HD
BRANCH  20  23
ATOM     23  C   UNL     1      46.286   4.666  13.571  0.00  0.00    +0.000 A 
ATOM     24  C   UNL     1      46.555   4.160  14.836  0.00  0.00    +0.000 A 
ATOM     25  S   UNL     1      47.752   5.031  15.683  0.00  0.00    +0.000 S 
ATOM     26  C   UNL     1      47.915   6.148  14.410  0.00  0.00    +0.000 A 
ATOM     27  N   UNL     1      48.783   7.192  14.505  0.00  0.00    +0.000 NA
ATOM     28  C   UNL     1      48.780   7.983  13.483  0.00  0.00    +0.000 A 
ATOM     29  N   UNL     1      47.991   7.820  12.374  0.00  0.00    +0.000 N 
ATOM     30  C   UNL     1      47.122   6.765  12.222  0.00  0.00    +0.000 A 
ATOM     31  O   UNL     1      46.459   6.627  11.199  0.00  0.00    +0.000 OA
ATOM     32  C   UNL     1      47.080   5.852  13.348  0.00  0.00    +0.000 A 
ATOM     33  H   UNL     1      48.041   8.471  11.605  0.00  0.00    +0.000 HD
ENDBRANCH  20  23
ENDBRANCH  18  19
ENDBRANCH   4  18
TORSDOF 6
ENDMDL
MODEL 9
REMARK VINA RESULT:    -7.057      3.691      5.174
REMARK INTER + INTRA:         -10.739
REMARK INTER:                  -9.567
REMARK INTRA:                  -1.172
REMARK UNBOUND:                -1.206
REMARK  Name = 
REMARK  6 active torsions:
REMARK  status: ('A' for Active; 'I' for Inactive)
REMARK    1  A    between atoms: C_2  and  C_25
REMARK    2  A    between atoms: N_3  and  C_4
REMARK    3  A    between atoms: C_4  and  C_5
REMARK    4  A    between atoms: C_8  and  C_9
REMARK    5  A    between atoms: C_9  and  N_10
REMARK    6  A    between atoms: C_11  and  C_13
REMARK                            x       y       z     vdW  Elec       q    Type
REMARK                         _______ _______ _______ _____ _____    ______ ____
ROOT
ATOM      1  C   UNL     1      44.906   5.187  11.760  0.00  0.00    +0.000 A 
ATOM      2  C   UNL     1      44.538   6.490  11.398  0.00  0.00    +0.000 A 
ATOM      3  C   UNL     1      45.174   7.596  11.973  0.00  0.00    +0.000 A 
ATOM      4  C   UNL     1      46.206   7.420  12.904  0.00  0.00    +0.000 A 
ATOM      5  C   UNL     1      46.568   6.116  13.269  0.00  0.00    +0.000 A 
ATOM      6  C   UNL     1      45.934   5.011  12.695  0.00  0.00    +0.000 A 
ENDROOT
BRANCH   1   7
ATOM      7  C   UNL     1      44.212   3.997  11.151  0.00  0.00    +0.000 C 
BRANCH   7  10
ATOM      8  O   UNL     1      44.276   4.257   8.393  0.00  0.00    +0.000 OA
ATOM      9  C   UNL     1      45.049   3.465   8.920  0.00  0.00    +0.000 C 
ATOM     10  N   UNL     1      45.087   3.243  10.282  0.00  0.00    +0.000 N 
ATOM     11  H   UNL     1      45.864   2.748  10.698  0.00  0.00    +0.000 HD
BRANCH   9  12
ATOM     12  C   UNL     1      46.028   2.723   8.089  0.00  0.00    +0.000 A 
ATOM     13  C   UNL     1      46.703   3.421   7.085  0.00  0.00    +0.000 A 
ATOM     14  C   UNL     1      47.597   2.723   6.295  0.00  0.00    +0.000 A 
ATOM     15  N   UNL     1      47.843   1.403   6.435  0.00  0.00    +0.000 NA
ATOM     16  C   UNL     1      47.160   0.749   7.400  0.00  0.00    +0.000 A 
ATOM     17  C   UNL     1      46.250   1.357   8.248  0.00  0.00    +0.000 A 
ENDBRANCH   9  12
ENDBRANCH   7  10
ENDBRANCH   1   7
BRANCH   4  18
ATOM     18  C   UNL     1      46.891   8.605  13.532  0.00  0.00    +0.000 C 
BRANCH  18  19
ATOM     19  N   UNL     1      48.162   8.875  12.907  0.00  0.00    +0.000 N 
ATOM     20  C   UNL     1      48.282   9.838  11.939  0.00  0.00    +0.000 C 
ATOM     21  O   UNL     1      47.332  10.540  11.601  0.00  0.00    +0.000 OA
ATOM     22  H   UNL     1      48.886   8.169  13.006  0.00  0.00    +0.000 HD
BRANCH  20  23
ATOM     23  C   UNL     1      49.619  10.037  11.363  0.00  0.00    +0.000 A 
ATOM     24  C   UNL     1      50.029  11.314  11.003  0.00  0.00    +0.000 A 
ATOM     25  S   UNL     1      51.624  11.379  10.405  0.00  0.00    +0.000 S 
ATOM     26  C   UNL     1      51.806   9.693  10.555  0.00  0.00    +0.000 A 
ATOM     27  N   UNL     1      52.961   9.080  10.182  0.00  0.00    +0.000 NA
ATOM     28  C   UNL     1      52.951   7.795  10.316  0.00  0.00    +0.000 A 
ATOM     29  N   UNL     1      51.889   7.069  10.793  0.00  0.00    +0.000 N 
ATOM     30  C   UNL     1      50.714   7.649  11.209  0.00  0.00    +0.000 A 
ATOM     31  O   UNL     1      49.798   6.974  11.667  0.00  0.00    +0.000 OA
ATOM     32  C   UNL     1      50.671   9.092  11.069  0.00  0.00    +0.000 A 
ATOM     33  H   UNL     1      51.947   6.066  10.878  0.00  0.00    +0.000 HD
ENDBRANCH  20  23
ENDBRANCH  18  19
ENDBRANCH   4  18
TORSDOF 6
ENDMDL
