MODEL 1
REMARK VINA RESULT:    -7.982      0.000      0.000
REMARK INTER + INTRA:         -13.211
REMARK INTER:                 -11.948
REMARK INTRA:                  -1.262
REMARK UNBOUND:                -1.262
REMARK  Name = 
REMARK  10 active torsions:
REMARK  status: ('A' for Active; 'I' for Inactive)
REMARK    1  A    between atoms: C_1  and  C_2
REMARK    2  A    between atoms: C_8  and  C_9
REMARK    3  A    between atoms: N_11  and  C_12
REMARK    4  A    between atoms: C_12  and  C_13
REMARK    5  A    between atoms: C_16  and  N_17
REMARK    6  A    between atoms: N_17  and  C_18
REMARK    7  A    between atoms: N_17  and  C_21
REMARK    8  A    between atoms: C_18  and  C_19
REMARK    9  A    between atoms: C_19  and  O_20
REMARK   10  A    between atoms: C_21  and  C_22
REMARK                            x       y       z     vdW  Elec       q    Type
REMARK                         _______ _______ _______ _____ _____    ______ ____
ROOT
ATOM      1  C   UNL     1      47.510   6.362  13.253  0.00  0.00    +0.000 A 
ATOM      2  C   UNL     1      46.810   5.220  13.644  0.00  0.00    +0.000 A 
ATOM      3  C   UNL     1      45.842   4.644  12.798  0.00  0.00    +0.000 A 
ATOM      4  C   UNL     1      45.495   5.200  11.555  0.00  0.00    +0.000 A 
ATOM      5  C   UNL     1      46.241   6.334  11.183  0.00  0.00    +0.000 A 
ATOM      6  C   UNL     1      47.236   6.892  11.996  0.00  0.00    +0.000 A 
ENDROOT
BRANCH   1   7
ATOM      7  C   UNL     1      48.498   7.038  14.160  0.00  0.00    +0.000 C 
BRANCH   7  10
ATOM      8  C   UNL     1      49.651   6.372  16.188  0.00  0.00    +0.000 C 
ATOM      9  O   UNL     1      50.709   6.506  15.573  0.00  0.00    +0.000 OA
ATOM     10  N   UNL     1      48.448   6.572  15.530  0.00  0.00    +0.000 N 
ATOM     11  H   UNL     1      47.586   6.694  16.043  0.00  0.00    +0.000 HD
BRANCH   8  19
ATOM     12  C   UNL     1      48.430   3.087  16.351  0.00  0.00    +0.000 C 
ATOM     13  C   UNL     1      48.540   3.656  17.713  0.00  0.00    +0.000 A 
ATOM     14  C   UNL     1      48.206   3.048  18.930  0.00  0.00    +0.000 A 
ATOM     15  N   UNL     1      48.463   3.930  19.992  0.00  0.00    +0.000 N 
ATOM     16  C   UNL     1      48.957   5.073  19.459  0.00  0.00    +0.000 A 
ATOM     17  N   UNL     1      49.397   6.286  19.891  0.00  0.00    +0.000 NA
ATOM     18  C   UNL     1      49.709   6.916  18.702  0.00  0.00    +0.000 C 
ATOM     19  C   UNL     1      49.488   6.063  17.577  0.00  0.00    +0.000 C 
ATOM     20  C   UNL     1      48.984   4.885  18.139  0.00  0.00    +0.000 A 
ATOM     21  H   UNL     1      48.309   3.755  20.975  0.00  0.00    +0.000 HD
ENDBRANCH   8  19
ENDBRANCH   7  10
ENDBRANCH   1   7
BRANCH   4  22
ATOM     22  N   UNL     1      44.500   4.679  10.732  0.00  0.00    +0.000 N 
BRANCH  22  23
ATOM     23  C   UNL     1      43.179   4.249  11.247  0.00  0.00    +0.000 C 
BRANCH  23  24
ATOM     24  C   UNL     1      42.334   5.375  11.872  0.00  0.00    +0.000 C 
BRANCH  24  25
ATOM     25  O   UNL     1      42.504   5.455  13.285  0.00  0.00    +0.000 OA
ATOM     26  H   UNL     1      41.918   4.767  13.653  0.00  0.00    +0.000 HD
ENDBRANCH  24  25
ENDBRANCH  23  24
ENDBRANCH  22  23
BRANCH  22  27
ATOM     27  C   UNL     1      44.627   4.735   9.257  0.00  0.00    +0.000 C 
BRANCH  27  28
ATOM     28  C   UNL     1      45.455   3.646   8.602  0.00  0.00    +0.000 A 
ATOM     29  C   UNL     1      46.412   3.840   7.605  0.00  0.00    +0.000 A 
ATOM     30  C   UNL     1      47.100   2.743   7.075  0.00  0.00    +0.000 A 
ATOM     31  C   UNL     1      46.815   1.481   7.564  0.00  0.00    +0.000 A 
ATOM     32  N   UNL     1      45.903   1.248   8.529  0.00  0.00    +0.000 NA
ATOM     33  C   UNL     1      45.251   2.329   9.020  0.00  0.00    +0.000 A 
ENDBRANCH  27  28
ENDBRANCH  22  27
ENDBRANCH   4  22
TORSDOF 9
ENDMDL
MODEL 2
REMARK VINA RESULT:    -7.827      1.238      2.156
REMARK INTER + INTRA:         -12.979
REMARK INTER:                 -11.913
REMARK INTRA:                  -1.066
REMARK UNBOUND:                -1.262
REMARK  Name = 
REMARK  10 active torsions:
REMARK  status: ('A' for Active; 'I' for Inactive)
REMARK    1  A    between atoms: C_1  and  C_2
REMARK    2  A    between atoms: C_8  and  C_9
REMARK    3  A    between atoms: N_11  and  C_12
REMARK    4  A    between atoms: C_12  and  C_13
REMARK    5  A    between atoms: C_16  and  N_17
REMARK    6  A    between atoms: N_17  and  C_18
REMARK    7  A    between atoms: N_17  and  C_21
REMARK    8  A    between atoms: C_18  and  C_19
REMARK    9  A    between atoms: C_19  and  O_20
REMARK   10  A    between atoms: C_21  and  C_22
REMARK                            x       y       z     vdW  Elec       q    Type
REMARK                         _______ _______ _______ _____ _____    ______ ____
ROOT
ATOM      1  C   UNL     1      47.490   5.978  13.370  0.00  0.00    +0.000 A 
ATOM      2  C   UNL     1      46.768   4.818  13.651  0.00  0.00    +0.000 A 
ATOM      3  C   UNL     1      45.785   4.347  12.758  0.00  0.00    +0.000 A 
ATOM      4  C   UNL     1      45.445   5.029  11.578  0.00  0.00    +0.000 A 
ATOM      5  C   UNL     1      46.211   6.179  11.315  0.00  0.00    +0.000 A 
ATOM      6  C   UNL     1      47.221   6.635  12.172  0.00  0.00    +0.000 A 
ENDROOT
BRANCH   1   7
ATOM      7  C   UNL     1      48.495   6.542  14.332  0.00  0.00    +0.000 C 
BRANCH   7  10
ATOM      8  C   UNL     1      49.163   6.189  16.637  0.00  0.00    +0.000 C 
ATOM      9  O   UNL     1      50.324   6.103  16.237  0.00  0.00    +0.000 OA
ATOM     10  N   UNL     1      48.136   6.362  15.724  0.00  0.00    +0.000 N 
ATOM     11  H   UNL     1      47.218   6.660  16.021  0.00  0.00    +0.000 HD
BRANCH   8  19
ATOM     12  C   UNL     1      48.023   9.430  17.347  0.00  0.00    +0.000 C 
ATOM     13  C   UNL     1      47.911   8.577  18.551  0.00  0.00    +0.000 A 
ATOM     14  C   UNL     1      47.452   8.940  19.823  0.00  0.00    +0.000 A 
ATOM     15  N   UNL     1      47.504   7.833  20.686  0.00  0.00    +0.000 N 
ATOM     16  C   UNL     1      47.981   6.785  19.972  0.00  0.00    +0.000 A 
ATOM     17  N   UNL     1      48.274   5.471  20.171  0.00  0.00    +0.000 NA
ATOM     18  C   UNL     1      48.755   5.097  18.931  0.00  0.00    +0.000 C 
ATOM     19  C   UNL     1      48.711   6.176  17.996  0.00  0.00    +0.000 C 
ATOM     20  C   UNL     1      48.213   7.250  18.742  0.00  0.00    +0.000 A 
ATOM     21  H   UNL     1      47.239   7.811  21.660  0.00  0.00    +0.000 HD
ENDBRANCH   8  19
ENDBRANCH   7  10
ENDBRANCH   1   7
BRANCH   4  22
ATOM     22  N   UNL     1      44.435   4.611  10.714  0.00  0.00    +0.000 N 
BRANCH  22  23
ATOM     23  C   UNL     1      43.071   4.272  11.180  0.00  0.00    +0.000 C 
BRANCH  23  24
ATOM     24  C   UNL     1      42.331   5.420  11.894  0.00  0.00    +0.000 C 
BRANCH  24  25
ATOM     25  O   UNL     1      42.523   5.388  13.306  0.00  0.00    +0.000 OA
ATOM     26  H   UNL     1      42.617   4.444  13.532  0.00  0.00    +0.000 HD
ENDBRANCH  24  25
ENDBRANCH  23  24
ENDBRANCH  22  23
BRANCH  22  27
ATOM     27  C   UNL     1      44.609   4.698   9.245  0.00  0.00    +0.000 C 
BRANCH  27  28
ATOM     28  C   UNL     1      45.446   3.616   8.592  0.00  0.00    +0.000 A 
ATOM     29  C   UNL     1      46.399   3.816   7.591  0.00  0.00    +0.000 A 
ATOM     30  C   UNL     1      47.097   2.726   7.063  0.00  0.00    +0.000 A 
ATOM     31  C   UNL     1      46.828   1.462   7.558  0.00  0.00    +0.000 A 
ATOM     32  N   UNL     1      45.922   1.223   8.527  0.00  0.00    +0.000 NA
ATOM     33  C   UNL     1      45.260   2.298   9.016  0.00  0.00    +0.000 A 
ENDBRANCH  27  28
ENDBRANCH  22  27
ENDBRANCH   4  22
TORSDOF 9
ENDMDL
MODEL 3
REMARK VINA RESULT:    -6.677      2.848      4.737
REMARK INTER + INTRA:         -11.257
REMARK INTER:                 -10.018
REMARK INTRA:                  -1.240
REMARK UNBOUND:                -1.262
REMARK  Name = 
REMARK  10 active torsions:
REMARK  status: ('A' for Active; 'I' for Inactive)
REMARK    1  A    between atoms: C_1  and  C_2
REMARK    2  A    between atoms: C_8  and  C_9
REMARK    3  A    between atoms: N_11  and  C_12
REMARK    4  A    between atoms: C_12  and  C_13
REMARK    5  A    between atoms: C_16  and  N_17
REMARK    6  A    between atoms: N_17  and  C_18
REMARK    7  A    between atoms: N_17  and  C_21
REMARK    8  A    between atoms: C_18  and  C_19
REMARK    9  A    between atoms: C_19  and  O_20
REMARK   10  A    between atoms: C_21  and  C_22
REMARK                            x       y       z     vdW  Elec       q    Type
REMARK                         _______ _______ _______ _____ _____    ______ ____
ROOT
ATOM      1  C   UNL     1      47.491   5.957  13.304  0.00  0.00    +0.000 A 
ATOM      2  C   UNL     1      46.881   4.726  13.543  0.00  0.00    +0.000 A 
ATOM      3  C   UNL     1      45.901   4.224  12.664  0.00  0.00    +0.000 A 
ATOM      4  C   UNL     1      45.454   4.941  11.541  0.00  0.00    +0.000 A 
ATOM      5  C   UNL     1      46.111   6.164  11.316  0.00  0.00    +0.000 A 
ATOM      6  C   UNL     1      47.117   6.656  12.159  0.00  0.00    +0.000 A 
ENDROOT
BRANCH   1   7
ATOM      7  C   UNL     1      48.488   6.550  14.258  0.00  0.00    +0.000 C 
BRANCH   7  10
ATOM      8  C   UNL     1      49.525   8.663  14.846  0.00  0.00    +0.000 C 
ATOM      9  O   UNL     1      50.490   8.020  15.258  0.00  0.00    +0.000 OA
ATOM     10  N   UNL     1      48.415   7.993  14.357  0.00  0.00    +0.000 N 
ATOM     11  H   UNL     1      47.714   8.473  13.811  0.00  0.00    +0.000 HD
BRANCH   8  19
ATOM     12  C   UNL     1      49.605   9.467  11.432  0.00  0.00    +0.000 C 
ATOM     13  C   UNL     1      49.514  10.702  12.242  0.00  0.00    +0.000 A 
ATOM     14  C   UNL     1      49.482  12.028  11.791  0.00  0.00    +0.000 A 
ATOM     15  N   UNL     1      49.389  12.904  12.885  0.00  0.00    +0.000 N 
ATOM     16  C   UNL     1      49.356  12.148  14.008  0.00  0.00    +0.000 A 
ATOM     17  N   UNL     1      49.276  12.333  15.354  0.00  0.00    +0.000 NA
ATOM     18  C   UNL     1      49.330  11.035  15.823  0.00  0.00    +0.000 C 
ATOM     19  C   UNL     1      49.407  10.088  14.757  0.00  0.00    +0.000 C 
ATOM     20  C   UNL     1      49.436  10.879  13.603  0.00  0.00    +0.000 A 
ATOM     21  H   UNL     1      49.356  13.913  12.851  0.00  0.00    +0.000 HD
ENDBRANCH   8  19
ENDBRANCH   7  10
ENDBRANCH   1   7
BRANCH   4  22
ATOM     22  N   UNL     1      44.445   4.488  10.694  0.00  0.00    +0.000 N 
BRANCH  22  23
ATOM     23  C   UNL     1      43.104   4.095  11.184  0.00  0.00    +0.000 C 
BRANCH  23  24
ATOM     24  C   UNL     1      42.496   5.049  12.229  0.00  0.00    +0.000 C 
BRANCH  24  25
ATOM     25  O   UNL     1      42.128   6.304  11.664  0.00  0.00    +0.000 OA
ATOM     26  H   UNL     1      42.405   6.256  10.730  0.00  0.00    +0.000 HD
ENDBRANCH  24  25
ENDBRANCH  23  24
ENDBRANCH  22  23
BRANCH  22  27
ATOM     27  C   UNL     1      44.587   4.588   9.223  0.00  0.00    +0.000 C 
BRANCH  27  28
ATOM     28  C   UNL     1      45.460   3.546   8.549  0.00  0.00    +0.000 A 
ATOM     29  C   UNL     1      46.389   3.794   7.537  0.00  0.00    +0.000 A 
ATOM     30  C   UNL     1      47.125   2.738   6.991  0.00  0.00    +0.000 A 
ATOM     31  C   UNL     1      46.916   1.461   7.479  0.00  0.00    +0.000 A 
ATOM     32  N   UNL     1      46.035   1.176   8.459  0.00  0.00    +0.000 NA
ATOM     33  C   UNL     1      45.335   2.219   8.965  0.00  0.00    +0.000 A 
ENDBRANCH  27  28
ENDBRANCH  22  27
ENDBRANCH   4  22
TORSDOF 9
ENDMDL
MODEL 4
REMARK VINA RESULT:    -6.587      2.096      2.655
REMARK INTER + INTRA:         -11.123
REMARK INTER:                 -10.337
REMARK INTRA:                  -0.786
REMARK UNBOUND:                -1.262
REMARK  Name = 
REMARK  10 active torsions:
REMARK  status: ('A' for Active; 'I' for Inactive)
REMARK    1  A    between atoms: C_1  and  C_2
REMARK    2  A    between atoms: C_8  and  C_9
REMARK    3  A    between atoms: N_11  and  C_12
REMARK    4  A    between atoms: C_12  and  C_13
REMARK    5  A    between atoms: C_16  and  N_17
REMARK    6  A    between atoms: N_17  and  C_18
REMARK    7  A    between atoms: N_17  and  C_21
REMARK    8  A    between atoms: C_18  and  C_19
REMARK    9  A    between atoms: C_19  and  O_20
REMARK   10  A    between atoms: C_21  and  C_22
REMARK                            x       y       z     vdW  Elec       q    Type
REMARK                         _______ _______ _______ _____ _____    ______ ____
ROOT
ATOM      1  C   UNL     1      46.458   7.647  12.597  0.00  0.00    +0.000 A 
ATOM      2  C   UNL     1      45.111   7.459  12.909  0.00  0.00    +0.000 A 
ATOM      3  C   UNL     1      44.364   6.435  12.292  0.00  0.00    +0.000 A 
ATOM      4  C   UNL     1      44.907   5.589  11.311  0.00  0.00    +0.000 A 
ATOM      5  C   UNL     1      46.273   5.790  11.042  0.00  0.00    +0.000 A 
ATOM      6  C   UNL     1      47.039   6.776  11.679  0.00  0.00    +0.000 A 
ENDROOT
BRANCH   1   7
ATOM      7  C   UNL     1      47.262   8.771  13.185  0.00  0.00    +0.000 C 
BRANCH   7  10
ATOM      8  C   UNL     1      48.510   9.293  15.198  0.00  0.00    +0.000 C 
ATOM      9  O   UNL     1      49.383   9.772  14.474  0.00  0.00    +0.000 OA
ATOM     10  N   UNL     1      47.396   8.702  14.625  0.00  0.00    +0.000 N 
ATOM     11  H   UNL     1      46.569   8.507  15.172  0.00  0.00    +0.000 HD
BRANCH   8  19
ATOM     12  C   UNL     1      50.219   6.424  16.276  0.00  0.00    +0.000 C 
ATOM     13  C   UNL     1      49.684   7.165  17.440  0.00  0.00    +0.000 A 
ATOM     14  C   UNL     1      49.783   6.825  18.796  0.00  0.00    +0.000 A 
ATOM     15  N   UNL     1      49.141   7.797  19.581  0.00  0.00    +0.000 N 
ATOM     16  C   UNL     1      48.649   8.738  18.740  0.00  0.00    +0.000 A 
ATOM     17  N   UNL     1      47.949   9.902  18.818  0.00  0.00    +0.000 NA
ATOM     18  C   UNL     1      47.818  10.244  17.486  0.00  0.00    +0.000 C 
ATOM     19  C   UNL     1      48.468   9.304  16.630  0.00  0.00    +0.000 C 
ATOM     20  C   UNL     1      48.975   8.340  17.508  0.00  0.00    +0.000 A 
ATOM     21  H   UNL     1      49.053   7.801  20.587  0.00  0.00    +0.000 HD
ENDBRANCH   8  19
ENDBRANCH   7  10
ENDBRANCH   1   7
BRANCH   4  22
ATOM     22  N   UNL     1      44.169   4.611  10.648  0.00  0.00    +0.000 N 
BRANCH  22  23
ATOM     23  C   UNL     1      43.157   3.771  11.330  0.00  0.00    +0.000 C 
BRANCH  23  24
ATOM     24  C   UNL     1      43.735   2.759  12.337  0.00  0.00    +0.000 C 
BRANCH  24  25
ATOM     25  O   UNL     1      45.159   2.752  12.338  0.00  0.00    +0.000 OA
ATOM     26  H   UNL     1      45.417   2.838  13.274  0.00  0.00    +0.000 HD
ENDBRANCH  24  25
ENDBRANCH  23  24
ENDBRANCH  22  23
BRANCH  22  27
ATOM     27  C   UNL     1      44.197   4.510   9.170  0.00  0.00    +0.000 C 
BRANCH  27  28
ATOM     28  C   UNL     1      45.188   3.530   8.572  0.00  0.00    +0.000 A 
ATOM     29  C   UNL     1      46.217   3.853   7.685  0.00  0.00    +0.000 A 
ATOM     30  C   UNL     1      47.058   2.848   7.196  0.00  0.00    +0.000 A 
ATOM     31  C   UNL     1      46.851   1.546   7.616  0.00  0.00    +0.000 A 
ATOM     32  N   UNL     1      45.875   1.191   8.474  0.00  0.00    +0.000 NA
ATOM     33  C   UNL     1      45.074   2.184   8.927  0.00  0.00    +0.000 A 
ENDBRANCH  27  28
ENDBRANCH  22  27
ENDBRANCH   4  22
TORSDOF 9
ENDMDL
MODEL 5
REMARK VINA RESULT:    -6.372      2.956      9.039
REMARK INTER + INTRA:         -10.800
REMARK INTER:                  -9.374
REMARK INTRA:                  -1.427
REMARK UNBOUND:                -1.262
REMARK  Name = 
REMARK  10 active torsions:
REMARK  status: ('A' for Active; 'I' for Inactive)
REMARK    1  A    between atoms: C_1  and  C_2
REMARK    2  A    between atoms: C_8  and  C_9
REMARK    3  A    between atoms: N_11  and  C_12
REMARK    4  A    between atoms: C_12  and  C_13
REMARK    5  A    between atoms: C_16  and  N_17
REMARK    6  A    between atoms: N_17  and  C_18
REMARK    7  A    between atoms: N_17  and  C_21
REMARK    8  A    between atoms: C_18  and  C_19
REMARK    9  A    between atoms: C_19  and  O_20
REMARK   10  A    between atoms: C_21  and  C_22
REMARK                            x       y       z     vdW  Elec       q    Type
REMARK                         _______ _______ _______ _____ _____    ______ ____
ROOT
ATOM      1  C   UNL     1      48.377   6.907  14.864  0.00  0.00    +0.000 A 
ATOM      2  C   UNL     1      47.740   5.800  15.425  0.00  0.00    +0.000 A 
ATOM      3  C   UNL     1      48.348   5.070  16.466  0.00  0.00    +0.000 A 
ATOM      4  C   UNL     1      49.628   5.376  16.959  0.00  0.00    +0.000 A 
ATOM      5  C   UNL     1      50.227   6.514  16.388  0.00  0.00    +0.000 A 
ATOM      6  C   UNL     1      49.616   7.275  15.383  0.00  0.00    +0.000 A 
ENDROOT
BRANCH   1   7
ATOM      7  C   UNL     1      47.787   7.664  13.709  0.00  0.00    +0.000 C 
BRANCH   7  10
ATOM      8  C   UNL     1      46.261   6.795  12.037  0.00  0.00    +0.000 C 
ATOM      9  O   UNL     1      47.178   6.884  11.222  0.00  0.00    +0.000 OA
ATOM     10  N   UNL     1      46.459   7.223  13.339  0.00  0.00    +0.000 N 
ATOM     11  H   UNL     1      45.821   6.961  14.078  0.00  0.00    +0.000 HD
BRANCH   8  19
ATOM     12  C   UNL     1      46.433   3.431  13.021  0.00  0.00    +0.000 C 
ATOM     13  C   UNL     1      45.084   3.738  12.496  0.00  0.00    +0.000 A 
ATOM     14  C   UNL     1      43.995   2.868  12.359  0.00  0.00    +0.000 A 
ATOM     15  N   UNL     1      42.896   3.557  11.821  0.00  0.00    +0.000 N 
ATOM     16  C   UNL     1      43.279   4.842  11.626  0.00  0.00    +0.000 A 
ATOM     17  N   UNL     1      42.741   6.000  11.156  0.00  0.00    +0.000 NA
ATOM     18  C   UNL     1      43.809   6.871  11.259  0.00  0.00    +0.000 C 
ATOM     19  C   UNL     1      44.959   6.236  11.820  0.00  0.00    +0.000 C 
ATOM     20  C   UNL     1      44.551   4.913  12.021  0.00  0.00    +0.000 A 
ATOM     21  H   UNL     1      41.985   3.174  11.611  0.00  0.00    +0.000 HD
ENDBRANCH   8  19
ENDBRANCH   7  10
ENDBRANCH   1   7
BRANCH   4  22
ATOM     22  N   UNL     1      50.269   4.630  17.944  0.00  0.00    +0.000 N 
BRANCH  22  23
ATOM     23  C   UNL     1      50.880   3.308  17.678  0.00  0.00    +0.000 C 
BRANCH  23  24
ATOM     24  C   UNL     1      49.871   2.173  17.417  0.00  0.00    +0.000 C 
BRANCH  24  25
ATOM     25  O   UNL     1      49.882   1.744  16.058  0.00  0.00    +0.000 OA
ATOM     26  H   UNL     1      50.717   2.085  15.688  0.00  0.00    +0.000 HD
ENDBRANCH  24  25
ENDBRANCH  23  24
ENDBRANCH  22  23
BRANCH  22  27
ATOM     27  C   UNL     1      50.570   5.222  19.269  0.00  0.00    +0.000 C 
BRANCH  27  28
ATOM     28  C   UNL     1      49.385   5.552  20.155  0.00  0.00    +0.000 A 
ATOM     29  C   UNL     1      48.654   6.740  20.127  0.00  0.00    +0.000 A 
ATOM     30  C   UNL     1      47.585   6.924  21.011  0.00  0.00    +0.000 A 
ATOM     31  C   UNL     1      47.272   5.906  21.894  0.00  0.00    +0.000 A 
ATOM     32  N   UNL     1      47.947   4.741  21.952  0.00  0.00    +0.000 NA
ATOM     33  C   UNL     1      48.978   4.594  21.087  0.00  0.00    +0.000 A 
ENDBRANCH  27  28
ENDBRANCH  22  27
ENDBRANCH   4  22
TORSDOF 9
ENDMDL
MODEL 6
REMARK VINA RESULT:    -6.285      2.710      8.876
REMARK INTER + INTRA:         -10.670
REMARK INTER:                  -9.566
REMARK INTRA:                  -1.104
REMARK UNBOUND:                -1.262
REMARK  Name = 
REMARK  10 active torsions:
REMARK  status: ('A' for Active; 'I' for Inactive)
REMARK    1  A    between atoms: C_1  and  C_2
REMARK    2  A    between atoms: C_8  and  C_9
REMARK    3  A    between atoms: N_11  and  C_12
REMARK    4  A    between atoms: C_12  and  C_13
REMARK    5  A    between atoms: C_16  and  N_17
REMARK    6  A    between atoms: N_17  and  C_18
REMARK    7  A    between atoms: N_17  and  C_21
REMARK    8  A    between atoms: C_18  and  C_19
REMARK    9  A    between atoms: C_19  and  O_20
REMARK   10  A    between atoms: C_21  and  C_22
REMARK                            x       y       z     vdW  Elec       q    Type
REMARK                         _______ _______ _______ _____ _____    ______ ____
ROOT
ATOM      1  C   UNL     1      48.125   6.599  14.391  0.00  0.00    +0.000 A 
ATOM      2  C   UNL     1      49.164   7.216  15.088  0.00  0.00    +0.000 A 
ATOM      3  C   UNL     1      49.625   6.687  16.310  0.00  0.00    +0.000 A 
ATOM      4  C   UNL     1      49.046   5.557  16.912  0.00  0.00    +0.000 A 
ATOM      5  C   UNL     1      48.021   4.947  16.167  0.00  0.00    +0.000 A 
ATOM      6  C   UNL     1      47.581   5.437  14.931  0.00  0.00    +0.000 A 
ENDROOT
BRANCH   1   7
ATOM      7  C   UNL     1      47.565   7.177  13.122  0.00  0.00    +0.000 C 
BRANCH   7  10
ATOM      8  C   UNL     1      45.949   6.558  11.423  0.00  0.00    +0.000 C 
ATOM      9  O   UNL     1      45.445   7.672  11.564  0.00  0.00    +0.000 OA
ATOM     10  N   UNL     1      47.018   6.185  12.220  0.00  0.00    +0.000 N 
ATOM     11  H   UNL     1      47.593   5.387  11.984  0.00  0.00    +0.000 HD
BRANCH   8  19
ATOM     12  C   UNL     1      43.957   4.215  13.111  0.00  0.00    +0.000 C 
ATOM     13  C   UNL     1      44.156   3.794  11.707  0.00  0.00    +0.000 A 
ATOM     14  C   UNL     1      43.674   2.639  11.078  0.00  0.00    +0.000 A 
ATOM     15  N   UNL     1      44.086   2.616   9.736  0.00  0.00    +0.000 N 
ATOM     16  C   UNL     1      44.811   3.740   9.516  0.00  0.00    +0.000 A 
ATOM     17  N   UNL     1      45.480   4.330   8.489  0.00  0.00    +0.000 NA
ATOM     18  C   UNL     1      45.987   5.464   9.094  0.00  0.00    +0.000 C 
ATOM     19  C   UNL     1      45.587   5.558  10.462  0.00  0.00    +0.000 C 
ATOM     20  C   UNL     1      44.837   4.397  10.677  0.00  0.00    +0.000 A 
ATOM     21  H   UNL     1      43.888   1.899   9.053  0.00  0.00    +0.000 HD
ENDBRANCH   8  19
ENDBRANCH   7  10
ENDBRANCH   1   7
BRANCH   4  22
ATOM     22  N   UNL     1      49.449   5.055  18.147  0.00  0.00    +0.000 N 
BRANCH  22  23
ATOM     23  C   UNL     1      48.498   4.490  19.131  0.00  0.00    +0.000 C 
BRANCH  23  24
ATOM     24  C   UNL     1      48.949   4.602  20.600  0.00  0.00    +0.000 C 
BRANCH  24  25
ATOM     25  O   UNL     1      47.858   4.490  21.509  0.00  0.00    +0.000 OA
ATOM     26  H   UNL     1      47.079   4.302  20.954  0.00  0.00    +0.000 HD
ENDBRANCH  24  25
ENDBRANCH  23  24
ENDBRANCH  22  23
BRANCH  22  27
ATOM     27  C   UNL     1      50.885   4.855  18.453  0.00  0.00    +0.000 C 
BRANCH  27  28
ATOM     28  C   UNL     1      51.455   3.477  18.181  0.00  0.00    +0.000 A 
ATOM     29  C   UNL     1      50.845   2.479  17.419  0.00  0.00    +0.000 A 
ATOM     30  C   UNL     1      51.475   1.242  17.255  0.00  0.00    +0.000 A 
ATOM     31  C   UNL     1      52.705   1.038  17.853  0.00  0.00    +0.000 A 
ATOM     32  N   UNL     1      53.333   1.974  18.593  0.00  0.00    +0.000 NA
ATOM     33  C   UNL     1      52.697   3.160  18.737  0.00  0.00    +0.000 A 
ENDBRANCH  27  28
ENDBRANCH  22  27
ENDBRANCH   4  22
TORSDOF 9
ENDMDL
MODEL 7
REMARK VINA RESULT:    -6.264      3.117      4.863
REMARK INTER + INTRA:         -10.640
REMARK INTER:                  -9.655
REMARK INTRA:                  -0.985
REMARK UNBOUND:                -1.262
REMARK  Name = 
REMARK  10 active torsions:
REMARK  status: ('A' for Active; 'I' for Inactive)
REMARK    1  A    between atoms: C_1  and  C_2
REMARK    2  A    between atoms: C_8  and  C_9
REMARK    3  A    between atoms: N_11  and  C_12
REMARK    4  A    between atoms: C_12  and  C_13
REMARK    5  A    between atoms: C_16  and  N_17
REMARK    6  A    between atoms: N_17  and  C_18
REMARK    7  A    between atoms: N_17  and  C_21
REMARK    8  A    between atoms: C_18  and  C_19
REMARK    9  A    between atoms: C_19  and  O_20
REMARK   10  A    between atoms: C_21  and  C_22
REMARK                            x       y       z     vdW  Elec       q    Type
REMARK                         _______ _______ _______ _____ _____    ______ ____
ROOT
ATOM      1  C   UNL     1      47.713   6.235  13.748  0.00  0.00    +0.000 A 
ATOM      2  C   UNL     1      47.029   5.057  14.048  0.00  0.00    +0.000 A 
ATOM      3  C   UNL     1      46.061   4.541  13.163  0.00  0.00    +0.000 A 
ATOM      4  C   UNL     1      45.701   5.193  11.972  0.00  0.00    +0.000 A 
ATOM      5  C   UNL     1      46.430   6.362  11.690  0.00  0.00    +0.000 A 
ATOM      6  C   UNL     1      47.425   6.864  12.540  0.00  0.00    +0.000 A 
ENDROOT
BRANCH   1   7
ATOM      7  C   UNL     1      48.699   6.847  14.702  0.00  0.00    +0.000 C 
BRANCH   7  10
ATOM      8  C   UNL     1      50.373   8.481  14.063  0.00  0.00    +0.000 C 
ATOM      9  O   UNL     1      49.599   9.355  14.452  0.00  0.00    +0.000 OA
ATOM     10  N   UNL     1      49.980   7.154  14.101  0.00  0.00    +0.000 N 
ATOM     11  H   UNL     1      50.654   6.406  14.008  0.00  0.00    +0.000 HD
BRANCH   8  19
ATOM     12  C   UNL     1      50.328   7.808  10.620  0.00  0.00    +0.000 C 
ATOM     13  C   UNL     1      51.707   8.116  11.059  0.00  0.00    +0.000 A 
ATOM     14  C   UNL     1      52.873   8.134  10.284  0.00  0.00    +0.000 A 
ATOM     15  N   UNL     1      53.976   8.477  11.084  0.00  0.00    +0.000 N 
ATOM     16  C   UNL     1      53.515   8.679  12.342  0.00  0.00    +0.000 A 
ATOM     17  N   UNL     1      54.013   9.020  13.562  0.00  0.00    +0.000 NA
ATOM     18  C   UNL     1      52.880   8.983  14.351  0.00  0.00    +0.000 C 
ATOM     19  C   UNL     1      51.715   8.658  13.592  0.00  0.00    +0.000 C 
ATOM     20  C   UNL     1      52.201   8.457  12.296  0.00  0.00    +0.000 A 
ATOM     21  H   UNL     1      54.938   8.558  10.787  0.00  0.00    +0.000 HD
ENDBRANCH   8  19
ENDBRANCH   7  10
ENDBRANCH   1   7
BRANCH   4  22
ATOM     22  N   UNL     1      44.706   4.729  11.115  0.00  0.00    +0.000 N 
BRANCH  22  23
ATOM     23  C   UNL     1      43.409   4.205  11.602  0.00  0.00    +0.000 C 
BRANCH  23  24
ATOM     24  C   UNL     1      43.485   2.817  12.266  0.00  0.00    +0.000 C 
BRANCH  24  25
ATOM     25  O   UNL     1      42.802   1.820  11.511  0.00  0.00    +0.000 OA
ATOM     26  H   UNL     1      42.852   1.010  12.051  0.00  0.00    +0.000 HD
ENDBRANCH  24  25
ENDBRANCH  23  24
ENDBRANCH  22  23
BRANCH  22  27
ATOM     27  C   UNL     1      44.803   4.944   9.652  0.00  0.00    +0.000 C 
BRANCH  27  28
ATOM     28  C   UNL     1      45.544   3.887   8.855  0.00  0.00    +0.000 A 
ATOM     29  C   UNL     1      46.431   4.132   7.806  0.00  0.00    +0.000 A 
ATOM     30  C   UNL     1      47.041   3.063   7.143  0.00  0.00    +0.000 A 
ATOM     31  C   UNL     1      46.752   1.774   7.555  0.00  0.00    +0.000 A 
ATOM     32  N   UNL     1      45.907   1.491   8.567  0.00  0.00    +0.000 NA
ATOM     33  C   UNL     1      45.329   2.547   9.186  0.00  0.00    +0.000 A 
ENDBRANCH  27  28
ENDBRANCH  22  27
ENDBRANCH   4  22
TORSDOF 9
ENDMDL
MODEL 8
REMARK VINA RESULT:    -6.210      2.312      2.950
REMARK INTER + INTRA:         -10.558
REMARK INTER:                  -9.379
REMARK INTRA:                  -1.179
REMARK UNBOUND:                -1.262
REMARK  Name = 
REMARK  10 active torsions:
REMARK  status: ('A' for Active; 'I' for Inactive)
REMARK    1  A    between atoms: C_1  and  C_2
REMARK    2  A    between atoms: C_8  and  C_9
REMARK    3  A    between atoms: N_11  and  C_12
REMARK    4  A    between atoms: C_12  and  C_13
REMARK    5  A    between atoms: C_16  and  N_17
REMARK    6  A    between atoms: N_17  and  C_18
REMARK    7  A    between atoms: N_17  and  C_21
REMARK    8  A    between atoms: C_18  and  C_19
REMARK    9  A    between atoms: C_19  and  O_20
REMARK   10  A    between atoms: C_21  and  C_22
REMARK                            x       y       z     vdW  Elec       q    Type
REMARK                         _______ _______ _______ _____ _____    ______ ____
ROOT
ATOM      1  C   UNL     1      47.600   7.341  12.962  0.00  0.00    +0.000 A 
ATOM      2  C   UNL     1      47.329   6.189  13.701  0.00  0.00    +0.000 A 
ATOM      3  C   UNL     1      46.538   5.156  13.160  0.00  0.00    +0.000 A 
ATOM      4  C   UNL     1      45.948   5.242  11.887  0.00  0.00    +0.000 A 
ATOM      5  C   UNL     1      46.266   6.404  11.163  0.00  0.00    +0.000 A 
ATOM      6  C   UNL     1      47.085   7.421  11.671  0.00  0.00    +0.000 A 
ENDROOT
BRANCH   1   7
ATOM      7  C   UNL     1      48.382   8.488  13.536  0.00  0.00    +0.000 C 
BRANCH   7  10
ATOM      8  C   UNL     1      50.200   8.624  15.136  0.00  0.00    +0.000 C 
ATOM      9  O   UNL     1      49.502   9.397  15.791  0.00  0.00    +0.000 OA
ATOM     10  N   UNL     1      49.732   8.139  13.926  0.00  0.00    +0.000 N 
ATOM     11  H   UNL     1      50.166   7.343  13.479  0.00  0.00    +0.000 HD
BRANCH   8  19
ATOM     12  C   UNL     1      49.600   5.648  16.894  0.00  0.00    +0.000 C 
ATOM     13  C   UNL     1      51.053   5.921  16.840  0.00  0.00    +0.000 A 
ATOM     14  C   UNL     1      52.093   5.167  17.399  0.00  0.00    +0.000 A 
ATOM     15  N   UNL     1      53.329   5.771  17.115  0.00  0.00    +0.000 N 
ATOM     16  C   UNL     1      53.078   6.883  16.385  0.00  0.00    +0.000 A 
ATOM     17  N   UNL     1      53.780   7.892  15.799  0.00  0.00    +0.000 NA
ATOM     18  C   UNL     1      52.769   8.665  15.260  0.00  0.00    +0.000 C 
ATOM     19  C   UNL     1      51.482   8.095  15.497  0.00  0.00    +0.000 C 
ATOM     20  C   UNL     1      51.753   6.946  16.247  0.00  0.00    +0.000 A 
ATOM     21  H   UNL     1      54.241   5.445  17.401  0.00  0.00    +0.000 HD
ENDBRANCH   8  19
ENDBRANCH   7  10
ENDBRANCH   1   7
BRANCH   4  22
ATOM     22  N   UNL     1      45.116   4.258  11.360  0.00  0.00    +0.000 N 
BRANCH  22  23
ATOM     23  C   UNL     1      44.453   3.234  12.201  0.00  0.00    +0.000 C 
BRANCH  23  24
ATOM     24  C   UNL     1      43.083   2.760  11.678  0.00  0.00    +0.000 C 
BRANCH  24  25
ATOM     25  O   UNL     1      43.000   1.341  11.594  0.00  0.00    +0.000 OA
ATOM     26  H   UNL     1      42.172   1.104  12.052  0.00  0.00    +0.000 HD
ENDBRANCH  24  25
ENDBRANCH  23  24
ENDBRANCH  22  23
BRANCH  22  27
ATOM     27  C   UNL     1      44.669   4.317   9.949  0.00  0.00    +0.000 C 
BRANCH  27  28
ATOM     28  C   UNL     1      45.475   3.518   8.944  0.00  0.00    +0.000 A 
ATOM     29  C   UNL     1      46.262   4.053   7.923  0.00  0.00    +0.000 A 
ATOM     30  C   UNL     1      46.949   3.201   7.051  0.00  0.00    +0.000 A 
ATOM     31  C   UNL     1      46.835   1.835   7.232  0.00  0.00    +0.000 A 
ATOM     32  N   UNL     1      46.091   1.275   8.207  0.00  0.00    +0.000 NA
ATOM     33  C   UNL     1      45.435   2.125   9.032  0.00  0.00    +0.000 A 
ENDBRANCH  27  28
ENDBRANCH  22  27
ENDBRANCH   4  22
TORSDOF 9
ENDMDL
MODEL 9
REMARK VINA RESULT:    -5.857      3.186      9.936
REMARK INTER + INTRA:         -10.030
REMARK INTER:                  -8.791
REMARK INTRA:                  -1.239
REMARK UNBOUND:                -1.262
REMARK  Name = 
REMARK  10 active torsions:
REMARK  status: ('A' for Active; 'I' for Inactive)
REMARK    1  A    between atoms: C_1  and  C_2
REMARK    2  A    between atoms: C_8  and  C_9
REMARK    3  A    between atoms: N_11  and  C_12
REMARK    4  A    between atoms: C_12  and  C_13
REMARK    5  A    between atoms: C_16  and  N_17
REMARK    6  A    between atoms: N_17  and  C_18
REMARK    7  A    between atoms: N_17  and  C_21
REMARK    8  A    between atoms: C_18  and  C_19
REMARK    9  A    between atoms: C_19  and  O_20
REMARK   10  A    between atoms: C_21  and  C_22
REMARK                            x       y       z     vdW  Elec       q    Type
REMARK                         _______ _______ _______ _____ _____    ______ ____
ROOT
ATOM      1  C   UNL     1      48.179   3.896  16.749  0.00  0.00    +0.000 A 
ATOM      2  C   UNL     1      48.581   5.216  16.949  0.00  0.00    +0.000 A 
ATOM      3  C   UNL     1      49.645   5.522  17.821  0.00  0.00    +0.000 A 
ATOM      4  C   UNL     1      50.320   4.539  18.564  0.00  0.00    +0.000 A 
ATOM      5  C   UNL     1      49.906   3.218  18.317  0.00  0.00    +0.000 A 
ATOM      6  C   UNL     1      48.878   2.896  17.420  0.00  0.00    +0.000 A 
ENDROOT
BRANCH   1   7
ATOM      7  C   UNL     1      47.006   3.544  15.879  0.00  0.00    +0.000 C 
BRANCH   7  10
ATOM      8  C   UNL     1      46.700   4.605  13.720  0.00  0.00    +0.000 C 
ATOM      9  O   UNL     1      47.352   3.684  13.229  0.00  0.00    +0.000 OA
ATOM     10  N   UNL     1      46.510   4.652  15.091  0.00  0.00    +0.000 N 
ATOM     11  H   UNL     1      45.805   5.250  15.500  0.00  0.00    +0.000 HD
BRANCH   8  19
ATOM     12  C   UNL     1      43.617   3.330  12.637  0.00  0.00    +0.000 C 
ATOM     13  C   UNL     1      43.780   4.725  12.173  0.00  0.00    +0.000 A 
ATOM     14  C   UNL     1      42.894   5.484  11.398  0.00  0.00    +0.000 A 
ATOM     15  N   UNL     1      43.425   6.766  11.180  0.00  0.00    +0.000 N 
ATOM     16  C   UNL     1      44.622   6.821  11.811  0.00  0.00    +0.000 A 
ATOM     17  N   UNL     1      45.627   7.718  12.003  0.00  0.00    +0.000 NA
ATOM     18  C   UNL     1      46.528   6.981  12.748  0.00  0.00    +0.000 C 
ATOM     19  C   UNL     1      46.039   5.668  13.023  0.00  0.00    +0.000 C 
ATOM     20  C   UNL     1      44.801   5.624  12.371  0.00  0.00    +0.000 A 
ATOM     21  H   UNL     1      43.002   7.515  10.650  0.00  0.00    +0.000 HD
ENDBRANCH   8  19
ENDBRANCH   7  10
ENDBRANCH   1   7
BRANCH   4  22
ATOM     22  N   UNL     1      51.333   4.828  19.475  0.00  0.00    +0.000 N 
BRANCH  22  23
ATOM     23  C   UNL     1      52.718   5.147  19.059  0.00  0.00    +0.000 C 
BRANCH  23  24
ATOM     24  C   UNL     1      53.637   3.922  18.889  0.00  0.00    +0.000 C 
BRANCH  24  25
ATOM     25  O   UNL     1      53.186   2.801  19.644  0.00  0.00    +0.000 OA
ATOM     26  H   UNL     1      53.002   2.106  18.986  0.00  0.00    +0.000 HD
ENDBRANCH  24  25
ENDBRANCH  23  24
ENDBRANCH  22  23
BRANCH  22  27
ATOM     27  C   UNL     1      51.025   5.052  20.907  0.00  0.00    +0.000 C 
BRANCH  27  28
ATOM     28  C   UNL     1      49.702   5.720  21.225  0.00  0.00    +0.000 A 
ATOM     29  C   UNL     1      48.509   5.061  21.527  0.00  0.00    +0.000 A 
ATOM     30  C   UNL     1      47.351   5.799  21.790  0.00  0.00    +0.000 A 
ATOM     31  C   UNL     1      47.420   7.180  21.751  0.00  0.00    +0.000 A 
ATOM     32  N   UNL     1      48.551   7.858  21.469  0.00  0.00    +0.000 NA
ATOM     33  C   UNL     1      49.654   7.116  21.215  0.00  0.00    +0.000 A 
ENDBRANCH  27  28
ENDBRANCH  22  27
ENDBRANCH   4  22
TORSDOF 9
ENDMDL
