MODEL 1
REMARK VINA RESULT:    -8.426      0.000      0.000
REMARK INTER + INTRA:         -13.006
REMARK INTER:                 -11.874
REMARK INTRA:                  -1.132
REMARK UNBOUND:                -1.132
REMARK  Name = 
REMARK  8 active torsions:
REMARK  status: ('A' for Active; 'I' for Inactive)
REMARK    1  A    between atoms: C_1  and  C_2
REMARK    2  A    between atoms: C_2  and  C_3
REMARK    3  A    between atoms: C_2  and  C_14
REMARK    4  A    between atoms: C_3  and  O_4
REMARK    5  A    between atoms: O_4  and  C_5
REMARK    6  A    between atoms: C_8  and  C_9
REMARK    7  A    between atoms: C_18  and  O_19
REMARK    8  A    between atoms: O_19  and  C_20
REMARK                            x       y       z     vdW  Elec       q    Type
REMARK                         _______ _______ _______ _____ _____    ______ ____
ROOT
ATOM      1  C   UNL     1      42.820   5.368  12.340  0.00  0.00    +0.000 C 
ATOM      2  C   UNL     1      43.843   4.316  12.779  0.00  0.00    +0.000 C 
ENDROOT
BRANCH   2   3
ATOM      3  C   UNL     1      45.240   4.906  12.903  0.00  0.00    +0.000 A 
ATOM      4  C   UNL     1      45.720   5.789  11.929  0.00  0.00    +0.000 A 
ATOM      5  C   UNL     1      46.973   6.393  12.076  0.00  0.00    +0.000 A 
ATOM      6  C   UNL     1      47.765   6.119  13.194  0.00  0.00    +0.000 A 
ATOM      7  C   UNL     1      47.311   5.225  14.157  0.00  0.00    +0.000 A 
ATOM      8  C   UNL     1      46.056   4.629  14.013  0.00  0.00    +0.000 A 
BRANCH   7   9
ATOM      9  O   UNL     1      47.985   4.897  15.306  0.00  0.00    +0.000 OA
BRANCH   9  10
ATOM     10  C   UNL     1      47.325   4.073  16.294  0.00  0.00    +0.000 C 
ATOM     11  C   UNL     1      47.314   4.568  17.755  0.00  0.00    +0.000 C 
ATOM     12  N   UNL     1      47.841   3.273  18.213  0.00  0.00    +0.000 NA
ATOM     13  C   UNL     1      48.169   2.898  16.829  0.00  0.00    +0.000 C 
ATOM     14  H   UNL     1      47.146   2.670  18.652  0.00  0.00    +0.000 HD
ENDBRANCH   9  10
ENDBRANCH   7   9
ENDBRANCH   2   3
BRANCH   2  15
ATOM     15  C   UNL     1      43.871   3.108  11.825  0.00  0.00    +0.000 C 
BRANCH  15  16
ATOM     16  O   UNL     1      43.496   3.498  10.500  0.00  0.00    +0.000 OA
BRANCH  16  17
ATOM     17  C   UNL     1      44.455   3.323   9.536  0.00  0.00    +0.000 A 
ATOM     18  C   UNL     1      45.008   4.336   8.749  0.00  0.00    +0.000 A 
ATOM     19  C   UNL     1      45.986   4.036   7.800  0.00  0.00    +0.000 A 
ATOM     20  C   UNL     1      46.432   2.722   7.628  0.00  0.00    +0.000 A 
ATOM     21  C   UNL     1      45.872   1.701   8.405  0.00  0.00    +0.000 A 
ATOM     22  C   UNL     1      44.888   2.006   9.355  0.00  0.00    +0.000 A 
BRANCH  20  23
ATOM     23  C   UNL     1      47.472   2.471   6.599  0.00  0.00    +0.000 C 
ATOM     24  N   UNL     1      47.353   3.123   5.406  0.00  0.00    +0.000 N 
ATOM     25  O   UNL     1      48.385   1.676   6.789  0.00  0.00    +0.000 OA
ATOM     26  H   UNL     1      46.505   3.591   5.121  0.00  0.00    +0.000 HD
ATOM     27  H   UNL     1      48.004   2.845   4.681  0.00  0.00    +0.000 HD
ENDBRANCH  20  23
ENDBRANCH  16  17
ENDBRANCH  15  16
ENDBRANCH   2  15
TORSDOF 7
ENDMDL
MODEL 2
REMARK VINA RESULT:    -7.409      2.547      3.693
REMARK INTER + INTRA:         -11.572
REMARK INTER:                 -10.544
REMARK INTRA:                  -1.029
REMARK UNBOUND:                -1.132
REMARK  Name = 
REMARK  8 active torsions:
REMARK  status: ('A' for Active; 'I' for Inactive)
REMARK    1  A    between atoms: C_1  and  C_2
REMARK    2  A    between atoms: C_2  and  C_3
REMARK    3  A    between atoms: C_2  and  C_14
REMARK    4  A    between atoms: C_3  and  O_4
REMARK    5  A    between atoms: O_4  and  C_5
REMARK    6  A    between atoms: C_8  and  C_9
REMARK    7  A    between atoms: C_18  and  O_19
REMARK    8  A    between atoms: O_19  and  C_20
REMARK                            x       y       z     vdW  Elec       q    Type
REMARK                         _______ _______ _______ _____ _____    ______ ____
ROOT
ATOM      1  C   UNL     1      42.823   6.113  11.568  0.00  0.00    +0.000 C 
ATOM      2  C   UNL     1      43.538   4.926  12.220  0.00  0.00    +0.000 C 
ENDROOT
BRANCH   2   3
ATOM      3  C   UNL     1      44.955   5.285  12.644  0.00  0.00    +0.000 A 
ATOM      4  C   UNL     1      45.595   4.557  13.653  0.00  0.00    +0.000 A 
ATOM      5  C   UNL     1      46.922   4.834  13.995  0.00  0.00    +0.000 A 
ATOM      6  C   UNL     1      47.627   5.845  13.336  0.00  0.00    +0.000 A 
ATOM      7  C   UNL     1      46.996   6.593  12.347  0.00  0.00    +0.000 A 
ATOM      8  C   UNL     1      45.673   6.310  12.002  0.00  0.00    +0.000 A 
BRANCH   7   9
ATOM      9  O   UNL     1      47.591   7.590  11.616  0.00  0.00    +0.000 OA
BRANCH   9  10
ATOM     10  C   UNL     1      48.781   8.225  12.137  0.00  0.00    +0.000 C 
ATOM     11  C   UNL     1      49.092   9.663  11.677  0.00  0.00    +0.000 C 
ATOM     12  N   UNL     1      50.456   9.262  11.296  0.00  0.00    +0.000 NA
ATOM     13  C   UNL     1      50.090   7.843  11.414  0.00  0.00    +0.000 C 
ATOM     14  H   UNL     1      51.177   9.560  11.952  0.00  0.00    +0.000 HD
ENDBRANCH   9  10
ENDBRANCH   7   9
ENDBRANCH   2   3
BRANCH   2  15
ATOM     15  C   UNL     1      43.568   3.694  11.298  0.00  0.00    +0.000 C 
BRANCH  15  16
ATOM     16  O   UNL     1      43.636   4.090   9.924  0.00  0.00    +0.000 OA
BRANCH  16  17
ATOM     17  C   UNL     1      44.617   3.486   9.180  0.00  0.00    +0.000 A 
ATOM     18  C   UNL     1      44.920   2.122   9.192  0.00  0.00    +0.000 A 
ATOM     19  C   UNL     1      45.941   1.620   8.384  0.00  0.00    +0.000 A 
ATOM     20  C   UNL     1      46.668   2.471   7.545  0.00  0.00    +0.000 A 
ATOM     21  C   UNL     1      46.376   3.839   7.538  0.00  0.00    +0.000 A 
ATOM     22  C   UNL     1      45.353   4.340   8.353  0.00  0.00    +0.000 A 
BRANCH  20  23
ATOM     23  C   UNL     1      47.742   1.873   6.713  0.00  0.00    +0.000 C 
ATOM     24  N   UNL     1      48.771   2.684   6.328  0.00  0.00    +0.000 N 
ATOM     25  O   UNL     1      47.695   0.705   6.344  0.00  0.00    +0.000 OA
ATOM     26  H   UNL     1      48.730   3.690   6.403  0.00  0.00    +0.000 HD
ATOM     27  H   UNL     1      49.425   2.287   5.665  0.00  0.00    +0.000 HD
ENDBRANCH  20  23
ENDBRANCH  16  17
ENDBRANCH  15  16
ENDBRANCH   2  15
TORSDOF 7
ENDMDL
MODEL 3
REMARK VINA RESULT:    -7.140      3.423      5.131
REMARK INTER + INTRA:         -11.193
REMARK INTER:                 -10.348
REMARK INTRA:                  -0.846
REMARK UNBOUND:                -1.132
REMARK  Name = 
REMARK  8 active torsions:
REMARK  status: ('A' for Active; 'I' for Inactive)
REMARK    1  A    between atoms: C_1  and  C_2
REMARK    2  A    between atoms: C_2  and  C_3
REMARK    3  A    between atoms: C_2  and  C_14
REMARK    4  A    between atoms: C_3  and  O_4
REMARK    5  A    between atoms: O_4  and  C_5
REMARK    6  A    between atoms: C_8  and  C_9
REMARK    7  A    between atoms: C_18  and  O_19
REMARK    8  A    between atoms: O_19  and  C_20
REMARK                            x       y       z     vdW  Elec       q    Type
REMARK                         _______ _______ _______ _____ _____    ______ ____
ROOT
ATOM      1  C   UNL     1      45.874   3.868  12.790  0.00  0.00    +0.000 C 
ATOM      2  C   UNL     1      45.453   4.781  11.634  0.00  0.00    +0.000 C 
ENDROOT
BRANCH   2   3
ATOM      3  C   UNL     1      45.871   6.223  11.875  0.00  0.00    +0.000 A 
ATOM      4  C   UNL     1      47.211   6.534  12.137  0.00  0.00    +0.000 A 
ATOM      5  C   UNL     1      47.615   7.864  12.284  0.00  0.00    +0.000 A 
ATOM      6  C   UNL     1      46.686   8.903  12.178  0.00  0.00    +0.000 A 
ATOM      7  C   UNL     1      45.347   8.608  11.941  0.00  0.00    +0.000 A 
ATOM      8  C   UNL     1      44.947   7.279  11.786  0.00  0.00    +0.000 A 
BRANCH   7   9
ATOM      9  O   UNL     1      44.351   9.540  11.792  0.00  0.00    +0.000 OA
BRANCH   9  10
ATOM     10  C   UNL     1      43.652   9.620  10.529  0.00  0.00    +0.000 C 
ATOM     11  C   UNL     1      43.721  10.948   9.749  0.00  0.00    +0.000 C 
ATOM     12  N   UNL     1      42.254  10.976   9.635  0.00  0.00    +0.000 NA
ATOM     13  C   UNL     1      42.140   9.909  10.641  0.00  0.00    +0.000 C 
ATOM     14  H   UNL     1      41.901  10.718   8.715  0.00  0.00    +0.000 HD
ENDBRANCH   9  10
ENDBRANCH   7   9
ENDBRANCH   2   3
BRANCH   2  15
ATOM     15  C   UNL     1      43.937   4.715  11.372  0.00  0.00    +0.000 C 
BRANCH  15  16
ATOM     16  O   UNL     1      43.669   4.593   9.972  0.00  0.00    +0.000 OA
BRANCH  16  17
ATOM     17  C   UNL     1      44.560   3.831   9.261  0.00  0.00    +0.000 A 
ATOM     18  C   UNL     1      44.665   2.439   9.320  0.00  0.00    +0.000 A 
ATOM     19  C   UNL     1      45.612   1.770   8.542  0.00  0.00    +0.000 A 
ATOM     20  C   UNL     1      46.460   2.481   7.687  0.00  0.00    +0.000 A 
ATOM     21  C   UNL     1      46.367   3.876   7.633  0.00  0.00    +0.000 A 
ATOM     22  C   UNL     1      45.418   4.544   8.418  0.00  0.00    +0.000 A 
BRANCH  20  23
ATOM     23  C   UNL     1      47.445   1.709   6.889  0.00  0.00    +0.000 C 
ATOM     24  N   UNL     1      48.483   2.396   6.327  0.00  0.00    +0.000 N 
ATOM     25  O   UNL     1      47.317   0.505   6.700  0.00  0.00    +0.000 OA
ATOM     26  H   UNL     1      48.496   3.403   6.256  0.00  0.00    +0.000 HD
ATOM     27  H   UNL     1      49.071   1.871   5.692  0.00  0.00    +0.000 HD
ENDBRANCH  20  23
ENDBRANCH  16  17
ENDBRANCH  15  16
ENDBRANCH   2  15
TORSDOF 7
ENDMDL
MODEL 4
REMARK VINA RESULT:    -7.120      1.705      2.245
REMARK INTER + INTRA:         -11.165
REMARK INTER:                 -10.444
REMARK INTRA:                  -0.721
REMARK UNBOUND:                -1.132
REMARK  Name = 
REMARK  8 active torsions:
REMARK  status: ('A' for Active; 'I' for Inactive)
REMARK    1  A    between atoms: C_1  and  C_2
REMARK    2  A    between atoms: C_2  and  C_3
REMARK    3  A    between atoms: C_2  and  C_14
REMARK    4  A    between atoms: C_3  and  O_4
REMARK    5  A    between atoms: O_4  and  C_5
REMARK    6  A    between atoms: C_8  and  C_9
REMARK    7  A    between atoms: C_18  and  O_19
REMARK    8  A    between atoms: O_19  and  C_20
REMARK                            x       y       z     vdW  Elec       q    Type
REMARK                         _______ _______ _______ _____ _____    ______ ____
ROOT
ATOM      1  C   UNL     1      45.248   3.732  12.769  0.00  0.00    +0.000 C 
ATOM      2  C   UNL     1      45.688   4.794  11.757  0.00  0.00    +0.000 C 
ENDROOT
BRANCH   2   3
ATOM      3  C   UNL     1      46.338   5.987  12.440  0.00  0.00    +0.000 A 
ATOM      4  C   UNL     1      45.689   7.227  12.462  0.00  0.00    +0.000 A 
ATOM      5  C   UNL     1      46.246   8.308  13.152  0.00  0.00    +0.000 A 
ATOM      6  C   UNL     1      47.462   8.167  13.826  0.00  0.00    +0.000 A 
ATOM      7  C   UNL     1      48.131   6.948  13.793  0.00  0.00    +0.000 A 
ATOM      8  C   UNL     1      47.569   5.867  13.109  0.00  0.00    +0.000 A 
BRANCH   7   9
ATOM      9  O   UNL     1      49.314   6.682  14.435  0.00  0.00    +0.000 OA
BRANCH   9  10
ATOM     10  C   UNL     1      49.348   6.714  15.880  0.00  0.00    +0.000 C 
ATOM     11  C   UNL     1      50.628   6.217  16.582  0.00  0.00    +0.000 C 
ATOM     12  N   UNL     1      49.831   5.317  17.431  0.00  0.00    +0.000 NA
ATOM     13  C   UNL     1      48.656   5.521  16.572  0.00  0.00    +0.000 C 
ATOM     14  H   UNL     1      49.708   5.646  18.387  0.00  0.00    +0.000 HD
ENDBRANCH   9  10
ENDBRANCH   7   9
ENDBRANCH   2   3
BRANCH   2  15
ATOM     15  C   UNL     1      44.518   5.271  10.878  0.00  0.00    +0.000 C 
BRANCH  15  16
ATOM     16  O   UNL     1      43.954   4.179  10.145  0.00  0.00    +0.000 OA
BRANCH  16  17
ATOM     17  C   UNL     1      44.811   3.532   9.291  0.00  0.00    +0.000 A 
ATOM     18  C   UNL     1      44.998   2.150   9.222  0.00  0.00    +0.000 A 
ATOM     19  C   UNL     1      45.898   1.605   8.305  0.00  0.00    +0.000 A 
ATOM     20  C   UNL     1      46.618   2.433   7.437  0.00  0.00    +0.000 A 
ATOM     21  C   UNL     1      46.443   3.819   7.510  0.00  0.00    +0.000 A 
ATOM     22  C   UNL     1      45.541   4.363   8.435  0.00  0.00    +0.000 A 
BRANCH  20  23
ATOM     23  C   UNL     1      47.560   1.790   6.487  0.00  0.00    +0.000 C 
ATOM     24  N   UNL     1      48.609   2.537   6.032  0.00  0.00    +0.000 N 
ATOM     25  O   UNL     1      47.387   0.645   6.087  0.00  0.00    +0.000 OA
ATOM     26  H   UNL     1      48.654   3.539   6.144  0.00  0.00    +0.000 HD
ATOM     27  H   UNL     1      49.166   2.118   5.298  0.00  0.00    +0.000 HD
ENDBRANCH  20  23
ENDBRANCH  16  17
ENDBRANCH  15  16
ENDBRANCH   2  15
TORSDOF 7
ENDMDL
MODEL 5
REMARK VINA RESULT:    -6.607      1.699      7.976
REMARK INTER + INTRA:         -10.442
REMARK INTER:                  -9.588
REMARK INTRA:                  -0.855
REMARK UNBOUND:                -1.132
REMARK  Name = 
REMARK  8 active torsions:
REMARK  status: ('A' for Active; 'I' for Inactive)
REMARK    1  A    between atoms: C_1  and  C_2
REMARK    2  A    between atoms: C_2  and  C_3
REMARK    3  A    between atoms: C_2  and  C_14
REMARK    4  A    between atoms: C_3  and  O_4
REMARK    5  A    between atoms: O_4  and  C_5
REMARK    6  A    between atoms: C_8  and  C_9
REMARK    7  A    between atoms: C_18  and  O_19
REMARK    8  A    between atoms: O_19  and  C_20
REMARK                            x       y       z     vdW  Elec       q    Type
REMARK                         _______ _______ _______ _____ _____    ______ ____
ROOT
ATOM      1  C   UNL     1      44.363   6.755  11.598  0.00  0.00    +0.000 C 
ATOM      2  C   UNL     1      45.518   6.356  10.674  0.00  0.00    +0.000 C 
ENDROOT
BRANCH   2   3
ATOM      3  C   UNL     1      45.290   4.990  10.045  0.00  0.00    +0.000 A 
ATOM      4  C   UNL     1      44.631   3.985  10.762  0.00  0.00    +0.000 A 
ATOM      5  C   UNL     1      44.352   2.753  10.164  0.00  0.00    +0.000 A 
ATOM      6  C   UNL     1      44.731   2.505   8.841  0.00  0.00    +0.000 A 
ATOM      7  C   UNL     1      45.408   3.486   8.124  0.00  0.00    +0.000 A 
ATOM      8  C   UNL     1      45.679   4.719   8.721  0.00  0.00    +0.000 A 
BRANCH   7   9
ATOM      9  O   UNL     1      45.808   3.369   6.817  0.00  0.00    +0.000 OA
BRANCH   9  10
ATOM     10  C   UNL     1      46.574   2.209   6.421  0.00  0.00    +0.000 C 
ATOM     11  C   UNL     1      48.078   2.188   6.761  0.00  0.00    +0.000 C 
ATOM     12  N   UNL     1      48.406   1.872   5.361  0.00  0.00    +0.000 NA
ATOM     13  C   UNL     1      47.034   2.206   4.948  0.00  0.00    +0.000 C 
ATOM     14  H   UNL     1      48.661   0.899   5.201  0.00  0.00    +0.000 HD
ENDBRANCH   9  10
ENDBRANCH   7   9
ENDBRANCH   2   3
BRANCH   2  15
ATOM     15  C   UNL     1      46.872   6.373  11.406  0.00  0.00    +0.000 C 
BRANCH  15  16
ATOM     16  O   UNL     1      46.754   7.017  12.678  0.00  0.00    +0.000 OA
BRANCH  16  17
ATOM     17  C   UNL     1      47.121   6.262  13.762  0.00  0.00    +0.000 A 
ATOM     18  C   UNL     1      48.125   6.588  14.677  0.00  0.00    +0.000 A 
ATOM     19  C   UNL     1      48.406   5.740  15.748  0.00  0.00    +0.000 A 
ATOM     20  C   UNL     1      47.683   4.556  15.928  0.00  0.00    +0.000 A 
ATOM     21  C   UNL     1      46.683   4.218  15.008  0.00  0.00    +0.000 A 
ATOM     22  C   UNL     1      46.406   5.071  13.931  0.00  0.00    +0.000 A 
BRANCH  20  23
ATOM     23  C   UNL     1      48.033   3.698  17.086  0.00  0.00    +0.000 C 
ATOM     24  N   UNL     1      47.099   2.798  17.513  0.00  0.00    +0.000 N 
ATOM     25  O   UNL     1      49.103   3.814  17.672  0.00  0.00    +0.000 OA
ATOM     26  H   UNL     1      46.133   2.833  17.221  0.00  0.00    +0.000 HD
ATOM     27  H   UNL     1      47.313   2.310  18.374  0.00  0.00    +0.000 HD
ENDBRANCH  20  23
ENDBRANCH  16  17
ENDBRANCH  15  16
ENDBRANCH   2  15
TORSDOF 7
ENDMDL
MODEL 6
REMARK VINA RESULT:    -6.312      1.755      7.712
REMARK INTER + INTRA:         -10.027
REMARK INTER:                  -9.119
REMARK INTRA:                  -0.908
REMARK UNBOUND:                -1.132
REMARK  Name = 
REMARK  8 active torsions:
REMARK  status: ('A' for Active; 'I' for Inactive)
REMARK    1  A    between atoms: C_1  and  C_2
REMARK    2  A    between atoms: C_2  and  C_3
REMARK    3  A    between atoms: C_2  and  C_14
REMARK    4  A    between atoms: C_3  and  O_4
REMARK    5  A    between atoms: O_4  and  C_5
REMARK    6  A    between atoms: C_8  and  C_9
REMARK    7  A    between atoms: C_18  and  O_19
REMARK    8  A    between atoms: O_19  and  C_20
REMARK                            x       y       z     vdW  Elec       q    Type
REMARK                         _______ _______ _______ _____ _____    ______ ____
ROOT
ATOM      1  C   UNL     1      45.975   8.469  12.840  0.00  0.00    +0.000 C 
ATOM      2  C   UNL     1      46.399   7.436  11.790  0.00  0.00    +0.000 C 
ENDROOT
BRANCH   2   3
ATOM      3  C   UNL     1      45.304   6.411  11.535  0.00  0.00    +0.000 A 
ATOM      4  C   UNL     1      43.957   6.775  11.648  0.00  0.00    +0.000 A 
ATOM      5  C   UNL     1      42.946   5.859  11.343  0.00  0.00    +0.000 A 
ATOM      6  C   UNL     1      43.266   4.564  10.926  0.00  0.00    +0.000 A 
ATOM      7  C   UNL     1      44.600   4.180  10.832  0.00  0.00    +0.000 A 
ATOM      8  C   UNL     1      45.608   5.100  11.130  0.00  0.00    +0.000 A 
BRANCH   7   9
ATOM      9  O   UNL     1      45.036   2.950  10.411  0.00  0.00    +0.000 OA
BRANCH   9  10
ATOM     10  C   UNL     1      44.912   2.604   9.013  0.00  0.00    +0.000 C 
ATOM     11  C   UNL     1      45.998   1.701   8.394  0.00  0.00    +0.000 C 
ATOM     12  N   UNL     1      46.199   2.665   7.301  0.00  0.00    +0.000 NA
ATOM     13  C   UNL     1      45.423   3.679   8.031  0.00  0.00    +0.000 C 
ATOM     14  H   UNL     1      45.782   2.385   6.414  0.00  0.00    +0.000 HD
ENDBRANCH   9  10
ENDBRANCH   7   9
ENDBRANCH   2   3
BRANCH   2  15
ATOM     15  C   UNL     1      47.703   6.719  12.182  0.00  0.00    +0.000 C 
BRANCH  15  16
ATOM     16  O   UNL     1      48.163   7.164  13.461  0.00  0.00    +0.000 OA
BRANCH  16  17
ATOM     17  C   UNL     1      48.035   6.262  14.485  0.00  0.00    +0.000 A 
ATOM     18  C   UNL     1      47.237   5.116  14.463  0.00  0.00    +0.000 A 
ATOM     19  C   UNL     1      47.192   4.266  15.569  0.00  0.00    +0.000 A 
ATOM     20  C   UNL     1      47.951   4.543  16.710  0.00  0.00    +0.000 A 
ATOM     21  C   UNL     1      48.744   5.695  16.743  0.00  0.00    +0.000 A 
ATOM     22  C   UNL     1      48.784   6.548  15.632  0.00  0.00    +0.000 A 
BRANCH  20  23
ATOM     23  C   UNL     1      47.856   3.599  17.852  0.00  0.00    +0.000 C 
ATOM     24  N   UNL     1      46.946   2.585  17.762  0.00  0.00    +0.000 N 
ATOM     25  O   UNL     1      48.536   3.742  18.862  0.00  0.00    +0.000 OA
ATOM     26  H   UNL     1      46.211   2.571  17.070  0.00  0.00    +0.000 HD
ATOM     27  H   UNL     1      46.816   2.029  18.599  0.00  0.00    +0.000 HD
ENDBRANCH  20  23
ENDBRANCH  16  17
ENDBRANCH  15  16
ENDBRANCH   2  15
TORSDOF 7
ENDMDL
MODEL 7
REMARK VINA RESULT:    -6.236      3.641      5.628
REMARK INTER + INTRA:          -9.920
REMARK INTER:                  -9.210
REMARK INTRA:                  -0.710
REMARK UNBOUND:                -1.132
REMARK  Name = 
REMARK  8 active torsions:
REMARK  status: ('A' for Active; 'I' for Inactive)
REMARK    1  A    between atoms: C_1  and  C_2
REMARK    2  A    between atoms: C_2  and  C_3
REMARK    3  A    between atoms: C_2  and  C_14
REMARK    4  A    between atoms: C_3  and  O_4
REMARK    5  A    between atoms: O_4  and  C_5
REMARK    6  A    between atoms: C_8  and  C_9
REMARK    7  A    between atoms: C_18  and  O_19
REMARK    8  A    between atoms: O_19  and  C_20
REMARK                            x       y       z     vdW  Elec       q    Type
REMARK                         _______ _______ _______ _____ _____    ______ ____
ROOT
ATOM      1  C   UNL     1      48.526   9.123  15.598  0.00  0.00    +0.000 C 
ATOM      2  C   UNL     1      48.450   7.656  15.162  0.00  0.00    +0.000 C 
ENDROOT
BRANCH   2   3
ATOM      3  C   UNL     1      49.422   6.786  15.944  0.00  0.00    +0.000 A 
ATOM      4  C   UNL     1      50.798   7.039  15.886  0.00  0.00    +0.000 A 
ATOM      5  C   UNL     1      51.690   6.291  16.661  0.00  0.00    +0.000 A 
ATOM      6  C   UNL     1      51.221   5.276  17.500  0.00  0.00    +0.000 A 
ATOM      7  C   UNL     1      49.859   4.998  17.550  0.00  0.00    +0.000 A 
ATOM      8  C   UNL     1      48.969   5.751  16.781  0.00  0.00    +0.000 A 
BRANCH   7   9
ATOM      9  O   UNL     1      49.280   4.046  18.351  0.00  0.00    +0.000 OA
BRANCH   9  10
ATOM     10  C   UNL     1      49.165   2.692  17.857  0.00  0.00    +0.000 C 
ATOM     11  C   UNL     1      50.386   2.079  17.143  0.00  0.00    +0.000 C 
ATOM     12  N   UNL     1      49.546   1.704  15.995  0.00  0.00    +0.000 NA
ATOM     13  C   UNL     1      48.456   2.557  16.493  0.00  0.00    +0.000 C 
ATOM     14  H   UNL     1      49.311   0.714  15.954  0.00  0.00    +0.000 HD
ENDBRANCH   9  10
ENDBRANCH   7   9
ENDBRANCH   2   3
BRANCH   2  15
ATOM     15  C   UNL     1      48.701   7.490  13.653  0.00  0.00    +0.000 C 
BRANCH  15  16
ATOM     16  O   UNL     1      48.479   6.136  13.247  0.00  0.00    +0.000 OA
BRANCH  16  17
ATOM     17  C   UNL     1      47.187   5.821  12.913  0.00  0.00    +0.000 A 
ATOM     18  C   UNL     1      46.364   4.930  13.606  0.00  0.00    +0.000 A 
ATOM     19  C   UNL     1      45.059   4.693  13.172  0.00  0.00    +0.000 A 
ATOM     20  C   UNL     1      44.554   5.348  12.044  0.00  0.00    +0.000 A 
ATOM     21  C   UNL     1      45.378   6.232  11.339  0.00  0.00    +0.000 A 
ATOM     22  C   UNL     1      46.689   6.466  11.776  0.00  0.00    +0.000 A 
BRANCH  20  23
ATOM     23  C   UNL     1      43.159   5.049  11.635  0.00  0.00    +0.000 C 
ATOM     24  N   UNL     1      42.252   6.069  11.682  0.00  0.00    +0.000 N 
ATOM     25  O   UNL     1      42.814   3.920  11.306  0.00  0.00    +0.000 OA
ATOM     26  H   UNL     1      42.432   6.936  12.166  0.00  0.00    +0.000 HD
ATOM     27  H   UNL     1      41.287   5.813  11.514  0.00  0.00    +0.000 HD
ENDBRANCH  20  23
ENDBRANCH  16  17
ENDBRANCH  15  16
ENDBRANCH   2  15
TORSDOF 7
ENDMDL
MODEL 8
REMARK VINA RESULT:    -6.195      2.918      7.608
REMARK INTER + INTRA:          -9.862
REMARK INTER:                  -8.799
REMARK INTRA:                  -1.063
REMARK UNBOUND:                -1.132
REMARK  Name = 
REMARK  8 active torsions:
REMARK  status: ('A' for Active; 'I' for Inactive)
REMARK    1  A    between atoms: C_1  and  C_2
REMARK    2  A    between atoms: C_2  and  C_3
REMARK    3  A    between atoms: C_2  and  C_14
REMARK    4  A    between atoms: C_3  and  O_4
REMARK    5  A    between atoms: O_4  and  C_5
REMARK    6  A    between atoms: C_8  and  C_9
REMARK    7  A    between atoms: C_18  and  O_19
REMARK    8  A    between atoms: O_19  and  C_20
REMARK                            x       y       z     vdW  Elec       q    Type
REMARK                         _______ _______ _______ _____ _____    ______ ____
ROOT
ATOM      1  C   UNL     1      48.895   9.691  12.509  0.00  0.00    +0.000 C 
ATOM      2  C   UNL     1      48.780   8.234  12.052  0.00  0.00    +0.000 C 
ENDROOT
BRANCH   2   3
ATOM      3  C   UNL     1      47.328   7.791  11.944  0.00  0.00    +0.000 A 
ATOM      4  C   UNL     1      46.294   8.718  12.118  0.00  0.00    +0.000 A 
ATOM      5  C   UNL     1      44.961   8.333  11.946  0.00  0.00    +0.000 A 
ATOM      6  C   UNL     1      44.641   7.017  11.603  0.00  0.00    +0.000 A 
ATOM      7  C   UNL     1      45.658   6.079  11.451  0.00  0.00    +0.000 A 
ATOM      8  C   UNL     1      46.989   6.467  11.615  0.00  0.00    +0.000 A 
BRANCH   7   9
ATOM      9  O   UNL     1      45.470   4.768  11.092  0.00  0.00    +0.000 OA
BRANCH   9  10
ATOM     10  C   UNL     1      44.133   4.220  11.119  0.00  0.00    +0.000 C 
ATOM     11  C   UNL     1      43.663   3.525  12.413  0.00  0.00    +0.000 C 
ATOM     12  N   UNL     1      43.260   2.336  11.647  0.00  0.00    +0.000 NA
ATOM     13  C   UNL     1      43.988   2.829  10.468  0.00  0.00    +0.000 C 
ATOM     14  H   UNL     1      42.254   2.250  11.507  0.00  0.00    +0.000 HD
ENDBRANCH   9  10
ENDBRANCH   7   9
ENDBRANCH   2   3
BRANCH   2  15
ATOM     15  C   UNL     1      49.548   7.277  12.982  0.00  0.00    +0.000 C 
BRANCH  15  16
ATOM     16  O   UNL     1      49.312   7.605  14.355  0.00  0.00    +0.000 OA
BRANCH  16  17
ATOM     17  C   UNL     1      48.846   6.581  15.138  0.00  0.00    +0.000 A 
ATOM     18  C   UNL     1      47.784   5.733  14.817  0.00  0.00    +0.000 A 
ATOM     19  C   UNL     1      47.401   4.718  15.696  0.00  0.00    +0.000 A 
ATOM     20  C   UNL     1      48.080   4.529  16.904  0.00  0.00    +0.000 A 
ATOM     21  C   UNL     1      49.138   5.383  17.236  0.00  0.00    +0.000 A 
ATOM     22  C   UNL     1      49.517   6.404  16.353  0.00  0.00    +0.000 A 
BRANCH  20  23
ATOM     23  C   UNL     1      47.622   3.434  17.794  0.00  0.00    +0.000 C 
ATOM     24  N   UNL     1      48.373   3.160  18.901  0.00  0.00    +0.000 N 
ATOM     25  O   UNL     1      46.630   2.764  17.530  0.00  0.00    +0.000 OA
ATOM     26  H   UNL     1      49.309   3.517  19.027  0.00  0.00    +0.000 HD
ATOM     27  H   UNL     1      48.108   2.335  19.425  0.00  0.00    +0.000 HD
ENDBRANCH  20  23
ENDBRANCH  16  17
ENDBRANCH  15  16
ENDBRANCH   2  15
TORSDOF 7
ENDMDL
MODEL 9
REMARK VINA RESULT:    -6.025      3.167      5.353
REMARK INTER + INTRA:          -9.623
REMARK INTER:                  -8.517
REMARK INTRA:                  -1.106
REMARK UNBOUND:                -1.132
REMARK  Name = 
REMARK  8 active torsions:
REMARK  status: ('A' for Active; 'I' for Inactive)
REMARK    1  A    between atoms: C_1  and  C_2
REMARK    2  A    between atoms: C_2  and  C_3
REMARK    3  A    between atoms: C_2  and  C_14
REMARK    4  A    between atoms: C_3  and  O_4
REMARK    5  A    between atoms: O_4  and  C_5
REMARK    6  A    between atoms: C_8  and  C_9
REMARK    7  A    between atoms: C_18  and  O_19
REMARK    8  A    between atoms: O_19  and  C_20
REMARK                            x       y       z     vdW  Elec       q    Type
REMARK                         _______ _______ _______ _____ _____    ______ ____
ROOT
ATOM      1  C   UNL     1      50.101   8.825  12.484  0.00  0.00    +0.000 C 
ATOM      2  C   UNL     1      49.356   8.616  13.807  0.00  0.00    +0.000 C 
ENDROOT
BRANCH   2   3
ATOM      3  C   UNL     1      50.162   7.766  14.778  0.00  0.00    +0.000 A 
ATOM      4  C   UNL     1      51.530   8.004  14.954  0.00  0.00    +0.000 A 
ATOM      5  C   UNL     1      52.260   7.278  15.900  0.00  0.00    +0.000 A 
ATOM      6  C   UNL     1      51.635   6.300  16.679  0.00  0.00    +0.000 A 
ATOM      7  C   UNL     1      50.282   6.036  16.498  0.00  0.00    +0.000 A 
ATOM      8  C   UNL     1      49.552   6.769  15.558  0.00  0.00    +0.000 A 
BRANCH   7   9
ATOM      9  O   UNL     1      49.555   5.121  17.217  0.00  0.00    +0.000 OA
BRANCH   9  10
ATOM     10  C   UNL     1      48.189   4.852  16.829  0.00  0.00    +0.000 C 
ATOM     11  C   UNL     1      47.133   4.731  17.946  0.00  0.00    +0.000 C 
ATOM     12  N   UNL     1      46.684   3.439  17.404  0.00  0.00    +0.000 NA
ATOM     13  C   UNL     1      47.876   3.368  16.545  0.00  0.00    +0.000 C 
ATOM     14  H   UNL     1      45.805   3.483  16.891  0.00  0.00    +0.000 HD
ENDBRANCH   9  10
ENDBRANCH   7   9
ENDBRANCH   2   3
BRANCH   2  15
ATOM     15  C   UNL     1      47.968   7.985  13.591  0.00  0.00    +0.000 C 
BRANCH  15  16
ATOM     16  O   UNL     1      47.862   7.428  12.278  0.00  0.00    +0.000 OA
BRANCH  16  17
ATOM     17  C   UNL     1      46.868   6.499  12.106  0.00  0.00    +0.000 A 
ATOM     18  C   UNL     1      46.203   6.234  10.906  0.00  0.00    +0.000 A 
ATOM     19  C   UNL     1      45.208   5.258  10.852  0.00  0.00    +0.000 A 
ATOM     20  C   UNL     1      44.868   4.525  11.993  0.00  0.00    +0.000 A 
ATOM     21  C   UNL     1      45.522   4.794  13.201  0.00  0.00    +0.000 A 
ATOM     22  C   UNL     1      46.519   5.778  13.252  0.00  0.00    +0.000 A 
BRANCH  20  23
ATOM     23  C   UNL     1      43.799   3.502  11.869  0.00  0.00    +0.000 C 
ATOM     24  N   UNL     1      43.947   2.341  12.573  0.00  0.00    +0.000 N 
ATOM     25  O   UNL     1      42.836   3.667  11.130  0.00  0.00    +0.000 OA
ATOM     26  H   UNL     1      44.823   2.068  12.995  0.00  0.00    +0.000 HD
ATOM     27  H   UNL     1      43.269   1.615  12.378  0.00  0.00    +0.000 HD
ENDBRANCH  20  23
ENDBRANCH  16  17
ENDBRANCH  15  16
ENDBRANCH   2  15
TORSDOF 7
ENDMDL
