MODEL 1
REMARK VINA RESULT:    -8.255      0.000      0.000
REMARK INTER + INTRA:         -11.838
REMARK INTER:                 -11.150
REMARK INTRA:                  -0.688
REMARK UNBOUND:                -0.688
REMARK  Name = 
REMARK  7 active torsions:
REMARK  status: ('A' for Active; 'I' for Inactive)
REMARK    1  A    between atoms: C_1  and  C_2
REMARK    2  A    between atoms: C_7  and  C_8
REMARK    3  A    between atoms: N_10  and  C_11
REMARK    4  A    between atoms: C_11  and  C_12
REMARK    5  A    between atoms: C_15  and  C_16
REMARK    6  A    between atoms: C_16  and  N_17
REMARK    7  A    between atoms: C_18  and  C_20
REMARK                            x       y       z     vdW  Elec       q    Type
REMARK                         _______ _______ _______ _____ _____    ______ ____
ROOT
ATOM      1  C   UNL     1      44.636   5.280  10.798  0.00  0.00    +0.000 A 
ATOM      2  C   UNL     1      45.839   5.801  10.301  0.00  0.00    +0.000 A 
ATOM      3  C   UNL     1      46.620   6.665  11.074  0.00  0.00    +0.000 A 
ATOM      4  C   UNL     1      46.221   7.028  12.367  0.00  0.00    +0.000 A 
ATOM      5  C   UNL     1      44.985   6.567  12.840  0.00  0.00    +0.000 A 
ATOM      6  C   UNL     1      44.206   5.692  12.068  0.00  0.00    +0.000 A 
ENDROOT
BRANCH   1   7
ATOM      7  C   UNL     1      43.893   4.217  10.022  0.00  0.00    +0.000 C 
BRANCH   7  10
ATOM      8  C   UNL     1      45.182   2.590   8.647  0.00  0.00    +0.000 C 
ATOM      9  O   UNL     1      44.987   1.661   9.423  0.00  0.00    +0.000 OA
ATOM     10  N   UNL     1      44.648   3.852   8.838  0.00  0.00    +0.000 N 
ATOM     11  H   UNL     1      44.932   4.607   8.232  0.00  0.00    +0.000 HD
BRANCH   8  18
ATOM     12  C   UNL     1      46.518  -0.037   7.889  0.00  0.00    +0.000 C 
ATOM     13  C   UNL     1      46.747   1.247   7.138  0.00  0.00    +0.000 A 
ATOM     14  C   UNL     1      47.661   1.230   6.065  0.00  0.00    +0.000 A 
ATOM     15  C   UNL     1      47.879   2.367   5.287  0.00  0.00    +0.000 A 
ATOM     16  C   UNL     1      47.155   3.526   5.539  0.00  0.00    +0.000 A 
ATOM     17  C   UNL     1      46.249   3.564   6.601  0.00  0.00    +0.000 A 
ATOM     18  C   UNL     1      46.066   2.447   7.438  0.00  0.00    +0.000 A 
ENDBRANCH   8  18
ENDBRANCH   7  10
ENDBRANCH   1   7
BRANCH   4  19
ATOM     19  C   UNL     1      47.109   7.894  13.225  0.00  0.00    +0.000 C 
BRANCH  19  20
ATOM     20  N   UNL     1      47.456   7.249  14.464  0.00  0.00    +0.000 N 
ATOM     21  C   UNL     1      48.733   6.795  14.687  0.00  0.00    +0.000 C 
ATOM     22  O   UNL     1      49.633   6.959  13.868  0.00  0.00    +0.000 OA
ATOM     23  H   UNL     1      46.694   6.908  15.041  0.00  0.00    +0.000 HD
BRANCH  21  24
ATOM     24  C   UNL     1      48.992   6.156  15.984  0.00  0.00    +0.000 A 
ATOM     25  C   UNL     1      49.985   6.661  16.811  0.00  0.00    +0.000 A 
ATOM     26  S   UNL     1      50.134   5.832  18.293  0.00  0.00    +0.000 S 
ATOM     27  C   UNL     1      48.907   4.736  17.863  0.00  0.00    +0.000 A 
ATOM     28  N   UNL     1      48.552   3.723  18.699  0.00  0.00    +0.000 NA
ATOM     29  C   UNL     1      47.629   2.949  18.236  0.00  0.00    +0.000 A 
ATOM     30  N   UNL     1      47.023   3.100  17.014  0.00  0.00    +0.000 N 
ATOM     31  C   UNL     1      47.328   4.123  16.148  0.00  0.00    +0.000 A 
ATOM     32  O   UNL     1      46.739   4.257  15.083  0.00  0.00    +0.000 OA
ATOM     33  C   UNL     1      48.375   5.013  16.615  0.00  0.00    +0.000 A 
ATOM     34  H   UNL     1      46.302   2.462  16.714  0.00  0.00    +0.000 HD
ENDBRANCH  21  24
ENDBRANCH  19  20
ENDBRANCH   4  19
TORSDOF 6
ENDMDL
MODEL 2
REMARK VINA RESULT:    -7.907      3.252      5.073
REMARK INTER + INTRA:         -11.369
REMARK INTER:                 -10.478
REMARK INTRA:                  -0.890
REMARK UNBOUND:                -0.688
REMARK  Name = 
REMARK  7 active torsions:
REMARK  status: ('A' for Active; 'I' for Inactive)
REMARK    1  A    between atoms: C_1  and  C_2
REMARK    2  A    between atoms: C_7  and  C_8
REMARK    3  A    between atoms: N_10  and  C_11
REMARK    4  A    between atoms: C_11  and  C_12
REMARK    5  A    between atoms: C_15  and  C_16
REMARK    6  A    between atoms: C_16  and  N_17
REMARK    7  A    between atoms: C_18  and  C_20
REMARK                            x       y       z     vdW  Elec       q    Type
REMARK                         _______ _______ _______ _____ _____    ______ ____
ROOT
ATOM      1  C   UNL     1      47.285   5.917  13.883  0.00  0.00    +0.000 A 
ATOM      2  C   UNL     1      46.765   4.625  14.044  0.00  0.00    +0.000 A 
ATOM      3  C   UNL     1      47.011   3.893  15.210  0.00  0.00    +0.000 A 
ATOM      4  C   UNL     1      47.783   4.435  16.246  0.00  0.00    +0.000 A 
ATOM      5  C   UNL     1      48.366   5.696  16.058  0.00  0.00    +0.000 A 
ATOM      6  C   UNL     1      48.109   6.434  14.894  0.00  0.00    +0.000 A 
ENDROOT
BRANCH   1   7
ATOM      7  C   UNL     1      46.870   6.758  12.698  0.00  0.00    +0.000 C 
BRANCH   7  10
ATOM      8  C   UNL     1      45.277   5.676  11.119  0.00  0.00    +0.000 C 
ATOM      9  O   UNL     1      44.300   6.247  11.590  0.00  0.00    +0.000 OA
ATOM     10  N   UNL     1      46.567   5.902  11.567  0.00  0.00    +0.000 N 
ATOM     11  H   UNL     1      47.320   5.323  11.224  0.00  0.00    +0.000 HD
BRANCH   8  18
ATOM     12  C   UNL     1      43.669   3.119  11.482  0.00  0.00    +0.000 C 
ATOM     13  C   UNL     1      44.469   3.416  10.242  0.00  0.00    +0.000 A 
ATOM     14  C   UNL     1      44.506   2.437   9.230  0.00  0.00    +0.000 A 
ATOM     15  C   UNL     1      45.179   2.667   8.029  0.00  0.00    +0.000 A 
ATOM     16  C   UNL     1      45.787   3.895   7.802  0.00  0.00    +0.000 A 
ATOM     17  C   UNL     1      45.765   4.876   8.796  0.00  0.00    +0.000 A 
ATOM     18  C   UNL     1      45.150   4.636  10.039  0.00  0.00    +0.000 A 
ENDBRANCH   8  18
ENDBRANCH   7  10
ENDBRANCH   1   7
BRANCH   4  19
ATOM     19  C   UNL     1      47.976   3.672  17.532  0.00  0.00    +0.000 C 
BRANCH  19  20
ATOM     20  N   UNL     1      49.366   3.412  17.801  0.00  0.00    +0.000 N 
ATOM     21  C   UNL     1      50.040   2.422  17.130  0.00  0.00    +0.000 C 
ATOM     22  O   UNL     1      49.504   1.753  16.250  0.00  0.00    +0.000 OA
ATOM     23  H   UNL     1      49.752   3.787  18.662  0.00  0.00    +0.000 HD
BRANCH  21  24
ATOM     24  C   UNL     1      51.457   2.236  17.469  0.00  0.00    +0.000 A 
ATOM     25  C   UNL     1      51.960   0.952  17.634  0.00  0.00    +0.000 A 
ATOM     26  S   UNL     1      53.627   0.907  17.986  0.00  0.00    +0.000 S 
ATOM     27  C   UNL     1      53.727   2.605  17.980  0.00  0.00    +0.000 A 
ATOM     28  N   UNL     1      54.903   3.235  18.248  0.00  0.00    +0.000 NA
ATOM     29  C   UNL     1      54.831   4.524  18.239  0.00  0.00    +0.000 A 
ATOM     30  N   UNL     1      53.691   5.240  17.978  0.00  0.00    +0.000 N 
ATOM     31  C   UNL     1      52.487   4.649  17.674  0.00  0.00    +0.000 A 
ATOM     32  O   UNL     1      51.497   5.316  17.403  0.00  0.00    +0.000 OA
ATOM     33  C   UNL     1      52.511   3.198  17.689  0.00  0.00    +0.000 A 
ATOM     34  H   UNL     1      53.704   6.248  17.979  0.00  0.00    +0.000 HD
ENDBRANCH  21  24
ENDBRANCH  19  20
ENDBRANCH   4  19
TORSDOF 6
ENDMDL
MODEL 3
REMARK VINA RESULT:    -7.849      0.991      1.649
REMARK INTER + INTRA:         -11.290
REMARK INTER:                 -11.206
REMARK INTRA:                  -0.085
REMARK UNBOUND:                -0.688
REMARK  Name = 
REMARK  7 active torsions:
REMARK  status: ('A' for Active; 'I' for Inactive)
REMARK    1  A    between atoms: C_1  and  C_2
REMARK    2  A    between atoms: C_7  and  C_8
REMARK    3  A    between atoms: N_10  and  C_11
REMARK    4  A    between atoms: C_11  and  C_12
REMARK    5  A    between atoms: C_15  and  C_16
REMARK    6  A    between atoms: C_16  and  N_17
REMARK    7  A    between atoms: C_18  and  C_20
REMARK                            x       y       z     vdW  Elec       q    Type
REMARK                         _______ _______ _______ _____ _____    ______ ____
ROOT
ATOM      1  C   UNL     1      44.654   5.687  11.308  0.00  0.00    +0.000 A 
ATOM      2  C   UNL     1      44.415   7.064  11.421  0.00  0.00    +0.000 A 
ATOM      3  C   UNL     1      45.274   7.882  12.163  0.00  0.00    +0.000 A 
ATOM      4  C   UNL     1      46.395   7.344  12.807  0.00  0.00    +0.000 A 
ATOM      5  C   UNL     1      46.596   5.959  12.757  0.00  0.00    +0.000 A 
ATOM      6  C   UNL     1      45.741   5.140  12.004  0.00  0.00    +0.000 A 
ENDROOT
BRANCH   1   7
ATOM      7  C   UNL     1      43.819   4.849  10.367  0.00  0.00    +0.000 C 
BRANCH   7  10
ATOM      8  C   UNL     1      44.722   2.793   9.290  0.00  0.00    +0.000 C 
ATOM      9  O   UNL     1      43.976   2.046   9.913  0.00  0.00    +0.000 OA
ATOM     10  N   UNL     1      44.679   4.171   9.415  0.00  0.00    +0.000 N 
ATOM     11  H   UNL     1      45.389   4.731   8.968  0.00  0.00    +0.000 HD
BRANCH   8  18
ATOM     12  C   UNL     1      46.534   4.621   7.669  0.00  0.00    +0.000 C 
ATOM     13  C   UNL     1      46.570   3.120   7.557  0.00  0.00    +0.000 A 
ATOM     14  C   UNL     1      47.454   2.549   6.621  0.00  0.00    +0.000 A 
ATOM     15  C   UNL     1      47.584   1.165   6.504  0.00  0.00    +0.000 A 
ATOM     16  C   UNL     1      46.867   0.330   7.351  0.00  0.00    +0.000 A 
ATOM     17  C   UNL     1      45.981   0.877   8.282  0.00  0.00    +0.000 A 
ATOM     18  C   UNL     1      45.787   2.269   8.367  0.00  0.00    +0.000 A 
ENDBRANCH   8  18
ENDBRANCH   7  10
ENDBRANCH   1   7
BRANCH   4  19
ATOM     19  C   UNL     1      47.360   8.245  13.536  0.00  0.00    +0.000 C 
BRANCH  19  20
ATOM     20  N   UNL     1      47.680   7.744  14.848  0.00  0.00    +0.000 N 
ATOM     21  C   UNL     1      48.867   7.097  15.084  0.00  0.00    +0.000 C 
ATOM     22  O   UNL     1      49.717   6.959  14.208  0.00  0.00    +0.000 OA
ATOM     23  H   UNL     1      46.915   7.648  15.508  0.00  0.00    +0.000 HD
BRANCH  21  24
ATOM     24  C   UNL     1      49.105   6.627  16.455  0.00  0.00    +0.000 A 
ATOM     25  C   UNL     1      49.755   7.454  17.360  0.00  0.00    +0.000 A 
ATOM     26  S   UNL     1      49.919   6.778  18.916  0.00  0.00    +0.000 S 
ATOM     27  C   UNL     1      49.169   5.333  18.423  0.00  0.00    +0.000 A 
ATOM     28  N   UNL     1      49.015   4.296  19.291  0.00  0.00    +0.000 NA
ATOM     29  C   UNL     1      48.457   3.251  18.778  0.00  0.00    +0.000 A 
ATOM     30  N   UNL     1      48.031   3.152  17.478  0.00  0.00    +0.000 N 
ATOM     31  C   UNL     1      48.139   4.181  16.573  0.00  0.00    +0.000 A 
ATOM     32  O   UNL     1      47.710   4.078  15.431  0.00  0.00    +0.000 OA
ATOM     33  C   UNL     1      48.777   5.375  17.096  0.00  0.00    +0.000 A 
ATOM     34  H   UNL     1      47.595   2.307  17.142  0.00  0.00    +0.000 HD
ENDBRANCH  21  24
ENDBRANCH  19  20
ENDBRANCH   4  19
TORSDOF 6
ENDMDL
MODEL 4
REMARK VINA RESULT:    -7.703      2.400      2.926
REMARK INTER + INTRA:         -11.093
REMARK INTER:                 -10.457
REMARK INTRA:                  -0.636
REMARK UNBOUND:                -0.688
REMARK  Name = 
REMARK  7 active torsions:
REMARK  status: ('A' for Active; 'I' for Inactive)
REMARK    1  A    between atoms: C_1  and  C_2
REMARK    2  A    between atoms: C_7  and  C_8
REMARK    3  A    between atoms: N_10  and  C_11
REMARK    4  A    between atoms: C_11  and  C_12
REMARK    5  A    between atoms: C_15  and  C_16
REMARK    6  A    between atoms: C_16  and  N_17
REMARK    7  A    between atoms: C_18  and  C_20
REMARK                            x       y       z     vdW  Elec       q    Type
REMARK                         _______ _______ _______ _____ _____    ______ ____
ROOT
ATOM      1  C   UNL     1      45.413   4.521  11.765  0.00  0.00    +0.000 A 
ATOM      2  C   UNL     1      45.839   5.800  11.383  0.00  0.00    +0.000 A 
ATOM      3  C   UNL     1      46.774   6.503  12.150  0.00  0.00    +0.000 A 
ATOM      4  C   UNL     1      47.309   5.942  13.317  0.00  0.00    +0.000 A 
ATOM      5  C   UNL     1      46.831   4.695  13.741  0.00  0.00    +0.000 A 
ATOM      6  C   UNL     1      45.902   3.986  12.966  0.00  0.00    +0.000 A 
ENDROOT
BRANCH   1   7
ATOM      7  C   UNL     1      44.537   3.707  10.840  0.00  0.00    +0.000 C 
BRANCH   7  10
ATOM      8  C   UNL     1      45.146   2.370   8.829  0.00  0.00    +0.000 C 
ATOM      9  O   UNL     1      44.481   1.401   9.176  0.00  0.00    +0.000 OA
ATOM     10  N   UNL     1      45.191   3.548   9.554  0.00  0.00    +0.000 N 
ATOM     11  H   UNL     1      45.841   4.272   9.284  0.00  0.00    +0.000 HD
BRANCH   8  18
ATOM     12  C   UNL     1      46.624  -0.127   7.916  0.00  0.00    +0.000 C 
ATOM     13  C   UNL     1      46.761   1.205   7.228  0.00  0.00    +0.000 A 
ATOM     14  C   UNL     1      47.653   1.299   6.142  0.00  0.00    +0.000 A 
ATOM     15  C   UNL     1      47.787   2.485   5.420  0.00  0.00    +0.000 A 
ATOM     16  C   UNL     1      46.998   3.583   5.742  0.00  0.00    +0.000 A 
ATOM     17  C   UNL     1      46.113   3.510   6.819  0.00  0.00    +0.000 A 
ATOM     18  C   UNL     1      46.014   2.344   7.601  0.00  0.00    +0.000 A 
ENDBRANCH   8  18
ENDBRANCH   7  10
ENDBRANCH   1   7
BRANCH   4  19
ATOM     19  C   UNL     1      48.377   6.672  14.093  0.00  0.00    +0.000 C 
BRANCH  19  20
ATOM     20  N   UNL     1      48.063   6.752  15.496  0.00  0.00    +0.000 N 
ATOM     21  C   UNL     1      48.982   6.378  16.445  0.00  0.00    +0.000 C 
ATOM     22  O   UNL     1      50.114   6.007  16.144  0.00  0.00    +0.000 OA
ATOM     23  H   UNL     1      47.084   6.835  15.750  0.00  0.00    +0.000 HD
BRANCH  21  24
ATOM     24  C   UNL     1      48.572   6.501  17.850  0.00  0.00    +0.000 A 
ATOM     25  C   UNL     1      48.609   5.386  18.675  0.00  0.00    +0.000 A 
ATOM     26  S   UNL     1      48.139   5.704  20.283  0.00  0.00    +0.000 S 
ATOM     27  C   UNL     1      47.823   7.336  19.923  0.00  0.00    +0.000 A 
ATOM     28  N   UNL     1      47.351   8.181  20.878  0.00  0.00    +0.000 NA
ATOM     29  C   UNL     1      47.127   9.383  20.462  0.00  0.00    +0.000 A 
ATOM     30  N   UNL     1      47.341   9.817  19.179  0.00  0.00    +0.000 N 
ATOM     31  C   UNL     1      47.843   9.008  18.187  0.00  0.00    +0.000 A 
ATOM     32  O   UNL     1      48.063   9.436  17.062  0.00  0.00    +0.000 OA
ATOM     33  C   UNL     1      48.095   7.639  18.600  0.00  0.00    +0.000 A 
ATOM     34  H   UNL     1      47.151  10.773  18.920  0.00  0.00    +0.000 HD
ENDBRANCH  21  24
ENDBRANCH  19  20
ENDBRANCH   4  19
TORSDOF 6
ENDMDL
MODEL 5
REMARK VINA RESULT:    -7.572      1.736      2.288
REMARK INTER + INTRA:         -10.916
REMARK INTER:                  -9.886
REMARK INTRA:                  -1.030
REMARK UNBOUND:                -0.688
REMARK  Name = 
REMARK  7 active torsions:
REMARK  status: ('A' for Active; 'I' for Inactive)
REMARK    1  A    between atoms: C_1  and  C_2
REMARK    2  A    between atoms: C_7  and  C_8
REMARK    3  A    between atoms: N_10  and  C_11
REMARK    4  A    between atoms: C_11  and  C_12
REMARK    5  A    between atoms: C_15  and  C_16
REMARK    6  A    between atoms: C_16  and  N_17
REMARK    7  A    between atoms: C_18  and  C_20
REMARK                            x       y       z     vdW  Elec       q    Type
REMARK                         _______ _______ _______ _____ _____    ______ ____
ROOT
ATOM      1  C   UNL     1      46.043   7.126  11.682  0.00  0.00    +0.000 A 
ATOM      2  C   UNL     1      47.370   6.674  11.655  0.00  0.00    +0.000 A 
ATOM      3  C   UNL     1      48.348   7.275  12.455  0.00  0.00    +0.000 A 
ATOM      4  C   UNL     1      48.023   8.341  13.304  0.00  0.00    +0.000 A 
ATOM      5  C   UNL     1      46.714   8.842  13.279  0.00  0.00    +0.000 A 
ATOM      6  C   UNL     1      45.731   8.232  12.485  0.00  0.00    +0.000 A 
ENDROOT
BRANCH   1   7
ATOM      7  C   UNL     1      44.968   6.360  10.946  0.00  0.00    +0.000 C 
BRANCH   7  10
ATOM      8  C   UNL     1      44.835   4.594   9.194  0.00  0.00    +0.000 C 
ATOM      9  O   UNL     1      43.611   4.630   9.141  0.00  0.00    +0.000 OA
ATOM     10  N   UNL     1      45.576   5.433  10.009  0.00  0.00    +0.000 N 
ATOM     11  H   UNL     1      46.570   5.285  10.099  0.00  0.00    +0.000 HD
BRANCH   8  18
ATOM     12  C   UNL     1      44.414   1.591   9.441  0.00  0.00    +0.000 C 
ATOM     13  C   UNL     1      45.494   2.201   8.588  0.00  0.00    +0.000 A 
ATOM     14  C   UNL     1      46.374   1.331   7.915  0.00  0.00    +0.000 A 
ATOM     15  C   UNL     1      47.361   1.824   7.061  0.00  0.00    +0.000 A 
ATOM     16  C   UNL     1      47.456   3.191   6.830  0.00  0.00    +0.000 A 
ATOM     17  C   UNL     1      46.596   4.069   7.493  0.00  0.00    +0.000 A 
ATOM     18  C   UNL     1      45.639   3.594   8.409  0.00  0.00    +0.000 A 
ENDBRANCH   8  18
ENDBRANCH   7  10
ENDBRANCH   1   7
BRANCH   4  19
ATOM     19  C   UNL     1      49.064   8.929  14.223  0.00  0.00    +0.000 C 
BRANCH  19  20
ATOM     20  N   UNL     1      49.264   8.121  15.397  0.00  0.00    +0.000 N 
ATOM     21  C   UNL     1      48.600   8.401  16.566  0.00  0.00    +0.000 C 
ATOM     22  O   UNL     1      47.782   9.314  16.645  0.00  0.00    +0.000 OA
ATOM     23  H   UNL     1      50.084   7.523  15.416  0.00  0.00    +0.000 HD
BRANCH  21  24
ATOM     24  C   UNL     1      48.866   7.517  17.708  0.00  0.00    +0.000 A 
ATOM     25  C   UNL     1      49.267   8.063  18.919  0.00  0.00    +0.000 A 
ATOM     26  S   UNL     1      49.496   6.909  20.152  0.00  0.00    +0.000 S 
ATOM     27  C   UNL     1      49.114   5.630  19.098  0.00  0.00    +0.000 A 
ATOM     28  N   UNL     1      49.151   4.339  19.526  0.00  0.00    +0.000 NA
ATOM     29  C   UNL     1      48.867   3.469  18.616  0.00  0.00    +0.000 A 
ATOM     30  N   UNL     1      48.542   3.773  17.319  0.00  0.00    +0.000 N 
ATOM     31  C   UNL     1      48.464   5.062  16.848  0.00  0.00    +0.000 A 
ATOM     32  O   UNL     1      48.129   5.303  15.695  0.00  0.00    +0.000 OA
ATOM     33  C   UNL     1      48.792   6.080  17.829  0.00  0.00    +0.000 A 
ATOM     34  H   UNL     1      48.324   3.043  16.658  0.00  0.00    +0.000 HD
ENDBRANCH  21  24
ENDBRANCH  19  20
ENDBRANCH   4  19
TORSDOF 6
ENDMDL
MODEL 6
REMARK VINA RESULT:    -7.403      2.377      3.075
REMARK INTER + INTRA:         -10.688
REMARK INTER:                  -9.744
REMARK INTRA:                  -0.944
REMARK UNBOUND:                -0.688
REMARK  Name = 
REMARK  7 active torsions:
REMARK  status: ('A' for Active; 'I' for Inactive)
REMARK    1  A    between atoms: C_1  and  C_2
REMARK    2  A    between atoms: C_7  and  C_8
REMARK    3  A    between atoms: N_10  and  C_11
REMARK    4  A    between atoms: C_11  and  C_12
REMARK    5  A    between atoms: C_15  and  C_16
REMARK    6  A    between atoms: C_16  and  N_17
REMARK    7  A    between atoms: C_18  and  C_20
REMARK                            x       y       z     vdW  Elec       q    Type
REMARK                         _______ _______ _______ _____ _____    ______ ____
ROOT
ATOM      1  C   UNL     1      46.223   6.389  12.606  0.00  0.00    +0.000 A 
ATOM      2  C   UNL     1      46.842   5.447  13.439  0.00  0.00    +0.000 A 
ATOM      3  C   UNL     1      47.764   5.846  14.412  0.00  0.00    +0.000 A 
ATOM      4  C   UNL     1      48.089   7.198  14.579  0.00  0.00    +0.000 A 
ATOM      5  C   UNL     1      47.528   8.135  13.700  0.00  0.00    +0.000 A 
ATOM      6  C   UNL     1      46.594   7.736  12.732  0.00  0.00    +0.000 A 
ENDROOT
BRANCH   1   7
ATOM      7  C   UNL     1      45.106   5.964  11.681  0.00  0.00    +0.000 C 
BRANCH   7  10
ATOM      8  C   UNL     1      44.845   4.594   9.618  0.00  0.00    +0.000 C 
ATOM      9  O   UNL     1      43.638   4.795   9.544  0.00  0.00    +0.000 OA
ATOM     10  N   UNL     1      45.641   5.162  10.597  0.00  0.00    +0.000 N 
ATOM     11  H   UNL     1      46.605   4.873  10.681  0.00  0.00    +0.000 HD
BRANCH   8  18
ATOM     12  C   UNL     1      44.400   1.584   9.622  0.00  0.00    +0.000 C 
ATOM     13  C   UNL     1      45.408   2.264   8.735  0.00  0.00    +0.000 A 
ATOM     14  C   UNL     1      46.210   1.454   7.906  0.00  0.00    +0.000 A 
ATOM     15  C   UNL     1      47.124   2.018   7.015  0.00  0.00    +0.000 A 
ATOM     16  C   UNL     1      47.218   3.399   6.904  0.00  0.00    +0.000 A 
ATOM     17  C   UNL     1      46.436   4.218   7.721  0.00  0.00    +0.000 A 
ATOM     18  C   UNL     1      45.558   3.666   8.674  0.00  0.00    +0.000 A 
ENDBRANCH   8  18
ENDBRANCH   7  10
ENDBRANCH   1   7
BRANCH   4  19
ATOM     19  C   UNL     1      49.022   7.628  15.683  0.00  0.00    +0.000 C 
BRANCH  19  20
ATOM     20  N   UNL     1      49.957   6.590  16.033  0.00  0.00    +0.000 N 
ATOM     21  C   UNL     1      50.365   6.420  17.333  0.00  0.00    +0.000 C 
ATOM     22  O   UNL     1      49.921   7.107  18.249  0.00  0.00    +0.000 OA
ATOM     23  H   UNL     1      50.494   6.175  15.279  0.00  0.00    +0.000 HD
BRANCH  21  24
ATOM     24  C   UNL     1      51.316   5.331  17.592  0.00  0.00    +0.000 A 
ATOM     25  C   UNL     1      52.607   5.632  18.005  0.00  0.00    +0.000 A 
ATOM     26  S   UNL     1      53.572   4.259  18.300  0.00  0.00    +0.000 S 
ATOM     27  C   UNL     1      52.314   3.211  17.839  0.00  0.00    +0.000 A 
ATOM     28  N   UNL     1      52.496   1.863  17.835  0.00  0.00    +0.000 NA
ATOM     29  C   UNL     1      51.470   1.188  17.436  0.00  0.00    +0.000 A 
ATOM     30  N   UNL     1      50.276   1.740  17.050  0.00  0.00    +0.000 N 
ATOM     31  C   UNL     1      50.035   3.093  17.064  0.00  0.00    +0.000 A 
ATOM     32  O   UNL     1      48.943   3.553  16.755  0.00  0.00    +0.000 OA
ATOM     33  C   UNL     1      51.165   3.899  17.488  0.00  0.00    +0.000 A 
ATOM     34  H   UNL     1      49.509   1.155  16.755  0.00  0.00    +0.000 HD
ENDBRANCH  21  24
ENDBRANCH  19  20
ENDBRANCH   4  19
TORSDOF 6
ENDMDL
MODEL 7
REMARK VINA RESULT:    -7.320      4.321     10.687
REMARK INTER + INTRA:         -10.576
REMARK INTER:                  -9.784
REMARK INTRA:                  -0.792
REMARK UNBOUND:                -0.688
REMARK  Name = 
REMARK  7 active torsions:
REMARK  status: ('A' for Active; 'I' for Inactive)
REMARK    1  A    between atoms: C_1  and  C_2
REMARK    2  A    between atoms: C_7  and  C_8
REMARK    3  A    between atoms: N_10  and  C_11
REMARK    4  A    between atoms: C_11  and  C_12
REMARK    5  A    between atoms: C_15  and  C_16
REMARK    6  A    between atoms: C_16  and  N_17
REMARK    7  A    between atoms: C_18  and  C_20
REMARK                            x       y       z     vdW  Elec       q    Type
REMARK                         _______ _______ _______ _____ _____    ______ ____
ROOT
ATOM      1  C   UNL     1      49.598   5.760  19.652  0.00  0.00    +0.000 A 
ATOM      2  C   UNL     1      49.672   6.292  18.357  0.00  0.00    +0.000 A 
ATOM      3  C   UNL     1      49.124   5.607  17.268  0.00  0.00    +0.000 A 
ATOM      4  C   UNL     1      48.486   4.373  17.446  0.00  0.00    +0.000 A 
ATOM      5  C   UNL     1      48.474   3.803  18.727  0.00  0.00    +0.000 A 
ATOM      6  C   UNL     1      49.014   4.496  19.821  0.00  0.00    +0.000 A 
ENDROOT
BRANCH   1   7
ATOM      7  C   UNL     1      50.040   6.587  20.837  0.00  0.00    +0.000 C 
BRANCH   7  10
ATOM      8  C   UNL     1      47.886   7.776  21.224  0.00  0.00    +0.000 C 
ATOM      9  O   UNL     1      47.284   6.751  21.522  0.00  0.00    +0.000 OA
ATOM     10  N   UNL     1      49.237   7.793  20.924  0.00  0.00    +0.000 N 
ATOM     11  H   UNL     1      49.657   8.642  20.575  0.00  0.00    +0.000 HD
BRANCH   8  18
ATOM     12  C   UNL     1      47.376   9.141  18.553  0.00  0.00    +0.000 C 
ATOM     13  C   UNL     1      47.030   9.770  19.875  0.00  0.00    +0.000 A 
ATOM     14  C   UNL     1      46.489  11.071  19.866  0.00  0.00    +0.000 A 
ATOM     15  C   UNL     1      46.089  11.694  21.049  0.00  0.00    +0.000 A 
ATOM     16  C   UNL     1      46.182  11.011  22.255  0.00  0.00    +0.000 A 
ATOM     17  C   UNL     1      46.721   9.723  22.285  0.00  0.00    +0.000 A 
ATOM     18  C   UNL     1      47.191   9.106  21.111  0.00  0.00    +0.000 A 
ENDBRANCH   8  18
ENDBRANCH   7  10
ENDBRANCH   1   7
BRANCH   4  19
ATOM     19  C   UNL     1      47.826   3.680  16.280  0.00  0.00    +0.000 C 
BRANCH  19  20
ATOM     20  N   UNL     1      47.146   4.609  15.416  0.00  0.00    +0.000 N 
ATOM     21  C   UNL     1      46.796   4.253  14.137  0.00  0.00    +0.000 C 
ATOM     22  O   UNL     1      47.005   3.126  13.695  0.00  0.00    +0.000 OA
ATOM     23  H   UNL     1      47.171   5.590  15.676  0.00  0.00    +0.000 HD
BRANCH  21  24
ATOM     24  C   UNL     1      46.101   5.267  13.333  0.00  0.00    +0.000 A 
ATOM     25  C   UNL     1      46.723   6.481  13.073  0.00  0.00    +0.000 A 
ATOM     26  S   UNL     1      45.801   7.531  12.096  0.00  0.00    +0.000 S 
ATOM     27  C   UNL     1      44.515   6.420  12.026  0.00  0.00    +0.000 A 
ATOM     28  N   UNL     1      43.371   6.719  11.353  0.00  0.00    +0.000 NA
ATOM     29  C   UNL     1      42.466   5.800  11.405  0.00  0.00    +0.000 A 
ATOM     30  N   UNL     1      42.605   4.604  12.062  0.00  0.00    +0.000 N 
ATOM     31  C   UNL     1      43.751   4.245  12.731  0.00  0.00    +0.000 A 
ATOM     32  O   UNL     1      43.862   3.152  13.271  0.00  0.00    +0.000 OA
ATOM     33  C   UNL     1      44.795   5.254  12.718  0.00  0.00    +0.000 A 
ATOM     34  H   UNL     1      41.861   3.924  12.057  0.00  0.00    +0.000 HD
ENDBRANCH  21  24
ENDBRANCH  19  20
ENDBRANCH   4  19
TORSDOF 6
ENDMDL
MODEL 8
REMARK VINA RESULT:    -7.212      3.760      8.971
REMARK INTER + INTRA:         -10.429
REMARK INTER:                  -9.494
REMARK INTRA:                  -0.935
REMARK UNBOUND:                -0.688
REMARK  Name = 
REMARK  7 active torsions:
REMARK  status: ('A' for Active; 'I' for Inactive)
REMARK    1  A    between atoms: C_1  and  C_2
REMARK    2  A    between atoms: C_7  and  C_8
REMARK    3  A    between atoms: N_10  and  C_11
REMARK    4  A    between atoms: C_11  and  C_12
REMARK    5  A    between atoms: C_15  and  C_16
REMARK    6  A    between atoms: C_16  and  N_17
REMARK    7  A    between atoms: C_18  and  C_20
REMARK                            x       y       z     vdW  Elec       q    Type
REMARK                         _______ _______ _______ _____ _____    ______ ____
ROOT
ATOM      1  C   UNL     1      50.373   6.902  15.990  0.00  0.00    +0.000 A 
ATOM      2  C   UNL     1      50.988   7.655  14.981  0.00  0.00    +0.000 A 
ATOM      3  C   UNL     1      50.297   7.985  13.810  0.00  0.00    +0.000 A 
ATOM      4  C   UNL     1      48.972   7.571  13.621  0.00  0.00    +0.000 A 
ATOM      5  C   UNL     1      48.379   6.757  14.594  0.00  0.00    +0.000 A 
ATOM      6  C   UNL     1      49.068   6.436  15.773  0.00  0.00    +0.000 A 
ENDROOT
BRANCH   1   7
ATOM      7  C   UNL     1      51.070   6.702  17.316  0.00  0.00    +0.000 C 
BRANCH   7  10
ATOM      8  C   UNL     1      51.389   4.388  18.181  0.00  0.00    +0.000 C 
ATOM      9  O   UNL     1      50.419   4.450  18.928  0.00  0.00    +0.000 OA
ATOM     10  N   UNL     1      51.747   5.419  17.329  0.00  0.00    +0.000 N 
ATOM     11  H   UNL     1      52.617   5.361  16.821  0.00  0.00    +0.000 HD
BRANCH   8  18
ATOM     12  C   UNL     1      50.603   1.731  16.925  0.00  0.00    +0.000 C 
ATOM     13  C   UNL     1      51.905   1.943  17.649  0.00  0.00    +0.000 A 
ATOM     14  C   UNL     1      52.771   0.840  17.787  0.00  0.00    +0.000 A 
ATOM     15  C   UNL     1      54.020   0.976  18.394  0.00  0.00    +0.000 A 
ATOM     16  C   UNL     1      54.443   2.225  18.832  0.00  0.00    +0.000 A 
ATOM     17  C   UNL     1      53.596   3.329  18.710  0.00  0.00    +0.000 A 
ATOM     18  C   UNL     1      52.306   3.196  18.162  0.00  0.00    +0.000 A 
ENDBRANCH   8  18
ENDBRANCH   7  10
ENDBRANCH   1   7
BRANCH   4  19
ATOM     19  C   UNL     1      48.208   8.000  12.393  0.00  0.00    +0.000 C 
BRANCH  19  20
ATOM     20  N   UNL     1      47.551   6.890  11.753  0.00  0.00    +0.000 N 
ATOM     21  C   UNL     1      46.199   6.914  11.517  0.00  0.00    +0.000 C 
ATOM     22  O   UNL     1      45.507   7.889  11.797  0.00  0.00    +0.000 OA
ATOM     23  H   UNL     1      48.051   6.007  11.725  0.00  0.00    +0.000 HD
BRANCH  21  24
ATOM     24  C   UNL     1      45.621   5.738  10.854  0.00  0.00    +0.000 A 
ATOM     25  C   UNL     1      45.801   5.563   9.488  0.00  0.00    +0.000 A 
ATOM     26  S   UNL     1      45.102   4.132   8.880  0.00  0.00    +0.000 S 
ATOM     27  C   UNL     1      44.491   3.717  10.412  0.00  0.00    +0.000 A 
ATOM     28  N   UNL     1      43.750   2.590  10.585  0.00  0.00    +0.000 NA
ATOM     29  C   UNL     1      43.325   2.411  11.791  0.00  0.00    +0.000 A 
ATOM     30  N   UNL     1      43.581   3.255  12.842  0.00  0.00    +0.000 N 
ATOM     31  C   UNL     1      44.348   4.390  12.722  0.00  0.00    +0.000 A 
ATOM     32  O   UNL     1      44.596   5.100  13.688  0.00  0.00    +0.000 OA
ATOM     33  C   UNL     1      44.836   4.646  11.379  0.00  0.00    +0.000 A 
ATOM     34  H   UNL     1      43.225   3.054  13.763  0.00  0.00    +0.000 HD
ENDBRANCH  21  24
ENDBRANCH  19  20
ENDBRANCH   4  19
TORSDOF 6
ENDMDL
MODEL 9
REMARK VINA RESULT:    -7.208      2.543      4.369
REMARK INTER + INTRA:         -10.424
REMARK INTER:                 -10.104
REMARK INTRA:                  -0.320
REMARK UNBOUND:                -0.688
REMARK  Name = 
REMARK  7 active torsions:
REMARK  status: ('A' for Active; 'I' for Inactive)
REMARK    1  A    between atoms: C_1  and  C_2
REMARK    2  A    between atoms: C_7  and  C_8
REMARK    3  A    between atoms: N_10  and  C_11
REMARK    4  A    between atoms: C_11  and  C_12
REMARK    5  A    between atoms: C_15  and  C_16
REMARK    6  A    between atoms: C_16  and  N_17
REMARK    7  A    between atoms: C_18  and  C_20
REMARK                            x       y       z     vdW  Elec       q    Type
REMARK                         _______ _______ _______ _____ _____    ______ ____
ROOT
ATOM      1  C   UNL     1      44.427   4.575  11.123  0.00  0.00    +0.000 A 
ATOM      2  C   UNL     1      44.501   5.858  11.682  0.00  0.00    +0.000 A 
ATOM      3  C   UNL     1      45.296   6.106  12.806  0.00  0.00    +0.000 A 
ATOM      4  C   UNL     1      46.040   5.077  13.398  0.00  0.00    +0.000 A 
ATOM      5  C   UNL     1      45.912   3.779  12.886  0.00  0.00    +0.000 A 
ATOM      6  C   UNL     1      45.123   3.533  11.753  0.00  0.00    +0.000 A 
ENDROOT
BRANCH   1   7
ATOM      7  C   UNL     1      43.704   4.360   9.814  0.00  0.00    +0.000 C 
BRANCH   7  10
ATOM      8  C   UNL     1      45.619   4.039   8.255  0.00  0.00    +0.000 C 
ATOM      9  O   UNL     1      46.046   5.176   8.420  0.00  0.00    +0.000 OA
ATOM     10  N   UNL     1      44.515   3.546   8.929  0.00  0.00    +0.000 N 
ATOM     11  H   UNL     1      44.140   2.645   8.672  0.00  0.00    +0.000 HD
BRANCH   8  18
ATOM     12  C   UNL     1      45.739   1.033   8.709  0.00  0.00    +0.000 C 
ATOM     13  C   UNL     1      46.360   1.708   7.516  0.00  0.00    +0.000 A 
ATOM     14  C   UNL     1      47.068   0.907   6.598  0.00  0.00    +0.000 A 
ATOM     15  C   UNL     1      47.620   1.455   5.439  0.00  0.00    +0.000 A 
ATOM     16  C   UNL     1      47.434   2.802   5.156  0.00  0.00    +0.000 A 
ATOM     17  C   UNL     1      46.741   3.613   6.056  0.00  0.00    +0.000 A 
ATOM     18  C   UNL     1      46.236   3.092   7.263  0.00  0.00    +0.000 A 
ENDBRANCH   8  18
ENDBRANCH   7  10
ENDBRANCH   1   7
BRANCH   4  19
ATOM     19  C   UNL     1      46.957   5.370  14.559  0.00  0.00    +0.000 C 
BRANCH  19  20
ATOM     20  N   UNL     1      47.465   6.716  14.518  0.00  0.00    +0.000 N 
ATOM     21  C   UNL     1      48.546   7.037  13.734  0.00  0.00    +0.000 C 
ATOM     22  O   UNL     1      49.090   6.210  13.007  0.00  0.00    +0.000 OA
ATOM     23  H   UNL     1      47.182   7.343  15.264  0.00  0.00    +0.000 HD
BRANCH  21  24
ATOM     24  C   UNL     1      48.987   8.438  13.754  0.00  0.00    +0.000 A 
ATOM     25  C   UNL     1      50.186   8.770  14.369  0.00  0.00    +0.000 A 
ATOM     26  S   UNL     1      50.573  10.428  14.272  0.00  0.00    +0.000 S 
ATOM     27  C   UNL     1      49.126  10.770  13.447  0.00  0.00    +0.000 A 
ATOM     28  N   UNL     1      48.815  12.044  13.085  0.00  0.00    +0.000 NA
ATOM     29  C   UNL     1      47.675  12.166  12.492  0.00  0.00    +0.000 A 
ATOM     30  N   UNL     1      46.821  11.127  12.220  0.00  0.00    +0.000 N 
ATOM     31  C   UNL     1      47.105   9.821  12.540  0.00  0.00    +0.000 A 
ATOM     32  O   UNL     1      46.342   8.909  12.246  0.00  0.00    +0.000 OA
ATOM     33  C   UNL     1      48.369   9.632  13.227  0.00  0.00    +0.000 A 
ATOM     34  H   UNL     1      45.946  11.289  11.746  0.00  0.00    +0.000 HD
ENDBRANCH  21  24
ENDBRANCH  19  20
ENDBRANCH   4  19
TORSDOF 6
ENDMDL
