MODEL 1
REMARK VINA RESULT:    -8.873      0.000      0.000
REMARK INTER + INTRA:         -13.400
REMARK INTER:                 -12.503
REMARK INTRA:                  -0.896
REMARK UNBOUND:                -0.896
REMARK  Name = 
REMARK  8 active torsions:
REMARK  status: ('A' for Active; 'I' for Inactive)
REMARK    1  A    between atoms: N_1  and  C_2
REMARK    2  A    between atoms: C_2  and  N_3
REMARK    3  A    between atoms: C_2  and  C_16
REMARK    4  A    between atoms: C_4  and  C_6
REMARK    5  A    between atoms: C_19  and  O_20
REMARK    6  A    between atoms: O_20  and  C_21
REMARK    7  A    between atoms: C_21  and  C_22
REMARK    8  A    between atoms: C_25  and  O_26
REMARK                            x       y       z     vdW  Elec       q    Type
REMARK                         _______ _______ _______ _____ _____    ______ ____
ROOT
ATOM      1  C   UNL     1      46.491   7.622  12.847  0.00  0.00    +0.000 C 
ENDROOT
BRANCH   1   2
ATOM      2  C   UNL     1      45.885   6.600  11.905  0.00  0.00    +0.000 A 
ATOM      3  C   UNL     1      44.838   5.792  12.384  0.00  0.00    +0.000 A 
ATOM      4  C   UNL     1      44.224   4.838  11.569  0.00  0.00    +0.000 A 
ATOM      5  C   UNL     1      44.635   4.674  10.248  0.00  0.00    +0.000 A 
ATOM      6  C   UNL     1      45.680   5.460   9.762  0.00  0.00    +0.000 A 
ATOM      7  C   UNL     1      46.295   6.420  10.577  0.00  0.00    +0.000 A 
BRANCH   5   8
ATOM      8  O   UNL     1      44.115   3.767   9.362  0.00  0.00    +0.000 OA
BRANCH   8   9
ATOM      9  C   UNL     1      44.700   2.462   9.413  0.00  0.00    +0.000 C 
BRANCH   9  10
ATOM     10  C   UNL     1      45.716   2.272   8.309  0.00  0.00    +0.000 A 
ATOM     11  C   UNL     1      45.902   3.247   7.329  0.00  0.00    +0.000 A 
ATOM     12  C   UNL     1      46.772   2.989   6.270  0.00  0.00    +0.000 A 
ATOM     13  C   UNL     1      47.431   1.770   6.226  0.00  0.00    +0.000 A 
ATOM     14  C   UNL     1      47.215   0.860   7.246  0.00  0.00    +0.000 A 
ATOM     15  N   UNL     1      46.368   1.079   8.277  0.00  0.00    +0.000 NA
BRANCH  13  16
ATOM     16  O   UNL     1      48.271   1.440   5.206  0.00  0.00    +0.000 OA
ATOM     17  H   UNL     1      48.428   2.231   4.665  0.00  0.00    +0.000 HD
ENDBRANCH  13  16
ENDBRANCH   9  10
ENDBRANCH   8   9
ENDBRANCH   5   8
ENDBRANCH   1   2
BRANCH   1  18
ATOM     18  N   UNL     1      47.004   7.096  14.066  0.00  0.00    +0.000 N 
ATOM     19  C   UNL     1      48.294   6.641  14.169  0.00  0.00    +0.000 C 
ATOM     20  O   UNL     1      49.080   6.673  13.227  0.00  0.00    +0.000 OA
ATOM     21  H   UNL     1      46.326   6.832  14.769  0.00  0.00    +0.000 HD
BRANCH  19  22
ATOM     22  C   UNL     1      48.721   6.185  15.498  0.00  0.00    +0.000 A 
ATOM     23  C   UNL     1      49.725   6.876  16.163  0.00  0.00    +0.000 A 
ATOM     24  S   UNL     1      50.070   6.261  17.714  0.00  0.00    +0.000 S 
ATOM     25  C   UNL     1      48.920   5.019  17.535  0.00  0.00    +0.000 A 
ATOM     26  N   UNL     1      48.719   4.109  18.526  0.00  0.00    +0.000 NA
ATOM     27  C   UNL     1      47.840   3.204  18.246  0.00  0.00    +0.000 A 
ATOM     28  N   UNL     1      47.137   3.136  17.071  0.00  0.00    +0.000 N 
ATOM     29  C   UNL     1      47.277   4.061  16.063  0.00  0.00    +0.000 A 
ATOM     30  O   UNL     1      46.588   4.008  15.048  0.00  0.00    +0.000 OA
ATOM     31  C   UNL     1      48.269   5.086  16.316  0.00  0.00    +0.000 A 
ATOM     32  H   UNL     1      46.453   2.406  16.923  0.00  0.00    +0.000 HD
ENDBRANCH  19  22
ENDBRANCH   1  18
BRANCH   1  33
ATOM     33  N   UNL     1      45.488   8.560  13.308  0.00  0.00    +0.000 NA
ATOM     34  H   UNL     1      45.845   8.994  14.154  0.00  0.00    +0.000 HD
ATOM     35  H   UNL     1      44.658   8.035  13.572  0.00  0.00    +0.000 HD
ENDBRANCH   1  33
TORSDOF 8
ENDMDL
MODEL 2
REMARK VINA RESULT:    -8.603      1.846      2.261
REMARK INTER + INTRA:         -13.020
REMARK INTER:                 -11.997
REMARK INTRA:                  -1.023
REMARK UNBOUND:                -0.896
REMARK  Name = 
REMARK  8 active torsions:
REMARK  status: ('A' for Active; 'I' for Inactive)
REMARK    1  A    between atoms: N_1  and  C_2
REMARK    2  A    between atoms: C_2  and  N_3
REMARK    3  A    between atoms: C_2  and  C_16
REMARK    4  A    between atoms: C_4  and  C_6
REMARK    5  A    between atoms: C_19  and  O_20
REMARK    6  A    between atoms: O_20  and  C_21
REMARK    7  A    between atoms: C_21  and  C_22
REMARK    8  A    between atoms: C_25  and  O_26
REMARK                            x       y       z     vdW  Elec       q    Type
REMARK                         _______ _______ _______ _____ _____    ______ ____
ROOT
ATOM      1  C   UNL     1      47.445   6.485  13.483  0.00  0.00    +0.000 C 
ENDROOT
BRANCH   1   2
ATOM      2  C   UNL     1      46.585   5.780  12.454  0.00  0.00    +0.000 A 
ATOM      3  C   UNL     1      45.999   4.550  12.805  0.00  0.00    +0.000 A 
ATOM      4  C   UNL     1      45.185   3.849  11.913  0.00  0.00    +0.000 A 
ATOM      5  C   UNL     1      44.926   4.367  10.645  0.00  0.00    +0.000 A 
ATOM      6  C   UNL     1      45.509   5.579  10.277  0.00  0.00    +0.000 A 
ATOM      7  C   UNL     1      46.323   6.285  11.172  0.00  0.00    +0.000 A 
BRANCH   5   8
ATOM      8  O   UNL     1      44.154   3.765   9.685  0.00  0.00    +0.000 OA
BRANCH   8   9
ATOM      9  C   UNL     1      44.493   2.405   9.396  0.00  0.00    +0.000 C 
BRANCH   9  10
ATOM     10  C   UNL     1      45.585   2.321   8.352  0.00  0.00    +0.000 A 
ATOM     11  C   UNL     1      45.800   3.367   7.453  0.00  0.00    +0.000 A 
ATOM     12  C   UNL     1      46.744   3.207   6.440  0.00  0.00    +0.000 A 
ATOM     13  C   UNL     1      47.447   2.014   6.360  0.00  0.00    +0.000 A 
ATOM     14  C   UNL     1      47.197   1.031   7.300  0.00  0.00    +0.000 A 
ATOM     15  N   UNL     1      46.278   1.154   8.285  0.00  0.00    +0.000 NA
BRANCH  13  16
ATOM     16  O   UNL     1      48.362   1.780   5.379  0.00  0.00    +0.000 OA
ATOM     17  H   UNL     1      49.187   1.475   5.790  0.00  0.00    +0.000 HD
ENDBRANCH  13  16
ENDBRANCH   9  10
ENDBRANCH   8   9
ENDBRANCH   5   8
ENDBRANCH   1   2
BRANCH   1  18
ATOM     18  N   UNL     1      47.488   5.868  14.766  0.00  0.00    +0.000 N 
ATOM     19  C   UNL     1      48.565   6.016  15.600  0.00  0.00    +0.000 C 
ATOM     20  O   UNL     1      49.543   6.695  15.300  0.00  0.00    +0.000 OA
ATOM     21  H   UNL     1      46.827   5.120  14.933  0.00  0.00    +0.000 HD
BRANCH  19  22
ATOM     22  C   UNL     1      48.459   5.384  16.921  0.00  0.00    +0.000 A 
ATOM     23  C   UNL     1      48.551   4.002  17.022  0.00  0.00    +0.000 A 
ATOM     24  S   UNL     1      48.467   3.422  18.621  0.00  0.00    +0.000 S 
ATOM     25  C   UNL     1      48.256   4.995  19.236  0.00  0.00    +0.000 A 
ATOM     26  N   UNL     1      48.105   5.206  20.571  0.00  0.00    +0.000 NA
ATOM     27  C   UNL     1      47.925   6.444  20.897  0.00  0.00    +0.000 A 
ATOM     28  N   UNL     1      47.894   7.487  20.009  0.00  0.00    +0.000 N 
ATOM     29  C   UNL     1      48.087   7.324  18.657  0.00  0.00    +0.000 A 
ATOM     30  O   UNL     1      48.116   8.286  17.895  0.00  0.00    +0.000 OA
ATOM     31  C   UNL     1      48.272   5.950  18.235  0.00  0.00    +0.000 A 
ATOM     32  H   UNL     1      47.760   8.435  20.335  0.00  0.00    +0.000 HD
ENDBRANCH  19  22
ENDBRANCH   1  18
BRANCH   1  33
ATOM     33  N   UNL     1      46.916   7.800  13.786  0.00  0.00    +0.000 NA
ATOM     34  H   UNL     1      47.573   8.254  14.413  0.00  0.00    +0.000 HD
ATOM     35  H   UNL     1      46.047   7.684  14.300  0.00  0.00    +0.000 HD
ENDBRANCH   1  33
TORSDOF 8
ENDMDL
MODEL 3
REMARK VINA RESULT:    -8.197      2.000      2.559
REMARK INTER + INTRA:         -12.448
REMARK INTER:                 -11.394
REMARK INTRA:                  -1.053
REMARK UNBOUND:                -0.896
REMARK  Name = 
REMARK  8 active torsions:
REMARK  status: ('A' for Active; 'I' for Inactive)
REMARK    1  A    between atoms: N_1  and  C_2
REMARK    2  A    between atoms: C_2  and  N_3
REMARK    3  A    between atoms: C_2  and  C_16
REMARK    4  A    between atoms: C_4  and  C_6
REMARK    5  A    between atoms: C_19  and  O_20
REMARK    6  A    between atoms: O_20  and  C_21
REMARK    7  A    between atoms: C_21  and  C_22
REMARK    8  A    between atoms: C_25  and  O_26
REMARK                            x       y       z     vdW  Elec       q    Type
REMARK                         _______ _______ _______ _____ _____    ______ ____
ROOT
ATOM      1  C   UNL     1      48.286   6.487  13.833  0.00  0.00    +0.000 C 
ENDROOT
BRANCH   1   2
ATOM      2  C   UNL     1      47.174   5.818  13.049  0.00  0.00    +0.000 A 
ATOM      3  C   UNL     1      46.712   6.449  11.880  0.00  0.00    +0.000 A 
ATOM      4  C   UNL     1      45.699   5.886  11.100  0.00  0.00    +0.000 A 
ATOM      5  C   UNL     1      45.128   4.668  11.465  0.00  0.00    +0.000 A 
ATOM      6  C   UNL     1      45.567   4.036  12.628  0.00  0.00    +0.000 A 
ATOM      7  C   UNL     1      46.585   4.598  13.409  0.00  0.00    +0.000 A 
BRANCH   5   8
ATOM      8  O   UNL     1      44.124   4.027  10.785  0.00  0.00    +0.000 OA
BRANCH   8   9
ATOM      9  C   UNL     1      44.060   4.312   9.385  0.00  0.00    +0.000 C 
BRANCH   9  10
ATOM     10  C   UNL     1      45.078   3.503   8.612  0.00  0.00    +0.000 A 
ATOM     11  C   UNL     1      45.223   2.133   8.835  0.00  0.00    +0.000 A 
ATOM     12  C   UNL     1      46.243   1.443   8.179  0.00  0.00    +0.000 A 
ATOM     13  C   UNL     1      47.079   2.140   7.321  0.00  0.00    +0.000 A 
ATOM     14  C   UNL     1      46.861   3.493   7.132  0.00  0.00    +0.000 A 
ATOM     15  N   UNL     1      45.888   4.190   7.763  0.00  0.00    +0.000 NA
BRANCH  13  16
ATOM     16  O   UNL     1      48.113   1.536   6.672  0.00  0.00    +0.000 OA
ATOM     17  H   UNL     1      48.201   1.934   5.790  0.00  0.00    +0.000 HD
ENDBRANCH  13  16
ENDBRANCH   9  10
ENDBRANCH   8   9
ENDBRANCH   5   8
ENDBRANCH   1   2
BRANCH   1  18
ATOM     18  N   UNL     1      48.055   6.608  15.233  0.00  0.00    +0.000 N 
ATOM     19  C   UNL     1      49.084   6.573  16.138  0.00  0.00    +0.000 C 
ATOM     20  O   UNL     1      50.256   6.449  15.798  0.00  0.00    +0.000 OA
ATOM     21  H   UNL     1      47.106   6.463  15.552  0.00  0.00    +0.000 HD
BRANCH  19  22
ATOM     22  C   UNL     1      48.720   6.775  17.547  0.00  0.00    +0.000 A 
ATOM     23  C   UNL     1      48.371   8.046  17.982  0.00  0.00    +0.000 A 
ATOM     24  S   UNL     1      47.921   8.110  19.624  0.00  0.00    +0.000 S 
ATOM     25  C   UNL     1      48.220   6.446  19.825  0.00  0.00    +0.000 A 
ATOM     26  N   UNL     1      48.038   5.847  21.033  0.00  0.00    +0.000 NA
ATOM     27  C   UNL     1      48.331   4.589  21.052  0.00  0.00    +0.000 A 
ATOM     28  N   UNL     1      48.778   3.876  19.970  0.00  0.00    +0.000 N 
ATOM     29  C   UNL     1      48.932   4.432  18.721  0.00  0.00    +0.000 A 
ATOM     30  O   UNL     1      49.274   3.752  17.758  0.00  0.00    +0.000 OA
ATOM     31  C   UNL     1      48.639   5.848  18.650  0.00  0.00    +0.000 A 
ATOM     32  H   UNL     1      48.977   2.888  20.053  0.00  0.00    +0.000 HD
ENDBRANCH  19  22
ENDBRANCH   1  18
BRANCH   1  33
ATOM     33  N   UNL     1      48.452   7.867  13.422  0.00  0.00    +0.000 NA
ATOM     34  H   UNL     1      47.677   8.394  13.813  0.00  0.00    +0.000 HD
ATOM     35  H   UNL     1      48.362   7.912  12.411  0.00  0.00    +0.000 HD
ENDBRANCH   1  33
TORSDOF 8
ENDMDL
MODEL 4
REMARK VINA RESULT:    -8.105      2.100      3.669
REMARK INTER + INTRA:         -12.318
REMARK INTER:                 -11.063
REMARK INTRA:                  -1.255
REMARK UNBOUND:                -0.896
REMARK  Name = 
REMARK  8 active torsions:
REMARK  status: ('A' for Active; 'I' for Inactive)
REMARK    1  A    between atoms: N_1  and  C_2
REMARK    2  A    between atoms: C_2  and  N_3
REMARK    3  A    between atoms: C_2  and  C_16
REMARK    4  A    between atoms: C_4  and  C_6
REMARK    5  A    between atoms: C_19  and  O_20
REMARK    6  A    between atoms: O_20  and  C_21
REMARK    7  A    between atoms: C_21  and  C_22
REMARK    8  A    between atoms: C_25  and  O_26
REMARK                            x       y       z     vdW  Elec       q    Type
REMARK                         _______ _______ _______ _____ _____    ______ ____
ROOT
ATOM      1  C   UNL     1      46.822   4.694  14.702  0.00  0.00    +0.000 C 
ENDROOT
BRANCH   1   2
ATOM      2  C   UNL     1      46.163   4.514  13.349  0.00  0.00    +0.000 A 
ATOM      3  C   UNL     1      46.085   5.627  12.493  0.00  0.00    +0.000 A 
ATOM      4  C   UNL     1      45.502   5.534  11.227  0.00  0.00    +0.000 A 
ATOM      5  C   UNL     1      44.991   4.317  10.779  0.00  0.00    +0.000 A 
ATOM      6  C   UNL     1      45.050   3.207  11.621  0.00  0.00    +0.000 A 
ATOM      7  C   UNL     1      45.637   3.299  12.890  0.00  0.00    +0.000 A 
BRANCH   5   8
ATOM      8  O   UNL     1      44.390   4.108   9.564  0.00  0.00    +0.000 OA
BRANCH   8   9
ATOM      9  C   UNL     1      44.407   2.755   9.101  0.00  0.00    +0.000 C 
BRANCH   9  10
ATOM     10  C   UNL     1      45.581   2.504   8.180  0.00  0.00    +0.000 A 
ATOM     11  C   UNL     1      45.964   3.454   7.232  0.00  0.00    +0.000 A 
ATOM     12  C   UNL     1      46.982   3.143   6.332  0.00  0.00    +0.000 A 
ATOM     13  C   UNL     1      47.588   1.898   6.410  0.00  0.00    +0.000 A 
ATOM     14  C   UNL     1      47.172   1.016   7.391  0.00  0.00    +0.000 A 
ATOM     15  N   UNL     1      46.179   1.287   8.268  0.00  0.00    +0.000 NA
BRANCH  13  16
ATOM     16  O   UNL     1      48.568   1.516   5.544  0.00  0.00    +0.000 OA
ATOM     17  H   UNL     1      48.252   0.752   5.036  0.00  0.00    +0.000 HD
ENDBRANCH  13  16
ENDBRANCH   9  10
ENDBRANCH   8   9
ENDBRANCH   5   8
ENDBRANCH   1   2
BRANCH   1  18
ATOM     18  N   UNL     1      47.789   5.738  14.774  0.00  0.00    +0.000 N 
ATOM     19  C   UNL     1      48.422   6.054  15.948  0.00  0.00    +0.000 C 
ATOM     20  O   UNL     1      48.205   5.453  16.996  0.00  0.00    +0.000 OA
ATOM     21  H   UNL     1      47.804   6.397  14.006  0.00  0.00    +0.000 HD
BRANCH  19  22
ATOM     22  C   UNL     1      49.444   7.106  15.875  0.00  0.00    +0.000 A 
ATOM     23  C   UNL     1      50.696   6.875  16.429  0.00  0.00    +0.000 A 
ATOM     24  S   UNL     1      51.790   8.163  16.216  0.00  0.00    +0.000 S 
ATOM     25  C   UNL     1      50.614   9.097  15.414  0.00  0.00    +0.000 A 
ATOM     26  N   UNL     1      50.906  10.349  14.967  0.00  0.00    +0.000 NA
ATOM     27  C   UNL     1      49.914  10.956  14.404  0.00  0.00    +0.000 A 
ATOM     28  N   UNL     1      48.664  10.421  14.239  0.00  0.00    +0.000 N 
ATOM     29  C   UNL     1      48.340   9.144  14.635  0.00  0.00    +0.000 A 
ATOM     30  O   UNL     1      47.228   8.671  14.417  0.00  0.00    +0.000 OA
ATOM     31  C   UNL     1      49.411   8.426  15.294  0.00  0.00    +0.000 A 
ATOM     32  H   UNL     1      47.936  10.949  13.777  0.00  0.00    +0.000 HD
ENDBRANCH  19  22
ENDBRANCH   1  18
BRANCH   1  33
ATOM     33  N   UNL     1      47.599   3.524  15.060  0.00  0.00    +0.000 NA
ATOM     34  H   UNL     1      48.244   3.344  14.297  0.00  0.00    +0.000 HD
ATOM     35  H   UNL     1      46.970   2.728  15.111  0.00  0.00    +0.000 HD
ENDBRANCH   1  33
TORSDOF 8
ENDMDL
MODEL 5
REMARK VINA RESULT:    -8.042      2.716      4.237
REMARK INTER + INTRA:         -12.230
REMARK INTER:                 -10.870
REMARK INTRA:                  -1.359
REMARK UNBOUND:                -0.896
REMARK  Name = 
REMARK  8 active torsions:
REMARK  status: ('A' for Active; 'I' for Inactive)
REMARK    1  A    between atoms: N_1  and  C_2
REMARK    2  A    between atoms: C_2  and  N_3
REMARK    3  A    between atoms: C_2  and  C_16
REMARK    4  A    between atoms: C_4  and  C_6
REMARK    5  A    between atoms: C_19  and  O_20
REMARK    6  A    between atoms: O_20  and  C_21
REMARK    7  A    between atoms: C_21  and  C_22
REMARK    8  A    between atoms: C_25  and  O_26
REMARK                            x       y       z     vdW  Elec       q    Type
REMARK                         _______ _______ _______ _____ _____    ______ ____
ROOT
ATOM      1  C   UNL     1      47.229   5.820  14.106  0.00  0.00    +0.000 C 
ENDROOT
BRANCH   1   2
ATOM      2  C   UNL     1      46.441   5.320  12.912  0.00  0.00    +0.000 A 
ATOM      3  C   UNL     1      45.881   4.032  12.975  0.00  0.00    +0.000 A 
ATOM      4  C   UNL     1      45.133   3.509  11.918  0.00  0.00    +0.000 A 
ATOM      5  C   UNL     1      44.916   4.269  10.770  0.00  0.00    +0.000 A 
ATOM      6  C   UNL     1      45.474   5.544  10.687  0.00  0.00    +0.000 A 
ATOM      7  C   UNL     1      46.222   6.071  11.748  0.00  0.00    +0.000 A 
BRANCH   5   8
ATOM      8  O   UNL     1      44.209   3.859   9.669  0.00  0.00    +0.000 OA
BRANCH   8   9
ATOM      9  C   UNL     1      44.414   2.496   9.288  0.00  0.00    +0.000 C 
BRANCH   9  10
ATOM     10  C   UNL     1      45.554   2.366   8.301  0.00  0.00    +0.000 A 
ATOM     11  C   UNL     1      45.827   3.382   7.385  0.00  0.00    +0.000 A 
ATOM     12  C   UNL     1      46.818   3.181   6.423  0.00  0.00    +0.000 A 
ATOM     13  C   UNL     1      47.506   1.977   6.412  0.00  0.00    +0.000 A 
ATOM     14  C   UNL     1      47.196   1.025   7.367  0.00  0.00    +0.000 A 
ATOM     15  N   UNL     1      46.232   1.188   8.302  0.00  0.00    +0.000 NA
BRANCH  13  16
ATOM     16  O   UNL     1      48.464   1.702   5.484  0.00  0.00    +0.000 OA
ATOM     17  H   UNL     1      49.239   1.332   5.938  0.00  0.00    +0.000 HD
ENDBRANCH  13  16
ENDBRANCH   9  10
ENDBRANCH   8   9
ENDBRANCH   5   8
ENDBRANCH   1   2
BRANCH   1  18
ATOM     18  N   UNL     1      48.450   6.483  13.796  0.00  0.00    +0.000 N 
ATOM     19  C   UNL     1      49.099   7.266  14.716  0.00  0.00    +0.000 C 
ATOM     20  O   UNL     1      48.677   7.429  15.856  0.00  0.00    +0.000 OA
ATOM     21  H   UNL     1      48.685   6.569  12.815  0.00  0.00    +0.000 HD
BRANCH  19  22
ATOM     22  C   UNL     1      50.382   7.842  14.293  0.00  0.00    +0.000 A 
ATOM     23  C   UNL     1      51.478   7.752  15.140  0.00  0.00    +0.000 A 
ATOM     24  S   UNL     1      52.906   8.414  14.488  0.00  0.00    +0.000 S 
ATOM     25  C   UNL     1      52.100   8.886  13.065  0.00  0.00    +0.000 A 
ATOM     26  N   UNL     1      52.765   9.534  12.071  0.00  0.00    +0.000 NA
ATOM     27  C   UNL     1      52.026   9.859  11.062  0.00  0.00    +0.000 A 
ATOM     28  N   UNL     1      50.687   9.586  10.955  0.00  0.00    +0.000 N 
ATOM     29  C   UNL     1      49.987   8.895  11.916  0.00  0.00    +0.000 A 
ATOM     30  O   UNL     1      48.803   8.611  11.763  0.00  0.00    +0.000 OA
ATOM     31  C   UNL     1      50.765   8.525  13.081  0.00  0.00    +0.000 A 
ATOM     32  H   UNL     1      50.172   9.860  10.130  0.00  0.00    +0.000 HD
ENDBRANCH  19  22
ENDBRANCH   1  18
BRANCH   1  33
ATOM     33  N   UNL     1      47.674   4.716  14.932  0.00  0.00    +0.000 NA
ATOM     34  H   UNL     1      46.847   4.201  15.220  0.00  0.00    +0.000 HD
ATOM     35  H   UNL     1      48.095   5.097  15.774  0.00  0.00    +0.000 HD
ENDBRANCH   1  33
TORSDOF 8
ENDMDL
MODEL 6
REMARK VINA RESULT:    -7.919      2.396      3.399
REMARK INTER + INTRA:         -12.056
REMARK INTER:                 -10.935
REMARK INTRA:                  -1.121
REMARK UNBOUND:                -0.896
REMARK  Name = 
REMARK  8 active torsions:
REMARK  status: ('A' for Active; 'I' for Inactive)
REMARK    1  A    between atoms: N_1  and  C_2
REMARK    2  A    between atoms: C_2  and  N_3
REMARK    3  A    between atoms: C_2  and  C_16
REMARK    4  A    between atoms: C_4  and  C_6
REMARK    5  A    between atoms: C_19  and  O_20
REMARK    6  A    between atoms: O_20  and  C_21
REMARK    7  A    between atoms: C_21  and  C_22
REMARK    8  A    between atoms: C_25  and  O_26
REMARK                            x       y       z     vdW  Elec       q    Type
REMARK                         _______ _______ _______ _____ _____    ______ ____
ROOT
ATOM      1  C   UNL     1      46.933   4.281  15.204  0.00  0.00    +0.000 C 
ENDROOT
BRANCH   1   2
ATOM      2  C   UNL     1      46.441   4.559  13.797  0.00  0.00    +0.000 A 
ATOM      3  C   UNL     1      45.724   3.549  13.131  0.00  0.00    +0.000 A 
ATOM      4  C   UNL     1      45.230   3.738  11.838  0.00  0.00    +0.000 A 
ATOM      5  C   UNL     1      45.431   4.951  11.181  0.00  0.00    +0.000 A 
ATOM      6  C   UNL     1      46.150   5.958  11.824  0.00  0.00    +0.000 A 
ATOM      7  C   UNL     1      46.644   5.771  13.122  0.00  0.00    +0.000 A 
BRANCH   5   8
ATOM      8  O   UNL     1      45.002   5.246   9.913  0.00  0.00    +0.000 OA
BRANCH   8   9
ATOM      9  C   UNL     1      44.427   4.150   9.195  0.00  0.00    +0.000 C 
BRANCH   9  10
ATOM     10  C   UNL     1      45.463   3.442   8.351  0.00  0.00    +0.000 A 
ATOM     11  C   UNL     1      45.691   2.072   8.494  0.00  0.00    +0.000 A 
ATOM     12  C   UNL     1      46.727   1.477   7.774  0.00  0.00    +0.000 A 
ATOM     13  C   UNL     1      47.496   2.265   6.931  0.00  0.00    +0.000 A 
ATOM     14  C   UNL     1      47.197   3.611   6.822  0.00  0.00    +0.000 A 
ATOM     15  N   UNL     1      46.207   4.217   7.517  0.00  0.00    +0.000 NA
BRANCH  13  16
ATOM     16  O   UNL     1      48.541   1.755   6.221  0.00  0.00    +0.000 OA
ATOM     17  H   UNL     1      48.360   1.875   5.275  0.00  0.00    +0.000 HD
ENDBRANCH  13  16
ENDBRANCH   9  10
ENDBRANCH   8   9
ENDBRANCH   5   8
ENDBRANCH   1   2
BRANCH   1  18
ATOM     18  N   UNL     1      47.810   5.263  15.747  0.00  0.00    +0.000 N 
ATOM     19  C   UNL     1      47.991   5.398  17.099  0.00  0.00    +0.000 C 
ATOM     20  O   UNL     1      47.423   4.679  17.915  0.00  0.00    +0.000 OA
ATOM     21  H   UNL     1      48.091   6.013  15.129  0.00  0.00    +0.000 HD
BRANCH  19  22
ATOM     22  C   UNL     1      48.972   6.404  17.528  0.00  0.00    +0.000 A 
ATOM     23  C   UNL     1      48.536   7.681  17.855  0.00  0.00    +0.000 A 
ATOM     24  S   UNL     1      49.780   8.715  18.388  0.00  0.00    +0.000 S 
ATOM     25  C   UNL     1      50.956   7.507  18.157  0.00  0.00    +0.000 A 
ATOM     26  N   UNL     1      52.268   7.752  18.423  0.00  0.00    +0.000 NA
ATOM     27  C   UNL     1      53.055   6.757  18.176  0.00  0.00    +0.000 A 
ATOM     28  N   UNL     1      52.646   5.539  17.698  0.00  0.00    +0.000 N 
ATOM     29  C   UNL     1      51.326   5.235  17.460  0.00  0.00    +0.000 A 
ATOM     30  O   UNL     1      50.986   4.114  17.092  0.00  0.00    +0.000 OA
ATOM     31  C   UNL     1      50.402   6.324  17.700  0.00  0.00    +0.000 A 
ATOM     32  H   UNL     1      53.316   4.799  17.539  0.00  0.00    +0.000 HD
ENDBRANCH  19  22
ENDBRANCH   1  18
BRANCH   1  33
ATOM     33  N   UNL     1      47.744   3.082  15.241  0.00  0.00    +0.000 NA
ATOM     34  H   UNL     1      47.251   2.400  15.810  0.00  0.00    +0.000 HD
ATOM     35  H   UNL     1      48.612   3.298  15.723  0.00  0.00    +0.000 HD
ENDBRANCH   1  33
TORSDOF 8
ENDMDL
MODEL 7
REMARK VINA RESULT:    -7.736      3.002      4.167
REMARK INTER + INTRA:         -11.799
REMARK INTER:                 -10.719
REMARK INTRA:                  -1.080
REMARK UNBOUND:                -0.896
REMARK  Name = 
REMARK  8 active torsions:
REMARK  status: ('A' for Active; 'I' for Inactive)
REMARK    1  A    between atoms: N_1  and  C_2
REMARK    2  A    between atoms: C_2  and  N_3
REMARK    3  A    between atoms: C_2  and  C_16
REMARK    4  A    between atoms: C_4  and  C_6
REMARK    5  A    between atoms: C_19  and  O_20
REMARK    6  A    between atoms: O_20  and  C_21
REMARK    7  A    between atoms: C_21  and  C_22
REMARK    8  A    between atoms: C_25  and  O_26
REMARK                            x       y       z     vdW  Elec       q    Type
REMARK                         _______ _______ _______ _____ _____    ______ ____
ROOT
ATOM      1  C   UNL     1      47.209   6.271  13.733  0.00  0.00    +0.000 C 
ENDROOT
BRANCH   1   2
ATOM      2  C   UNL     1      46.378   5.587  12.665  0.00  0.00    +0.000 A 
ATOM      3  C   UNL     1      46.217   6.236  11.428  0.00  0.00    +0.000 A 
ATOM      4  C   UNL     1      45.475   5.660  10.394  0.00  0.00    +0.000 A 
ATOM      5  C   UNL     1      44.883   4.411  10.567  0.00  0.00    +0.000 A 
ATOM      6  C   UNL     1      45.024   3.759  11.792  0.00  0.00    +0.000 A 
ATOM      7  C   UNL     1      45.770   4.334  12.830  0.00  0.00    +0.000 A 
BRANCH   5   8
ATOM      8  O   UNL     1      44.128   3.755   9.630  0.00  0.00    +0.000 OA
BRANCH   8   9
ATOM      9  C   UNL     1      44.489   2.389   9.406  0.00  0.00    +0.000 C 
BRANCH   9  10
ATOM     10  C   UNL     1      45.590   2.273   8.376  0.00  0.00    +0.000 A 
ATOM     11  C   UNL     1      45.862   3.322   7.496  0.00  0.00    +0.000 A 
ATOM     12  C   UNL     1      46.813   3.138   6.493  0.00  0.00    +0.000 A 
ATOM     13  C   UNL     1      47.465   1.917   6.404  0.00  0.00    +0.000 A 
ATOM     14  C   UNL     1      47.161   0.931   7.325  0.00  0.00    +0.000 A 
ATOM     15  N   UNL     1      46.234   1.079   8.300  0.00  0.00    +0.000 NA
BRANCH  13  16
ATOM     16  O   UNL     1      48.383   1.659   5.431  0.00  0.00    +0.000 OA
ATOM     17  H   UNL     1      48.016   1.936   4.576  0.00  0.00    +0.000 HD
ENDBRANCH  13  16
ENDBRANCH   9  10
ENDBRANCH   8   9
ENDBRANCH   5   8
ENDBRANCH   1   2
BRANCH   1  18
ATOM     18  N   UNL     1      48.451   6.806  13.287  0.00  0.00    +0.000 N 
ATOM     19  C   UNL     1      48.644   8.156  13.143  0.00  0.00    +0.000 C 
ATOM     20  O   UNL     1      47.769   8.978  13.401  0.00  0.00    +0.000 OA
ATOM     21  H   UNL     1      49.090   6.161  12.840  0.00  0.00    +0.000 HD
BRANCH  19  22
ATOM     22  C   UNL     1      49.989   8.583  12.739  0.00  0.00    +0.000 A 
ATOM     23  C   UNL     1      50.150   9.294  11.558  0.00  0.00    +0.000 A 
ATOM     24  S   UNL     1      51.758   9.768  11.254  0.00  0.00    +0.000 S 
ATOM     25  C   UNL     1      52.307   8.999  12.670  0.00  0.00    +0.000 A 
ATOM     26  N   UNL     1      53.626   9.015  13.004  0.00  0.00    +0.000 NA
ATOM     27  C   UNL     1      53.907   8.369  14.087  0.00  0.00    +0.000 A 
ATOM     28  N   UNL     1      52.989   7.718  14.868  0.00  0.00    +0.000 N 
ATOM     29  C   UNL     1      51.641   7.714  14.591  0.00  0.00    +0.000 A 
ATOM     30  O   UNL     1      50.836   7.175  15.344  0.00  0.00    +0.000 OA
ATOM     31  C   UNL     1      51.273   8.407  13.374  0.00  0.00    +0.000 A 
ATOM     32  H   UNL     1      53.278   7.241  15.711  0.00  0.00    +0.000 HD
ENDBRANCH  19  22
ENDBRANCH   1  18
BRANCH   1  33
ATOM     33  N   UNL     1      47.622   5.328  14.752  0.00  0.00    +0.000 NA
ATOM     34  H   UNL     1      47.928   4.484  14.277  0.00  0.00    +0.000 HD
ATOM     35  H   UNL     1      46.807   5.079  15.305  0.00  0.00    +0.000 HD
ENDBRANCH   1  33
TORSDOF 8
ENDMDL
MODEL 8
REMARK VINA RESULT:    -7.641      2.592      3.574
REMARK INTER + INTRA:         -11.665
REMARK INTER:                 -10.615
REMARK INTRA:                  -1.050
REMARK UNBOUND:                -0.896
REMARK  Name = 
REMARK  8 active torsions:
REMARK  status: ('A' for Active; 'I' for Inactive)
REMARK    1  A    between atoms: N_1  and  C_2
REMARK    2  A    between atoms: C_2  and  N_3
REMARK    3  A    between atoms: C_2  and  C_16
REMARK    4  A    between atoms: C_4  and  C_6
REMARK    5  A    between atoms: C_19  and  O_20
REMARK    6  A    between atoms: O_20  and  C_21
REMARK    7  A    between atoms: C_21  and  C_22
REMARK    8  A    between atoms: C_25  and  O_26
REMARK                            x       y       z     vdW  Elec       q    Type
REMARK                         _______ _______ _______ _____ _____    ______ ____
ROOT
ATOM      1  C   UNL     1      46.979   4.402  15.218  0.00  0.00    +0.000 C 
ENDROOT
BRANCH   1   2
ATOM      2  C   UNL     1      46.430   4.612  13.821  0.00  0.00    +0.000 A 
ATOM      3  C   UNL     1      45.878   3.506  13.150  0.00  0.00    +0.000 A 
ATOM      4  C   UNL     1      45.342   3.626  11.865  0.00  0.00    +0.000 A 
ATOM      5  C   UNL     1      45.335   4.863  11.222  0.00  0.00    +0.000 A 
ATOM      6  C   UNL     1      45.889   5.966  11.870  0.00  0.00    +0.000 A 
ATOM      7  C   UNL     1      46.424   5.848  13.159  0.00  0.00    +0.000 A 
BRANCH   5   8
ATOM      8  O   UNL     1      44.847   5.098   9.963  0.00  0.00    +0.000 OA
BRANCH   8   9
ATOM      9  C   UNL     1      44.344   3.946   9.280  0.00  0.00    +0.000 C 
BRANCH   9  10
ATOM     10  C   UNL     1      45.405   3.324   8.398  0.00  0.00    +0.000 A 
ATOM     11  C   UNL     1      45.701   1.963   8.485  0.00  0.00    +0.000 A 
ATOM     12  C   UNL     1      46.757   1.449   7.732  0.00  0.00    +0.000 A 
ATOM     13  C   UNL     1      47.477   2.306   6.915  0.00  0.00    +0.000 A 
ATOM     14  C   UNL     1      47.112   3.640   6.863  0.00  0.00    +0.000 A 
ATOM     15  N   UNL     1      46.101   4.167   7.591  0.00  0.00    +0.000 NA
BRANCH  13  16
ATOM     16  O   UNL     1      48.538   1.878   6.176  0.00  0.00    +0.000 OA
ATOM     17  H   UNL     1      48.391   2.126   5.249  0.00  0.00    +0.000 HD
ENDBRANCH  13  16
ENDBRANCH   9  10
ENDBRANCH   8   9
ENDBRANCH   5   8
ENDBRANCH   1   2
BRANCH   1  18
ATOM     18  N   UNL     1      47.954   5.352  15.638  0.00  0.00    +0.000 N 
ATOM     19  C   UNL     1      48.328   5.467  16.952  0.00  0.00    +0.000 C 
ATOM     20  O   UNL     1      47.859   4.756  17.835  0.00  0.00    +0.000 OA
ATOM     21  H   UNL     1      48.167   6.100  14.991  0.00  0.00    +0.000 HD
BRANCH  19  22
ATOM     22  C   UNL     1      49.389   6.439  17.245  0.00  0.00    +0.000 A 
ATOM     23  C   UNL     1      50.642   6.270  16.670  0.00  0.00    +0.000 A 
ATOM     24  S   UNL     1      51.748   7.506  17.058  0.00  0.00    +0.000 S 
ATOM     25  C   UNL     1      50.606   8.290  18.046  0.00  0.00    +0.000 A 
ATOM     26  N   UNL     1      50.926   9.436  18.705  0.00  0.00    +0.000 NA
ATOM     27  C   UNL     1      49.976   9.908  19.443  0.00  0.00    +0.000 A 
ATOM     28  N   UNL     1      48.734   9.343  19.571  0.00  0.00    +0.000 N 
ATOM     29  C   UNL     1      48.354   8.211  18.888  0.00  0.00    +0.000 A 
ATOM     30  O   UNL     1      47.214   7.765  18.976  0.00  0.00    +0.000 OA
ATOM     31  C   UNL     1      49.392   7.627  18.063  0.00  0.00    +0.000 A 
ATOM     32  H   UNL     1      48.032   9.774  20.157  0.00  0.00    +0.000 HD
ENDBRANCH  19  22
ENDBRANCH   1  18
BRANCH   1  33
ATOM     33  N   UNL     1      47.704   3.150  15.307  0.00  0.00    +0.000 NA
ATOM     34  H   UNL     1      47.081   2.416  14.983  0.00  0.00    +0.000 HD
ATOM     35  H   UNL     1      47.898   2.963  16.287  0.00  0.00    +0.000 HD
ENDBRANCH   1  33
TORSDOF 8
ENDMDL
MODEL 9
REMARK VINA RESULT:    -7.558      4.686      9.061
REMARK INTER + INTRA:         -11.547
REMARK INTER:                 -10.675
REMARK INTRA:                  -0.872
REMARK UNBOUND:                -0.896
REMARK  Name = 
REMARK  8 active torsions:
REMARK  status: ('A' for Active; 'I' for Inactive)
REMARK    1  A    between atoms: N_1  and  C_2
REMARK    2  A    between atoms: C_2  and  N_3
REMARK    3  A    between atoms: C_2  and  C_16
REMARK    4  A    between atoms: C_4  and  C_6
REMARK    5  A    between atoms: C_19  and  O_20
REMARK    6  A    between atoms: O_20  and  C_21
REMARK    7  A    between atoms: C_21  and  C_22
REMARK    8  A    between atoms: C_25  and  O_26
REMARK                            x       y       z     vdW  Elec       q    Type
REMARK                         _______ _______ _______ _____ _____    ______ ____
ROOT
ATOM      1  C   UNL     1      47.351   3.792  16.973  0.00  0.00    +0.000 C 
ENDROOT
BRANCH   1   2
ATOM      2  C   UNL     1      48.846   3.696  17.206  0.00  0.00    +0.000 A 
ATOM      3  C   UNL     1      49.444   2.423  17.173  0.00  0.00    +0.000 A 
ATOM      4  C   UNL     1      50.818   2.259  17.367  0.00  0.00    +0.000 A 
ATOM      5  C   UNL     1      51.633   3.369  17.587  0.00  0.00    +0.000 A 
ATOM      6  C   UNL     1      51.052   4.636  17.634  0.00  0.00    +0.000 A 
ATOM      7  C   UNL     1      49.675   4.802  17.437  0.00  0.00    +0.000 A 
BRANCH   5   8
ATOM      8  O   UNL     1      52.986   3.329  17.799  0.00  0.00    +0.000 OA
BRANCH   8   9
ATOM      9  C   UNL     1      53.419   2.399  18.796  0.00  0.00    +0.000 C 
BRANCH   9  10
ATOM     10  C   UNL     1      54.003   1.152  18.169  0.00  0.00    +0.000 A 
ATOM     11  C   UNL     1      54.663   1.208  16.941  0.00  0.00    +0.000 A 
ATOM     12  C   UNL     1      55.093   0.022  16.347  0.00  0.00    +0.000 A 
ATOM     13  C   UNL     1      54.856  -1.178  16.998  0.00  0.00    +0.000 A 
ATOM     14  C   UNL     1      54.216  -1.155  18.225  0.00  0.00    +0.000 A 
ATOM     15  N   UNL     1      53.777  -0.021  18.818  0.00  0.00    +0.000 NA
BRANCH  13  16
ATOM     16  O   UNL     1      55.223  -2.376  16.462  0.00  0.00    +0.000 OA
ATOM     17  H   UNL     1      55.785  -2.843  17.101  0.00  0.00    +0.000 HD
ENDBRANCH  13  16
ENDBRANCH   9  10
ENDBRANCH   8   9
ENDBRANCH   5   8
ENDBRANCH   1   2
BRANCH   1  18
ATOM     18  N   UNL     1      46.952   4.682  15.937  0.00  0.00    +0.000 N 
ATOM     19  C   UNL     1      46.946   4.299  14.620  0.00  0.00    +0.000 C 
ATOM     20  O   UNL     1      47.268   3.170  14.261  0.00  0.00    +0.000 OA
ATOM     21  H   UNL     1      46.923   5.667  16.169  0.00  0.00    +0.000 HD
BRANCH  19  22
ATOM     22  C   UNL     1      46.451   5.289  13.655  0.00  0.00    +0.000 A 
ATOM     23  C   UNL     1      47.268   6.353  13.295  0.00  0.00    +0.000 A 
ATOM     24  S   UNL     1      46.578   7.383  12.126  0.00  0.00    +0.000 S 
ATOM     25  C   UNL     1      45.142   6.469  12.092  0.00  0.00    +0.000 A 
ATOM     26  N   UNL     1      44.108   6.829  11.285  0.00  0.00    +0.000 NA
ATOM     27  C   UNL     1      43.069   6.066  11.381  0.00  0.00    +0.000 A 
ATOM     28  N   UNL     1      42.978   4.972  12.201  0.00  0.00    +0.000 N 
ATOM     29  C   UNL     1      44.015   4.548  12.998  0.00  0.00    +0.000 A 
ATOM     30  O   UNL     1      43.924   3.528  13.675  0.00  0.00    +0.000 OA
ATOM     31  C   UNL     1      45.198   5.382  12.946  0.00  0.00    +0.000 A 
ATOM     32  H   UNL     1      42.137   4.411  12.217  0.00  0.00    +0.000 HD
ENDBRANCH  19  22
ENDBRANCH   1  18
BRANCH   1  33
ATOM     33  N   UNL     1      46.681   4.342  18.134  0.00  0.00    +0.000 NA
ATOM     34  H   UNL     1      45.757   3.922  18.179  0.00  0.00    +0.000 HD
ATOM     35  H   UNL     1      46.547   5.338  17.982  0.00  0.00    +0.000 HD
ENDBRANCH   1  33
TORSDOF 8
ENDMDL
