MODEL 1
REMARK VINA RESULT:    -7.373      0.000      0.000
REMARK INTER + INTRA:         -11.850
REMARK INTER:                 -10.175
REMARK INTRA:                  -1.675
REMARK UNBOUND:                -1.675
REMARK  Name = 
REMARK  8 active torsions:
REMARK  status: ('A' for Active; 'I' for Inactive)
REMARK    1  A    between atoms: C_1  and  C_2
REMARK    2  A    between atoms: C_2  and  N_3
REMARK    3  A    between atoms: C_2  and  C_16
REMARK    4  A    between atoms: C_4  and  C_6
REMARK    5  A    between atoms: C_19  and  O_20
REMARK    6  A    between atoms: O_20  and  C_21
REMARK    7  A    between atoms: C_26  and  C_27
REMARK    8  A    between atoms: C_27  and  O_28
REMARK                            x       y       z     vdW  Elec       q    Type
REMARK                         _______ _______ _______ _____ _____    ______ ____
ROOT
ATOM      1  C   UNL     1      48.555   9.412  13.473  0.00  0.00    +0.000 C 
ATOM      2  C   UNL     1      47.718   8.363  14.213  0.00  0.00    +0.000 C 
ENDROOT
BRANCH   2   3
ATOM      3  C   UNL     1      46.807   7.580  13.281  0.00  0.00    +0.000 A 
ATOM      4  C   UNL     1      47.016   6.203  13.115  0.00  0.00    +0.000 A 
ATOM      5  C   UNL     1      46.227   5.465  12.231  0.00  0.00    +0.000 A 
ATOM      6  C   UNL     1      45.179   6.081  11.545  0.00  0.00    +0.000 A 
ATOM      7  C   UNL     1      44.991   7.457  11.664  0.00  0.00    +0.000 A 
ATOM      8  C   UNL     1      45.807   8.203  12.515  0.00  0.00    +0.000 A 
BRANCH   6   9
ATOM      9  O   UNL     1      44.321   5.432  10.685  0.00  0.00    +0.000 OA
BRANCH   9  10
ATOM     10  C   UNL     1      44.804   4.474   9.819  0.00  0.00    +0.000 A 
ATOM     11  C   UNL     1      45.656   4.777   8.746  0.00  0.00    +0.000 A 
ATOM     12  C   UNL     1      46.072   3.782   7.863  0.00  0.00    +0.000 A 
ATOM     13  C   UNL     1      45.703   2.463   8.087  0.00  0.00    +0.000 A 
ATOM     14  C   UNL     1      44.922   2.138   9.198  0.00  0.00    +0.000 A 
ATOM     15  C   UNL     1      44.461   3.135  10.074  0.00  0.00    +0.000 A 
BRANCH  15  16
ATOM     16  C   UNL     1      43.646   2.719  11.275  0.00  0.00    +0.000 C 
BRANCH  16  17
ATOM     17  O   UNL     1      42.526   3.581  11.454  0.00  0.00    +0.000 OA
ATOM     18  H   UNL     1      42.796   4.466  11.154  0.00  0.00    +0.000 HD
ENDBRANCH  16  17
ENDBRANCH  15  16
ENDBRANCH   9  10
ENDBRANCH   6   9
ENDBRANCH   2   3
BRANCH   2  19
ATOM     19  N   UNL     1      48.555   7.423  14.933  0.00  0.00    +0.000 N 
ATOM     20  C   UNL     1      48.879   7.548  16.257  0.00  0.00    +0.000 C 
ATOM     21  O   UNL     1      48.483   8.498  16.928  0.00  0.00    +0.000 OA
ATOM     22  H   UNL     1      48.866   6.610  14.408  0.00  0.00    +0.000 HD
BRANCH  20  23
ATOM     23  C   UNL     1      49.724   6.492  16.846  0.00  0.00    +0.000 A 
ATOM     24  C   UNL     1      50.970   6.826  17.360  0.00  0.00    +0.000 A 
ATOM     25  S   UNL     1      51.858   5.496  17.949  0.00  0.00    +0.000 S 
ATOM     26  C   UNL     1      50.612   4.414  17.538  0.00  0.00    +0.000 A 
ATOM     27  N   UNL     1      50.757   3.077  17.742  0.00  0.00    +0.000 NA
ATOM     28  C   UNL     1      49.740   2.366  17.382  0.00  0.00    +0.000 A 
ATOM     29  N   UNL     1      48.584   2.877  16.857  0.00  0.00    +0.000 N 
ATOM     30  C   UNL     1      48.381   4.219  16.662  0.00  0.00    +0.000 A 
ATOM     31  O   UNL     1      47.309   4.639  16.240  0.00  0.00    +0.000 OA
ATOM     32  C   UNL     1      49.514   5.065  17.001  0.00  0.00    +0.000 A 
ATOM     33  H   UNL     1      47.809   2.271  16.625  0.00  0.00    +0.000 HD
ENDBRANCH  20  23
ENDBRANCH   2  19
TORSDOF 7
ENDMDL
MODEL 2
REMARK VINA RESULT:    -7.197      1.940      2.267
REMARK INTER + INTRA:         -11.607
REMARK INTER:                 -10.147
REMARK INTRA:                  -1.461
REMARK UNBOUND:                -1.675
REMARK  Name = 
REMARK  8 active torsions:
REMARK  status: ('A' for Active; 'I' for Inactive)
REMARK    1  A    between atoms: C_1  and  C_2
REMARK    2  A    between atoms: C_2  and  N_3
REMARK    3  A    between atoms: C_2  and  C_16
REMARK    4  A    between atoms: C_4  and  C_6
REMARK    5  A    between atoms: C_19  and  O_20
REMARK    6  A    between atoms: O_20  and  C_21
REMARK    7  A    between atoms: C_26  and  C_27
REMARK    8  A    between atoms: C_27  and  O_28
REMARK                            x       y       z     vdW  Elec       q    Type
REMARK                         _______ _______ _______ _____ _____    ______ ____
ROOT
ATOM      1  C   UNL     1      49.819   7.703  13.614  0.00  0.00    +0.000 C 
ATOM      2  C   UNL     1      48.409   8.013  14.129  0.00  0.00    +0.000 C 
ENDROOT
BRANCH   2   3
ATOM      3  C   UNL     1      47.326   7.323  13.316  0.00  0.00    +0.000 A 
ATOM      4  C   UNL     1      46.400   8.101  12.607  0.00  0.00    +0.000 A 
ATOM      5  C   UNL     1      45.365   7.499  11.890  0.00  0.00    +0.000 A 
ATOM      6  C   UNL     1      45.275   6.107  11.824  0.00  0.00    +0.000 A 
ATOM      7  C   UNL     1      46.158   5.323  12.564  0.00  0.00    +0.000 A 
ATOM      8  C   UNL     1      47.168   5.927  13.315  0.00  0.00    +0.000 A 
BRANCH   6   9
ATOM      9  O   UNL     1      44.317   5.421  11.111  0.00  0.00    +0.000 OA
BRANCH   9  10
ATOM     10  C   UNL     1      44.693   4.518  10.138  0.00  0.00    +0.000 A 
ATOM     11  C   UNL     1      45.541   4.855   9.073  0.00  0.00    +0.000 A 
ATOM     12  C   UNL     1      45.847   3.923   8.083  0.00  0.00    +0.000 A 
ATOM     13  C   UNL     1      45.370   2.624   8.189  0.00  0.00    +0.000 A 
ATOM     14  C   UNL     1      44.592   2.255   9.287  0.00  0.00    +0.000 A 
ATOM     15  C   UNL     1      44.241   3.194  10.272  0.00  0.00    +0.000 A 
BRANCH  15  16
ATOM     16  C   UNL     1      43.422   2.729  11.453  0.00  0.00    +0.000 C 
BRANCH  16  17
ATOM     17  O   UNL     1      44.242   2.559  12.606  0.00  0.00    +0.000 OA
ATOM     18  H   UNL     1      45.059   3.065  12.453  0.00  0.00    +0.000 HD
ENDBRANCH  16  17
ENDBRANCH  15  16
ENDBRANCH   9  10
ENDBRANCH   6   9
ENDBRANCH   2   3
BRANCH   2  19
ATOM     19  N   UNL     1      48.254   7.632  15.519  0.00  0.00    +0.000 N 
ATOM     20  C   UNL     1      48.648   8.413  16.573  0.00  0.00    +0.000 C 
ATOM     21  O   UNL     1      49.188   9.503  16.398  0.00  0.00    +0.000 OA
ATOM     22  H   UNL     1      47.778   6.751  15.690  0.00  0.00    +0.000 HD
BRANCH  20  23
ATOM     23  C   UNL     1      48.398   7.889  17.929  0.00  0.00    +0.000 A 
ATOM     24  C   UNL     1      47.927   8.747  18.914  0.00  0.00    +0.000 A 
ATOM     25  S   UNL     1      47.746   8.018  20.443  0.00  0.00    +0.000 S 
ATOM     26  C   UNL     1      48.294   6.519  19.852  0.00  0.00    +0.000 A 
ATOM     27  N   UNL     1      48.423   5.451  20.683  0.00  0.00    +0.000 NA
ATOM     28  C   UNL     1      48.853   4.375  20.110  0.00  0.00    +0.000 A 
ATOM     29  N   UNL     1      49.143   4.271  18.777  0.00  0.00    +0.000 N 
ATOM     30  C   UNL     1      48.999   5.311  17.896  0.00  0.00    +0.000 A 
ATOM     31  O   UNL     1      49.219   5.160  16.700  0.00  0.00    +0.000 OA
ATOM     32  C   UNL     1      48.568   6.564  18.496  0.00  0.00    +0.000 A 
ATOM     33  H   UNL     1      49.446   3.391  18.381  0.00  0.00    +0.000 HD
ENDBRANCH  20  23
ENDBRANCH   2  19
TORSDOF 7
ENDMDL
MODEL 3
REMARK VINA RESULT:    -6.577      3.358      8.054
REMARK INTER + INTRA:         -10.751
REMARK INTER:                  -9.642
REMARK INTRA:                  -1.109
REMARK UNBOUND:                -1.675
REMARK  Name = 
REMARK  8 active torsions:
REMARK  status: ('A' for Active; 'I' for Inactive)
REMARK    1  A    between atoms: C_1  and  C_2
REMARK    2  A    between atoms: C_2  and  N_3
REMARK    3  A    between atoms: C_2  and  C_16
REMARK    4  A    between atoms: C_4  and  C_6
REMARK    5  A    between atoms: C_19  and  O_20
REMARK    6  A    between atoms: O_20  and  C_21
REMARK    7  A    between atoms: C_26  and  C_27
REMARK    8  A    between atoms: C_27  and  O_28
REMARK                            x       y       z     vdW  Elec       q    Type
REMARK                         _______ _______ _______ _____ _____    ______ ____
ROOT
ATOM      1  C   UNL     1      48.352   9.407  16.325  0.00  0.00    +0.000 C 
ATOM      2  C   UNL     1      48.802   8.233  15.448  0.00  0.00    +0.000 C 
ENDROOT
BRANCH   2   3
ATOM      3  C   UNL     1      49.378   7.085  16.261  0.00  0.00    +0.000 A 
ATOM      4  C   UNL     1      50.767   6.894  16.288  0.00  0.00    +0.000 A 
ATOM      5  C   UNL     1      51.325   5.821  16.986  0.00  0.00    +0.000 A 
ATOM      6  C   UNL     1      50.506   4.958  17.716  0.00  0.00    +0.000 A 
ATOM      7  C   UNL     1      49.121   5.107  17.657  0.00  0.00    +0.000 A 
ATOM      8  C   UNL     1      48.561   6.154  16.925  0.00  0.00    +0.000 A 
BRANCH   6   9
ATOM      9  O   UNL     1      50.963   3.899  18.468  0.00  0.00    +0.000 OA
BRANCH   9  10
ATOM     10  C   UNL     1      52.237   3.409  18.270  0.00  0.00    +0.000 A 
ATOM     11  C   UNL     1      53.391   4.120  18.629  0.00  0.00    +0.000 A 
ATOM     12  C   UNL     1      54.659   3.607  18.357  0.00  0.00    +0.000 A 
ATOM     13  C   UNL     1      54.784   2.345  17.793  0.00  0.00    +0.000 A 
ATOM     14  C   UNL     1      53.644   1.593  17.507  0.00  0.00    +0.000 A 
ATOM     15  C   UNL     1      52.359   2.114  17.737  0.00  0.00    +0.000 A 
BRANCH  15  16
ATOM     16  C   UNL     1      51.163   1.242  17.435  0.00  0.00    +0.000 C 
BRANCH  16  17
ATOM     17  O   UNL     1      50.357   1.819  16.411  0.00  0.00    +0.000 OA
ATOM     18  H   UNL     1      50.305   2.773  16.592  0.00  0.00    +0.000 HD
ENDBRANCH  16  17
ENDBRANCH  15  16
ENDBRANCH   9  10
ENDBRANCH   6   9
ENDBRANCH   2   3
BRANCH   2  19
ATOM     19  N   UNL     1      47.711   7.722  14.641  0.00  0.00    +0.000 N 
ATOM     20  C   UNL     1      47.883   6.899  13.560  0.00  0.00    +0.000 C 
ATOM     21  O   UNL     1      49.001   6.550  13.189  0.00  0.00    +0.000 OA
ATOM     22  H   UNL     1      46.774   7.968  14.949  0.00  0.00    +0.000 HD
BRANCH  20  23
ATOM     23  C   UNL     1      46.666   6.448  12.857  0.00  0.00    +0.000 A 
ATOM     24  C   UNL     1      45.868   7.383  12.210  0.00  0.00    +0.000 A 
ATOM     25  S   UNL     1      44.467   6.726  11.498  0.00  0.00    +0.000 S 
ATOM     26  C   UNL     1      44.867   5.160  12.028  0.00  0.00    +0.000 A 
ATOM     27  N   UNL     1      44.038   4.111  11.782  0.00  0.00    +0.000 NA
ATOM     28  C   UNL     1      44.456   2.978  12.243  0.00  0.00    +0.000 A 
ATOM     29  N   UNL     1      45.639   2.800  12.907  0.00  0.00    +0.000 N 
ATOM     30  C   UNL     1      46.520   3.822  13.150  0.00  0.00    +0.000 A 
ATOM     31  O   UNL     1      47.595   3.610  13.701  0.00  0.00    +0.000 OA
ATOM     32  C   UNL     1      46.077   5.132  12.700  0.00  0.00    +0.000 A 
ATOM     33  H   UNL     1      45.926   1.881  13.215  0.00  0.00    +0.000 HD
ENDBRANCH  20  23
ENDBRANCH   2  19
TORSDOF 7
ENDMDL
MODEL 4
REMARK VINA RESULT:    -6.539      2.964      4.281
REMARK INTER + INTRA:         -10.699
REMARK INTER:                  -9.103
REMARK INTRA:                  -1.596
REMARK UNBOUND:                -1.675
REMARK  Name = 
REMARK  8 active torsions:
REMARK  status: ('A' for Active; 'I' for Inactive)
REMARK    1  A    between atoms: C_1  and  C_2
REMARK    2  A    between atoms: C_2  and  N_3
REMARK    3  A    between atoms: C_2  and  C_16
REMARK    4  A    between atoms: C_4  and  C_6
REMARK    5  A    between atoms: C_19  and  O_20
REMARK    6  A    between atoms: O_20  and  C_21
REMARK    7  A    between atoms: C_26  and  C_27
REMARK    8  A    between atoms: C_27  and  O_28
REMARK                            x       y       z     vdW  Elec       q    Type
REMARK                         _______ _______ _______ _____ _____    ______ ____
ROOT
ATOM      1  C   UNL     1      48.716   5.396  16.282  0.00  0.00    +0.000 C 
ATOM      2  C   UNL     1      48.601   6.521  15.249  0.00  0.00    +0.000 C 
ENDROOT
BRANCH   2   3
ATOM      3  C   UNL     1      47.554   6.232  14.185  0.00  0.00    +0.000 A 
ATOM      4  C   UNL     1      46.969   4.959  14.128  0.00  0.00    +0.000 A 
ATOM      5  C   UNL     1      46.039   4.647  13.134  0.00  0.00    +0.000 A 
ATOM      6  C   UNL     1      45.637   5.622  12.220  0.00  0.00    +0.000 A 
ATOM      7  C   UNL     1      46.246   6.875  12.235  0.00  0.00    +0.000 A 
ATOM      8  C   UNL     1      47.207   7.174  13.202  0.00  0.00    +0.000 A 
BRANCH   6   9
ATOM      9  O   UNL     1      44.698   5.424  11.232  0.00  0.00    +0.000 OA
BRANCH   9  10
ATOM     10  C   UNL     1      44.998   4.637  10.140  0.00  0.00    +0.000 A 
ATOM     11  C   UNL     1      45.858   5.054   9.113  0.00  0.00    +0.000 A 
ATOM     12  C   UNL     1      46.086   4.245   8.001  0.00  0.00    +0.000 A 
ATOM     13  C   UNL     1      45.516   2.981   7.940  0.00  0.00    +0.000 A 
ATOM     14  C   UNL     1      44.723   2.523   8.994  0.00  0.00    +0.000 A 
ATOM     15  C   UNL     1      44.451   3.342  10.103  0.00  0.00    +0.000 A 
BRANCH  15  16
ATOM     16  C   UNL     1      43.613   2.781  11.226  0.00  0.00    +0.000 C 
BRANCH  16  17
ATOM     17  O   UNL     1      42.549   3.669  11.561  0.00  0.00    +0.000 OA
ATOM     18  H   UNL     1      41.719   3.223  11.321  0.00  0.00    +0.000 HD
ENDBRANCH  16  17
ENDBRANCH  15  16
ENDBRANCH   9  10
ENDBRANCH   6   9
ENDBRANCH   2   3
BRANCH   2  19
ATOM     19  N   UNL     1      48.282   7.790  15.875  0.00  0.00    +0.000 N 
ATOM     20  C   UNL     1      49.215   8.738  16.197  0.00  0.00    +0.000 C 
ATOM     21  O   UNL     1      50.413   8.559  15.985  0.00  0.00    +0.000 OA
ATOM     22  H   UNL     1      47.294   7.976  16.027  0.00  0.00    +0.000 HD
BRANCH  20  23
ATOM     23  C   UNL     1      48.723   9.987  16.810  0.00  0.00    +0.000 A 
ATOM     24  C   UNL     1      49.045  11.205  16.226  0.00  0.00    +0.000 A 
ATOM     25  S   UNL     1      48.462  12.560  17.077  0.00  0.00    +0.000 S 
ATOM     26  C   UNL     1      47.753  11.572  18.268  0.00  0.00    +0.000 A 
ATOM     27  N   UNL     1      47.117  12.122  19.337  0.00  0.00    +0.000 NA
ATOM     28  C   UNL     1      46.629  11.263  20.170  0.00  0.00    +0.000 A 
ATOM     29  N   UNL     1      46.702   9.905  20.015  0.00  0.00    +0.000 N 
ATOM     30  C   UNL     1      47.306   9.308  18.940  0.00  0.00    +0.000 A 
ATOM     31  O   UNL     1      47.303   8.088  18.812  0.00  0.00    +0.000 OA
ATOM     32  C   UNL     1      47.921  10.226  17.995  0.00  0.00    +0.000 A 
ATOM     33  H   UNL     1      46.271   9.284  20.686  0.00  0.00    +0.000 HD
ENDBRANCH  20  23
ENDBRANCH   2  19
TORSDOF 7
ENDMDL
MODEL 5
REMARK VINA RESULT:    -6.513      1.652      2.535
REMARK INTER + INTRA:         -10.663
REMARK INTER:                  -8.977
REMARK INTRA:                  -1.686
REMARK UNBOUND:                -1.675
REMARK  Name = 
REMARK  8 active torsions:
REMARK  status: ('A' for Active; 'I' for Inactive)
REMARK    1  A    between atoms: C_1  and  C_2
REMARK    2  A    between atoms: C_2  and  N_3
REMARK    3  A    between atoms: C_2  and  C_16
REMARK    4  A    between atoms: C_4  and  C_6
REMARK    5  A    between atoms: C_19  and  O_20
REMARK    6  A    between atoms: O_20  and  C_21
REMARK    7  A    between atoms: C_26  and  C_27
REMARK    8  A    between atoms: C_27  and  O_28
REMARK                            x       y       z     vdW  Elec       q    Type
REMARK                         _______ _______ _______ _____ _____    ______ ____
ROOT
ATOM      1  C   UNL     1      50.466   8.910  13.414  0.00  0.00    +0.000 C 
ATOM      2  C   UNL     1      49.127   8.839  14.155  0.00  0.00    +0.000 C 
ENDROOT
BRANCH   2   3
ATOM      3  C   UNL     1      48.019   8.240  13.303  0.00  0.00    +0.000 A 
ATOM      4  C   UNL     1      46.757   8.852  13.292  0.00  0.00    +0.000 A 
ATOM      5  C   UNL     1      45.705   8.301  12.557  0.00  0.00    +0.000 A 
ATOM      6  C   UNL     1      45.917   7.163  11.776  0.00  0.00    +0.000 A 
ATOM      7  C   UNL     1      47.151   6.518  11.816  0.00  0.00    +0.000 A 
ATOM      8  C   UNL     1      48.191   7.045  12.585  0.00  0.00    +0.000 A 
BRANCH   6   9
ATOM      9  O   UNL     1      44.957   6.571  10.986  0.00  0.00    +0.000 OA
BRANCH   9  10
ATOM     10  C   UNL     1      44.430   5.346  11.338  0.00  0.00    +0.000 A 
ATOM     11  C   UNL     1      43.776   5.121  12.559  0.00  0.00    +0.000 A 
ATOM     12  C   UNL     1      43.310   3.851  12.895  0.00  0.00    +0.000 A 
ATOM     13  C   UNL     1      43.425   2.811  11.982  0.00  0.00    +0.000 A 
ATOM     14  C   UNL     1      44.000   3.043  10.731  0.00  0.00    +0.000 A 
ATOM     15  C   UNL     1      44.512   4.308  10.394  0.00  0.00    +0.000 A 
BRANCH  15  16
ATOM     16  C   UNL     1      45.095   4.506   9.016  0.00  0.00    +0.000 C 
BRANCH  16  17
ATOM     17  O   UNL     1      44.342   3.796   8.037  0.00  0.00    +0.000 OA
ATOM     18  H   UNL     1      44.513   2.849   8.176  0.00  0.00    +0.000 HD
ENDBRANCH  16  17
ENDBRANCH  15  16
ENDBRANCH   9  10
ENDBRANCH   6   9
ENDBRANCH   2   3
BRANCH   2  19
ATOM     19  N   UNL     1      49.233   8.066  15.378  0.00  0.00    +0.000 N 
ATOM     20  C   UNL     1      48.607   8.399  16.549  0.00  0.00    +0.000 C 
ATOM     21  O   UNL     1      47.914   9.410  16.641  0.00  0.00    +0.000 OA
ATOM     22  H   UNL     1      49.773   7.206  15.316  0.00  0.00    +0.000 HD
BRANCH  20  23
ATOM     23  C   UNL     1      48.800   7.494  17.697  0.00  0.00    +0.000 A 
ATOM     24  C   UNL     1      49.118   8.028  18.939  0.00  0.00    +0.000 A 
ATOM     25  S   UNL     1      49.373   6.861  20.153  0.00  0.00    +0.000 S 
ATOM     26  C   UNL     1      49.071   5.587  19.066  0.00  0.00    +0.000 A 
ATOM     27  N   UNL     1      49.172   4.292  19.469  0.00  0.00    +0.000 NA
ATOM     28  C   UNL     1      48.923   3.423  18.546  0.00  0.00    +0.000 A 
ATOM     29  N   UNL     1      48.560   3.736  17.264  0.00  0.00    +0.000 N 
ATOM     30  C   UNL     1      48.415   5.026  16.822  0.00  0.00    +0.000 A 
ATOM     31  O   UNL     1      48.035   5.262  15.681  0.00  0.00    +0.000 OA
ATOM     32  C   UNL     1      48.735   6.049  17.805  0.00  0.00    +0.000 A 
ATOM     33  H   UNL     1      48.345   3.009  16.595  0.00  0.00    +0.000 HD
ENDBRANCH  20  23
ENDBRANCH   2  19
TORSDOF 7
ENDMDL
MODEL 6
REMARK VINA RESULT:    -6.314      3.207      5.521
REMARK INTER + INTRA:         -10.388
REMARK INTER:                  -9.091
REMARK INTRA:                  -1.297
REMARK UNBOUND:                -1.675
REMARK  Name = 
REMARK  8 active torsions:
REMARK  status: ('A' for Active; 'I' for Inactive)
REMARK    1  A    between atoms: C_1  and  C_2
REMARK    2  A    between atoms: C_2  and  N_3
REMARK    3  A    between atoms: C_2  and  C_16
REMARK    4  A    between atoms: C_4  and  C_6
REMARK    5  A    between atoms: C_19  and  O_20
REMARK    6  A    between atoms: O_20  and  C_21
REMARK    7  A    between atoms: C_26  and  C_27
REMARK    8  A    between atoms: C_27  and  O_28
REMARK                            x       y       z     vdW  Elec       q    Type
REMARK                         _______ _______ _______ _____ _____    ______ ____
ROOT
ATOM      1  C   UNL     1      44.641   4.566  13.004  0.00  0.00    +0.000 C 
ATOM      2  C   UNL     1      45.956   5.349  13.073  0.00  0.00    +0.000 C 
ENDROOT
BRANCH   2   3
ATOM      3  C   UNL     1      45.778   6.820  12.734  0.00  0.00    +0.000 A 
ATOM      4  C   UNL     1      44.820   7.192  11.780  0.00  0.00    +0.000 A 
ATOM      5  C   UNL     1      44.664   8.530  11.412  0.00  0.00    +0.000 A 
ATOM      6  C   UNL     1      45.423   9.522  12.035  0.00  0.00    +0.000 A 
ATOM      7  C   UNL     1      46.412   9.161  12.948  0.00  0.00    +0.000 A 
ATOM      8  C   UNL     1      46.597   7.820  13.285  0.00  0.00    +0.000 A 
BRANCH   6   9
ATOM      9  O   UNL     1      45.314  10.869  11.771  0.00  0.00    +0.000 OA
BRANCH   9  10
ATOM     10  C   UNL     1      45.984  11.421  10.700  0.00  0.00    +0.000 A 
ATOM     11  C   UNL     1      47.379  11.572  10.670  0.00  0.00    +0.000 A 
ATOM     12  C   UNL     1      48.006  12.189   9.588  0.00  0.00    +0.000 A 
ATOM     13  C   UNL     1      47.254  12.591   8.494  0.00  0.00    +0.000 A 
ATOM     14  C   UNL     1      45.875  12.372   8.477  0.00  0.00    +0.000 A 
ATOM     15  C   UNL     1      45.223  11.790   9.577  0.00  0.00    +0.000 A 
BRANCH  15  16
ATOM     16  C   UNL     1      43.735  11.550   9.489  0.00  0.00    +0.000 C 
BRANCH  16  17
ATOM     17  O   UNL     1      43.450  10.393   8.709  0.00  0.00    +0.000 OA
ATOM     18  H   UNL     1      44.205   9.788   8.808  0.00  0.00    +0.000 HD
ENDBRANCH  16  17
ENDBRANCH  15  16
ENDBRANCH   9  10
ENDBRANCH   6   9
ENDBRANCH   2   3
BRANCH   2  19
ATOM     19  N   UNL     1      46.567   5.251  14.385  0.00  0.00    +0.000 N 
ATOM     20  C   UNL     1      47.227   4.140  14.838  0.00  0.00    +0.000 C 
ATOM     21  O   UNL     1      47.328   3.127  14.150  0.00  0.00    +0.000 OA
ATOM     22  H   UNL     1      46.528   6.089  14.959  0.00  0.00    +0.000 HD
BRANCH  20  23
ATOM     23  C   UNL     1      47.812   4.210  16.191  0.00  0.00    +0.000 A 
ATOM     24  C   UNL     1      47.475   3.244  17.129  0.00  0.00    +0.000 A 
ATOM     25  S   UNL     1      48.176   3.489  18.662  0.00  0.00    +0.000 S 
ATOM     26  C   UNL     1      48.962   4.903  18.135  0.00  0.00    +0.000 A 
ATOM     27  N   UNL     1      49.712   5.642  18.996  0.00  0.00    +0.000 NA
ATOM     28  C   UNL     1      50.249   6.694  18.472  0.00  0.00    +0.000 A 
ATOM     29  N   UNL     1      50.120   7.057  17.158  0.00  0.00    +0.000 N 
ATOM     30  C   UNL     1      49.400   6.327  16.248  0.00  0.00    +0.000 A 
ATOM     31  O   UNL     1      49.354   6.659  15.069  0.00  0.00    +0.000 OA
ATOM     32  C   UNL     1      48.728   5.159  16.795  0.00  0.00    +0.000 A 
ATOM     33  H   UNL     1      50.592   7.876  16.799  0.00  0.00    +0.000 HD
ENDBRANCH  20  23
ENDBRANCH   2  19
TORSDOF 7
ENDMDL
MODEL 7
REMARK VINA RESULT:    -6.199      2.646      4.282
REMARK INTER + INTRA:         -10.230
REMARK INTER:                  -9.163
REMARK INTRA:                  -1.067
REMARK UNBOUND:                -1.675
REMARK  Name = 
REMARK  8 active torsions:
REMARK  status: ('A' for Active; 'I' for Inactive)
REMARK    1  A    between atoms: C_1  and  C_2
REMARK    2  A    between atoms: C_2  and  N_3
REMARK    3  A    between atoms: C_2  and  C_16
REMARK    4  A    between atoms: C_4  and  C_6
REMARK    5  A    between atoms: C_19  and  O_20
REMARK    6  A    between atoms: O_20  and  C_21
REMARK    7  A    between atoms: C_26  and  C_27
REMARK    8  A    between atoms: C_27  and  O_28
REMARK                            x       y       z     vdW  Elec       q    Type
REMARK                         _______ _______ _______ _____ _____    ______ ____
ROOT
ATOM      1  C   UNL     1      48.293   3.674  16.509  0.00  0.00    +0.000 C 
ATOM      2  C   UNL     1      48.315   5.071  15.880  0.00  0.00    +0.000 C 
ENDROOT
BRANCH   2   3
ATOM      3  C   UNL     1      47.376   5.190  14.690  0.00  0.00    +0.000 A 
ATOM      4  C   UNL     1      46.415   4.193  14.473  0.00  0.00    +0.000 A 
ATOM      5  C   UNL     1      45.569   4.248  13.363  0.00  0.00    +0.000 A 
ATOM      6  C   UNL     1      45.634   5.333  12.486  0.00  0.00    +0.000 A 
ATOM      7  C   UNL     1      46.617   6.305  12.663  0.00  0.00    +0.000 A 
ATOM      8  C   UNL     1      47.490   6.227  13.748  0.00  0.00    +0.000 A 
BRANCH   6   9
ATOM      9  O   UNL     1      44.817   5.498  11.390  0.00  0.00    +0.000 OA
BRANCH   9  10
ATOM     10  C   UNL     1      45.061   4.789  10.232  0.00  0.00    +0.000 A 
ATOM     11  C   UNL     1      45.953   5.229   9.243  0.00  0.00    +0.000 A 
ATOM     12  C   UNL     1      46.123   4.505   8.063  0.00  0.00    +0.000 A 
ATOM     13  C   UNL     1      45.460   3.297   7.895  0.00  0.00    +0.000 A 
ATOM     14  C   UNL     1      44.632   2.810   8.908  0.00  0.00    +0.000 A 
ATOM     15  C   UNL     1      44.419   3.547  10.084  0.00  0.00    +0.000 A 
BRANCH  15  16
ATOM     16  C   UNL     1      43.537   2.955  11.157  0.00  0.00    +0.000 C 
BRANCH  16  17
ATOM     17  O   UNL     1      42.511   3.869  11.536  0.00  0.00    +0.000 OA
ATOM     18  H   UNL     1      41.886   3.922  10.793  0.00  0.00    +0.000 HD
ENDBRANCH  16  17
ENDBRANCH  15  16
ENDBRANCH   9  10
ENDBRANCH   6   9
ENDBRANCH   2   3
BRANCH   2  19
ATOM     19  N   UNL     1      47.965   6.096  16.844  0.00  0.00    +0.000 N 
ATOM     20  C   UNL     1      48.883   6.882  17.489  0.00  0.00    +0.000 C 
ATOM     21  O   UNL     1      50.090   6.750  17.297  0.00  0.00    +0.000 OA
ATOM     22  H   UNL     1      46.972   6.248  16.994  0.00  0.00    +0.000 HD
BRANCH  20  23
ATOM     23  C   UNL     1      48.362   7.895  18.426  0.00  0.00    +0.000 A 
ATOM     24  C   UNL     1      48.040   7.521  19.724  0.00  0.00    +0.000 A 
ATOM     25  S   UNL     1      47.392   8.780  20.670  0.00  0.00    +0.000 S 
ATOM     26  C   UNL     1      47.511   9.883  19.380  0.00  0.00    +0.000 A 
ATOM     27  N   UNL     1      47.071  11.162  19.517  0.00  0.00    +0.000 NA
ATOM     28  C   UNL     1      47.214  11.894  18.462  0.00  0.00    +0.000 A 
ATOM     29  N   UNL     1      47.778  11.464  17.292  0.00  0.00    +0.000 N 
ATOM     30  C   UNL     1      48.263  10.194  17.118  0.00  0.00    +0.000 A 
ATOM     31  O   UNL     1      48.810   9.866  16.071  0.00  0.00    +0.000 OA
ATOM     32  C   UNL     1      48.080   9.308  18.257  0.00  0.00    +0.000 A 
ATOM     33  H   UNL     1      47.892  12.096  16.510  0.00  0.00    +0.000 HD
ENDBRANCH  20  23
ENDBRANCH   2  19
TORSDOF 7
ENDMDL
MODEL 8
REMARK VINA RESULT:    -6.147      3.393      5.662
REMARK INTER + INTRA:         -10.158
REMARK INTER:                  -8.637
REMARK INTRA:                  -1.522
REMARK UNBOUND:                -1.675
REMARK  Name = 
REMARK  8 active torsions:
REMARK  status: ('A' for Active; 'I' for Inactive)
REMARK    1  A    between atoms: C_1  and  C_2
REMARK    2  A    between atoms: C_2  and  N_3
REMARK    3  A    between atoms: C_2  and  C_16
REMARK    4  A    between atoms: C_4  and  C_6
REMARK    5  A    between atoms: C_19  and  O_20
REMARK    6  A    between atoms: O_20  and  C_21
REMARK    7  A    between atoms: C_26  and  C_27
REMARK    8  A    between atoms: C_27  and  O_28
REMARK                            x       y       z     vdW  Elec       q    Type
REMARK                         _______ _______ _______ _____ _____    ______ ____
ROOT
ATOM      1  C   UNL     1      44.215   4.325  12.976  0.00  0.00    +0.000 C 
ATOM      2  C   UNL     1      45.505   5.149  12.895  0.00  0.00    +0.000 C 
ENDROOT
BRANCH   2   3
ATOM      3  C   UNL     1      45.261   6.566  12.402  0.00  0.00    +0.000 A 
ATOM      4  C   UNL     1      45.983   7.625  12.972  0.00  0.00    +0.000 A 
ATOM      5  C   UNL     1      45.749   8.942  12.575  0.00  0.00    +0.000 A 
ATOM      6  C   UNL     1      44.832   9.215  11.559  0.00  0.00    +0.000 A 
ATOM      7  C   UNL     1      44.073   8.179  11.018  0.00  0.00    +0.000 A 
ATOM      8  C   UNL     1      44.276   6.866  11.445  0.00  0.00    +0.000 A 
BRANCH   6   9
ATOM      9  O   UNL     1      44.562  10.474  11.069  0.00  0.00    +0.000 OA
BRANCH   9  10
ATOM     10  C   UNL     1      43.261  10.858  10.826  0.00  0.00    +0.000 A 
ATOM     11  C   UNL     1      42.327  11.078  11.851  0.00  0.00    +0.000 A 
ATOM     12  C   UNL     1      41.006  11.410  11.552  0.00  0.00    +0.000 A 
ATOM     13  C   UNL     1      40.625  11.600  10.231  0.00  0.00    +0.000 A 
ATOM     14  C   UNL     1      41.566  11.464   9.209  0.00  0.00    +0.000 A 
ATOM     15  C   UNL     1      42.890  11.090   9.490  0.00  0.00    +0.000 A 
BRANCH  15  16
ATOM     16  C   UNL     1      43.870  10.988   8.346  0.00  0.00    +0.000 C 
BRANCH  16  17
ATOM     17  O   UNL     1      45.029  11.778   8.595  0.00  0.00    +0.000 OA
ATOM     18  H   UNL     1      45.658  11.217   9.083  0.00  0.00    +0.000 HD
ENDBRANCH  16  17
ENDBRANCH  15  16
ENDBRANCH   9  10
ENDBRANCH   6   9
ENDBRANCH   2   3
BRANCH   2  19
ATOM     19  N   UNL     1      46.174   5.219  14.180  0.00  0.00    +0.000 N 
ATOM     20  C   UNL     1      47.010   4.246  14.658  0.00  0.00    +0.000 C 
ATOM     21  O   UNL     1      47.235   3.221  14.019  0.00  0.00    +0.000 OA
ATOM     22  H   UNL     1      46.032   6.074  14.711  0.00  0.00    +0.000 HD
BRANCH  20  23
ATOM     23  C   UNL     1      47.631   4.481  15.976  0.00  0.00    +0.000 A 
ATOM     24  C   UNL     1      47.349   3.615  17.025  0.00  0.00    +0.000 A 
ATOM     25  S   UNL     1      48.086   4.046  18.499  0.00  0.00    +0.000 S 
ATOM     26  C   UNL     1      48.813   5.415  17.797  0.00  0.00    +0.000 A 
ATOM     27  N   UNL     1      49.563   6.264  18.548  0.00  0.00    +0.000 NA
ATOM     28  C   UNL     1      50.053   7.266  17.895  0.00  0.00    +0.000 A 
ATOM     29  N   UNL     1      49.876   7.479  16.554  0.00  0.00    +0.000 N 
ATOM     30  C   UNL     1      49.154   6.634  15.753  0.00  0.00    +0.000 A 
ATOM     31  O   UNL     1      49.065   6.832  14.546  0.00  0.00    +0.000 OA
ATOM     32  C   UNL     1      48.534   5.515  16.445  0.00  0.00    +0.000 A 
ATOM     33  H   UNL     1      50.313   8.266  16.093  0.00  0.00    +0.000 HD
ENDBRANCH  20  23
ENDBRANCH   2  19
TORSDOF 7
ENDMDL
MODEL 9
REMARK VINA RESULT:    -6.046      3.296      4.950
REMARK INTER + INTRA:         -10.019
REMARK INTER:                  -8.589
REMARK INTRA:                  -1.430
REMARK UNBOUND:                -1.675
REMARK  Name = 
REMARK  8 active torsions:
REMARK  status: ('A' for Active; 'I' for Inactive)
REMARK    1  A    between atoms: C_1  and  C_2
REMARK    2  A    between atoms: C_2  and  N_3
REMARK    3  A    between atoms: C_2  and  C_16
REMARK    4  A    between atoms: C_4  and  C_6
REMARK    5  A    between atoms: C_19  and  O_20
REMARK    6  A    between atoms: O_20  and  C_21
REMARK    7  A    between atoms: C_26  and  C_27
REMARK    8  A    between atoms: C_27  and  O_28
REMARK                            x       y       z     vdW  Elec       q    Type
REMARK                         _______ _______ _______ _____ _____    ______ ____
ROOT
ATOM      1  C   UNL     1      45.672   4.585  12.478  0.00  0.00    +0.000 C 
ATOM      2  C   UNL     1      46.536   5.820  12.754  0.00  0.00    +0.000 C 
ENDROOT
BRANCH   2   3
ATOM      3  C   UNL     1      45.796   7.122  12.489  0.00  0.00    +0.000 A 
ATOM      4  C   UNL     1      44.728   7.130  11.579  0.00  0.00    +0.000 A 
ATOM      5  C   UNL     1      44.059   8.318  11.278  0.00  0.00    +0.000 A 
ATOM      6  C   UNL     1      44.409   9.503  11.926  0.00  0.00    +0.000 A 
ATOM      7  C   UNL     1      45.499   9.519  12.795  0.00  0.00    +0.000 A 
ATOM      8  C   UNL     1      46.196   8.340  13.064  0.00  0.00    +0.000 A 
BRANCH   6   9
ATOM      9  O   UNL     1      43.783  10.714  11.729  0.00  0.00    +0.000 OA
BRANCH   9  10
ATOM     10  C   UNL     1      43.574  11.184  10.450  0.00  0.00    +0.000 A 
ATOM     11  C   UNL     1      44.620  11.427   9.547  0.00  0.00    +0.000 A 
ATOM     12  C   UNL     1      44.363  11.957   8.283  0.00  0.00    +0.000 A 
ATOM     13  C   UNL     1      43.052  12.177   7.883  0.00  0.00    +0.000 A 
ATOM     14  C   UNL     1      41.998  11.863   8.743  0.00  0.00    +0.000 A 
ATOM     15  C   UNL     1      42.243  11.367  10.034  0.00  0.00    +0.000 A 
BRANCH  15  16
ATOM     16  C   UNL     1      41.063  11.017  10.908  0.00  0.00    +0.000 C 
BRANCH  16  17
ATOM     17  O   UNL     1      40.996   9.612  11.135  0.00  0.00    +0.000 OA
ATOM     18  H   UNL     1      40.055   9.382  11.226  0.00  0.00    +0.000 HD
ENDBRANCH  16  17
ENDBRANCH  15  16
ENDBRANCH   9  10
ENDBRANCH   6   9
ENDBRANCH   2   3
BRANCH   2  19
ATOM     19  N   UNL     1      47.021   5.838  14.121  0.00  0.00    +0.000 N 
ATOM     20  C   UNL     1      48.296   6.190  14.473  0.00  0.00    +0.000 C 
ATOM     21  O   UNL     1      49.133   6.502  13.629  0.00  0.00    +0.000 OA
ATOM     22  H   UNL     1      46.336   5.618  14.839  0.00  0.00    +0.000 HD
BRANCH  20  23
ATOM     23  C   UNL     1      48.624   6.177  15.912  0.00  0.00    +0.000 A 
ATOM     24  C   UNL     1      49.322   7.245  16.460  0.00  0.00    +0.000 A 
ATOM     25  S   UNL     1      49.684   7.063  18.114  0.00  0.00    +0.000 S 
ATOM     26  C   UNL     1      48.923   5.543  18.168  0.00  0.00    +0.000 A 
ATOM     27  N   UNL     1      48.915   4.810  19.314  0.00  0.00    +0.000 NA
ATOM     28  C   UNL     1      48.309   3.673  19.219  0.00  0.00    +0.000 A 
ATOM     29  N   UNL     1      47.691   3.216  18.086  0.00  0.00    +0.000 N 
ATOM     30  C   UNL     1      47.647   3.933  16.919  0.00  0.00    +0.000 A 
ATOM     31  O   UNL     1      47.037   3.510  15.943  0.00  0.00    +0.000 OA
ATOM     32  C   UNL     1      48.360   5.200  16.951  0.00  0.00    +0.000 A 
ATOM     33  H   UNL     1      47.205   2.330  18.084  0.00  0.00    +0.000 HD
ENDBRANCH  20  23
ENDBRANCH   2  19
TORSDOF 7
ENDMDL
