MODEL 1
REMARK VINA RESULT:    -7.763      0.000      0.000
REMARK INTER + INTRA:         -11.407
REMARK INTER:                 -10.486
REMARK INTRA:                  -0.921
REMARK UNBOUND:                -0.921
REMARK  Name = 
REMARK  6 active torsions:
REMARK  status: ('A' for Active; 'I' for Inactive)
REMARK    1  A    between atoms: C_2  and  C_4
REMARK    2  A    between atoms: C_7  and  O_8
REMARK    3  A    between atoms: O_8  and  C_9
REMARK    4  A    between atoms: C_9  and  C_10
REMARK    5  A    between atoms: C_10  and  C_11
REMARK    6  A    between atoms: C_15  and  N_16
REMARK                            x       y       z     vdW  Elec       q    Type
REMARK                         _______ _______ _______ _____ _____    ______ ____
ROOT
ATOM      1  C   UNL     1      43.476   4.808  10.948  0.00  0.00    +0.000 C 
ENDROOT
BRANCH   1   2
ATOM      2  O   UNL     1      43.413   3.447  10.489  0.00  0.00    +0.000 OA
BRANCH   2   6
ATOM      3  C   UNL     1      46.372   2.697   7.709  0.00  0.00    +0.000 A 
ATOM      4  C   UNL     1      45.895   4.001   7.871  0.00  0.00    +0.000 A 
ATOM      5  C   UNL     1      44.885   4.247   8.807  0.00  0.00    +0.000 A 
ATOM      6  C   UNL     1      44.396   3.180   9.548  0.00  0.00    +0.000 A 
ATOM      7  N   UNL     1      44.833   1.913   9.398  0.00  0.00    +0.000 NA
ATOM      8  C   UNL     1      45.799   1.696   8.476  0.00  0.00    +0.000 A 
BRANCH   3  10
ATOM      9  N   UNL     1      47.610   3.108   5.660  0.00  0.00    +0.000 N 
ATOM     10  C   UNL     1      47.446   2.323   6.764  0.00  0.00    +0.000 C 
ATOM     11  O   UNL     1      48.192   1.378   6.986  0.00  0.00    +0.000 OA
ATOM     12  H   UNL     1      48.434   2.917   5.102  0.00  0.00    +0.000 HD
ATOM     13  H   UNL     1      47.203   4.030   5.586  0.00  0.00    +0.000 HD
ENDBRANCH   3  10
ENDBRANCH   2   6
ENDBRANCH   1   2
BRANCH   1  14
ATOM     14  C   UNL     1      43.755   4.850  12.454  0.00  0.00    +0.000 C 
BRANCH  14  15
ATOM     15  C   UNL     1      45.189   5.242  12.737  0.00  0.00    +0.000 A 
ATOM     16  C   UNL     1      45.849   6.141  11.892  0.00  0.00    +0.000 A 
ATOM     17  C   UNL     1      47.140   6.559  12.189  0.00  0.00    +0.000 A 
ATOM     18  C   UNL     1      47.769   6.106  13.351  0.00  0.00    +0.000 A 
ATOM     19  C   UNL     1      47.138   5.224  14.241  0.00  0.00    +0.000 A 
ATOM     20  C   UNL     1      45.852   4.779  13.891  0.00  0.00    +0.000 A 
BRANCH  19  21
ATOM     21  N   UNL     1      47.758   4.836  15.408  0.00  0.00    +0.000 N 
ATOM     22  C   UNL     1      47.667   3.463  15.927  0.00  0.00    +0.000 C 
ATOM     23  C   UNL     1      47.186   3.500  17.383  0.00  0.00    +0.000 C 
ATOM     24  O   UNL     1      48.041   4.326  18.195  0.00  0.00    +0.000 OA
ATOM     25  C   UNL     1      48.065   5.673  17.686  0.00  0.00    +0.000 C 
ATOM     26  C   UNL     1      48.574   5.735  16.231  0.00  0.00    +0.000 C 
ENDBRANCH  19  21
ENDBRANCH  14  15
ENDBRANCH   1  14
TORSDOF 6
ENDMDL
MODEL 2
REMARK VINA RESULT:    -7.721      2.809      3.948
REMARK INTER + INTRA:         -11.350
REMARK INTER:                 -10.447
REMARK INTRA:                  -0.903
REMARK UNBOUND:                -0.921
REMARK  Name = 
REMARK  6 active torsions:
REMARK  status: ('A' for Active; 'I' for Inactive)
REMARK    1  A    between atoms: C_2  and  C_4
REMARK    2  A    between atoms: C_7  and  O_8
REMARK    3  A    between atoms: O_8  and  C_9
REMARK    4  A    between atoms: C_9  and  C_10
REMARK    5  A    between atoms: C_10  and  C_11
REMARK    6  A    between atoms: C_15  and  N_16
REMARK                            x       y       z     vdW  Elec       q    Type
REMARK                         _______ _______ _______ _____ _____    ______ ____
ROOT
ATOM      1  C   UNL     1      43.468   3.577  11.068  0.00  0.00    +0.000 C 
ENDROOT
BRANCH   1   2
ATOM      2  O   UNL     1      43.865   4.404   9.961  0.00  0.00    +0.000 OA
BRANCH   2   6
ATOM      3  C   UNL     1      46.567   2.449   7.528  0.00  0.00    +0.000 A 
ATOM      4  C   UNL     1      45.869   1.727   8.500  0.00  0.00    +0.000 A 
ATOM      5  C   UNL     1      44.962   2.397   9.329  0.00  0.00    +0.000 A 
ATOM      6  C   UNL     1      44.786   3.762   9.148  0.00  0.00    +0.000 A 
ATOM      7  N   UNL     1      45.458   4.479   8.224  0.00  0.00    +0.000 NA
ATOM      8  C   UNL     1      46.341   3.813   7.445  0.00  0.00    +0.000 A 
BRANCH   3  10
ATOM      9  N   UNL     1      48.688   2.531   6.347  0.00  0.00    +0.000 N 
ATOM     10  C   UNL     1      47.534   1.844   6.588  0.00  0.00    +0.000 C 
ATOM     11  O   UNL     1      47.334   0.746   6.084  0.00  0.00    +0.000 OA
ATOM     12  H   UNL     1      49.392   2.037   5.813  0.00  0.00    +0.000 HD
ATOM     13  H   UNL     1      49.001   3.287   6.941  0.00  0.00    +0.000 HD
ENDBRANCH   3  10
ENDBRANCH   2   6
ENDBRANCH   1   2
BRANCH   1  14
ATOM     14  C   UNL     1      43.302   4.422  12.334  0.00  0.00    +0.000 C 
BRANCH  14  15
ATOM     15  C   UNL     1      44.610   5.065  12.741  0.00  0.00    +0.000 A 
ATOM     16  C   UNL     1      45.718   4.266  13.042  0.00  0.00    +0.000 A 
ATOM     17  C   UNL     1      46.940   4.854  13.346  0.00  0.00    +0.000 A 
ATOM     18  C   UNL     1      47.071   6.244  13.319  0.00  0.00    +0.000 A 
ATOM     19  C   UNL     1      45.994   7.085  12.998  0.00  0.00    +0.000 A 
ATOM     20  C   UNL     1      44.758   6.467  12.744  0.00  0.00    +0.000 A 
BRANCH  19  21
ATOM     21  N   UNL     1      46.162   8.450  12.924  0.00  0.00    +0.000 N 
ATOM     22  C   UNL     1      45.054   9.360  12.599  0.00  0.00    +0.000 C 
ATOM     23  C   UNL     1      45.463  10.263  11.428  0.00  0.00    +0.000 C 
ATOM     24  O   UNL     1      46.679  10.976  11.718  0.00  0.00    +0.000 OA
ATOM     25  C   UNL     1      47.752  10.051  11.980  0.00  0.00    +0.000 C 
ATOM     26  C   UNL     1      47.440   9.125  13.173  0.00  0.00    +0.000 C 
ENDBRANCH  19  21
ENDBRANCH  14  15
ENDBRANCH   1  14
TORSDOF 6
ENDMDL
MODEL 3
REMARK VINA RESULT:    -7.494      2.604      3.560
REMARK INTER + INTRA:         -11.043
REMARK INTER:                 -10.157
REMARK INTRA:                  -0.886
REMARK UNBOUND:                -0.921
REMARK  Name = 
REMARK  6 active torsions:
REMARK  status: ('A' for Active; 'I' for Inactive)
REMARK    1  A    between atoms: C_2  and  C_4
REMARK    2  A    between atoms: C_7  and  O_8
REMARK    3  A    between atoms: O_8  and  C_9
REMARK    4  A    between atoms: C_9  and  C_10
REMARK    5  A    between atoms: C_10  and  C_11
REMARK    6  A    between atoms: C_15  and  N_16
REMARK                            x       y       z     vdW  Elec       q    Type
REMARK                         _______ _______ _______ _____ _____    ______ ____
ROOT
ATOM      1  C   UNL     1      43.053   4.359  11.235  0.00  0.00    +0.000 C 
ENDROOT
BRANCH   1   2
ATOM      2  O   UNL     1      43.547   4.850   9.977  0.00  0.00    +0.000 OA
BRANCH   2   6
ATOM      3  C   UNL     1      46.074   2.142   8.154  0.00  0.00    +0.000 A 
ATOM      4  C   UNL     1      46.164   3.497   7.823  0.00  0.00    +0.000 A 
ATOM      5  C   UNL     1      45.298   4.408   8.437  0.00  0.00    +0.000 A 
ATOM      6  C   UNL     1      44.380   3.929   9.361  0.00  0.00    +0.000 A 
ATOM      7  N   UNL     1      44.268   2.624   9.684  0.00  0.00    +0.000 NA
ATOM      8  C   UNL     1      45.105   1.759   9.067  0.00  0.00    +0.000 A 
BRANCH   3  10
ATOM      9  N   UNL     1      48.022   1.504   6.849  0.00  0.00    +0.000 N 
ATOM     10  C   UNL     1      46.947   1.094   7.582  0.00  0.00    +0.000 C 
ATOM     11  O   UNL     1      46.744  -0.094   7.800  0.00  0.00    +0.000 OA
ATOM     12  H   UNL     1      48.679   0.780   6.586  0.00  0.00    +0.000 HD
ATOM     13  H   UNL     1      48.366   2.454   6.879  0.00  0.00    +0.000 HD
ENDBRANCH   3  10
ENDBRANCH   2   6
ENDBRANCH   1   2
BRANCH   1  14
ATOM     14  C   UNL     1      43.224   5.420  12.326  0.00  0.00    +0.000 C 
BRANCH  14  15
ATOM     15  C   UNL     1      44.678   5.579  12.714  0.00  0.00    +0.000 A 
ATOM     16  C   UNL     1      45.345   4.539  13.372  0.00  0.00    +0.000 A 
ATOM     17  C   UNL     1      46.698   4.653  13.665  0.00  0.00    +0.000 A 
ATOM     18  C   UNL     1      47.403   5.794  13.273  0.00  0.00    +0.000 A 
ATOM     19  C   UNL     1      46.783   6.851  12.590  0.00  0.00    +0.000 A 
ATOM     20  C   UNL     1      45.403   6.731  12.350  0.00  0.00    +0.000 A 
BRANCH  19  21
ATOM     21  N   UNL     1      47.511   7.940  12.166  0.00  0.00    +0.000 N 
ATOM     22  C   UNL     1      48.829   7.804  11.529  0.00  0.00    +0.000 C 
ATOM     23  C   UNL     1      49.845   8.686  12.266  0.00  0.00    +0.000 C 
ATOM     24  O   UNL     1      49.409  10.057  12.313  0.00  0.00    +0.000 OA
ATOM     25  C   UNL     1      48.140  10.156  12.988  0.00  0.00    +0.000 C 
ATOM     26  C   UNL     1      47.045   9.325  12.289  0.00  0.00    +0.000 C 
ENDBRANCH  19  21
ENDBRANCH  14  15
ENDBRANCH   1  14
TORSDOF 6
ENDMDL
MODEL 4
REMARK VINA RESULT:    -6.920      3.494      5.380
REMARK INTER + INTRA:         -10.268
REMARK INTER:                  -9.730
REMARK INTRA:                  -0.538
REMARK UNBOUND:                -0.921
REMARK  Name = 
REMARK  6 active torsions:
REMARK  status: ('A' for Active; 'I' for Inactive)
REMARK    1  A    between atoms: C_2  and  C_4
REMARK    2  A    between atoms: C_7  and  O_8
REMARK    3  A    between atoms: O_8  and  C_9
REMARK    4  A    between atoms: C_9  and  C_10
REMARK    5  A    between atoms: C_10  and  C_11
REMARK    6  A    between atoms: C_15  and  N_16
REMARK                            x       y       z     vdW  Elec       q    Type
REMARK                         _______ _______ _______ _____ _____    ______ ____
ROOT
ATOM      1  C   UNL     1      44.066   4.767  11.206  0.00  0.00    +0.000 C 
ENDROOT
BRANCH   1   2
ATOM      2  O   UNL     1      43.788   4.772   9.795  0.00  0.00    +0.000 OA
BRANCH   2   6
ATOM      3  C   UNL     1      46.340   2.284   7.712  0.00  0.00    +0.000 A 
ATOM      4  C   UNL     1      45.478   1.740   8.667  0.00  0.00    +0.000 A 
ATOM      5  C   UNL     1      44.622   2.590   9.377  0.00  0.00    +0.000 A 
ATOM      6  C   UNL     1      44.660   3.950   9.100  0.00  0.00    +0.000 A 
ATOM      7  N   UNL     1      45.494   4.496   8.191  0.00  0.00    +0.000 NA
ATOM      8  C   UNL     1      46.323   3.658   7.528  0.00  0.00    +0.000 A 
BRANCH   3  10
ATOM      9  N   UNL     1      48.431   2.083   6.492  0.00  0.00    +0.000 N 
ATOM     10  C   UNL     1      47.274   1.483   6.892  0.00  0.00    +0.000 C 
ATOM     11  O   UNL     1      47.043   0.310   6.625  0.00  0.00    +0.000 OA
ATOM     12  H   UNL     1      49.114   1.477   6.053  0.00  0.00    +0.000 HD
ATOM     13  H   UNL     1      48.772   2.936   6.914  0.00  0.00    +0.000 HD
ENDBRANCH   3  10
ENDBRANCH   2   6
ENDBRANCH   1   2
BRANCH   1  14
ATOM     14  C   UNL     1      45.532   5.126  11.462  0.00  0.00    +0.000 C 
BRANCH  14  15
ATOM     15  C   UNL     1      45.666   6.521  12.033  0.00  0.00    +0.000 A 
ATOM     16  C   UNL     1      46.620   6.784  13.021  0.00  0.00    +0.000 A 
ATOM     17  C   UNL     1      46.795   8.079  13.495  0.00  0.00    +0.000 A 
ATOM     18  C   UNL     1      46.040   9.125  12.960  0.00  0.00    +0.000 A 
ATOM     19  C   UNL     1      45.089   8.913  11.951  0.00  0.00    +0.000 A 
ATOM     20  C   UNL     1      44.897   7.588  11.525  0.00  0.00    +0.000 A 
BRANCH  19  21
ATOM     21  N   UNL     1      44.396   9.969  11.401  0.00  0.00    +0.000 N 
ATOM     22  C   UNL     1      43.200   9.774  10.568  0.00  0.00    +0.000 C 
ATOM     23  C   UNL     1      43.382  10.515   9.236  0.00  0.00    +0.000 C 
ATOM     24  O   UNL     1      43.669  11.909   9.449  0.00  0.00    +0.000 OA
ATOM     25  C   UNL     1      44.873  12.059  10.225  0.00  0.00    +0.000 C 
ATOM     26  C   UNL     1      44.765  11.374  11.602  0.00  0.00    +0.000 C 
ENDBRANCH  19  21
ENDBRANCH  14  15
ENDBRANCH   1  14
TORSDOF 6
ENDMDL
MODEL 5
REMARK VINA RESULT:    -6.752      2.586      3.197
REMARK INTER + INTRA:         -10.041
REMARK INTER:                  -9.349
REMARK INTRA:                  -0.692
REMARK UNBOUND:                -0.921
REMARK  Name = 
REMARK  6 active torsions:
REMARK  status: ('A' for Active; 'I' for Inactive)
REMARK    1  A    between atoms: C_2  and  C_4
REMARK    2  A    between atoms: C_7  and  O_8
REMARK    3  A    between atoms: O_8  and  C_9
REMARK    4  A    between atoms: C_9  and  C_10
REMARK    5  A    between atoms: C_10  and  C_11
REMARK    6  A    between atoms: C_15  and  N_16
REMARK                            x       y       z     vdW  Elec       q    Type
REMARK                         _______ _______ _______ _____ _____    ______ ____
ROOT
ATOM      1  C   UNL     1      44.269   4.204  11.384  0.00  0.00    +0.000 C 
ENDROOT
BRANCH   1   2
ATOM      2  O   UNL     1      43.979   4.442   9.996  0.00  0.00    +0.000 OA
BRANCH   2   6
ATOM      3  C   UNL     1      46.604   2.441   7.515  0.00  0.00    +0.000 A 
ATOM      4  C   UNL     1      45.862   1.721   8.456  0.00  0.00    +0.000 A 
ATOM      5  C   UNL     1      44.982   2.406   9.301  0.00  0.00    +0.000 A 
ATOM      6  C   UNL     1      44.875   3.783   9.167  0.00  0.00    +0.000 A 
ATOM      7  N   UNL     1      45.591   4.498   8.276  0.00  0.00    +0.000 NA
ATOM      8  C   UNL     1      46.447   3.817   7.479  0.00  0.00    +0.000 A 
BRANCH   3  10
ATOM      9  N   UNL     1      48.730   2.469   6.340  0.00  0.00    +0.000 N 
ATOM     10  C   UNL     1      47.549   1.822   6.562  0.00  0.00    +0.000 C 
ATOM     11  O   UNL     1      47.308   0.745   6.031  0.00  0.00    +0.000 OA
ATOM     12  H   UNL     1      49.416   1.962   5.795  0.00  0.00    +0.000 HD
ATOM     13  H   UNL     1      49.070   3.198   6.953  0.00  0.00    +0.000 HD
ENDBRANCH   3  10
ENDBRANCH   2   6
ENDBRANCH   1   2
BRANCH   1  14
ATOM     14  C   UNL     1      43.773   5.373  12.240  0.00  0.00    +0.000 C 
BRANCH  14  15
ATOM     15  C   UNL     1      44.711   6.557  12.151  0.00  0.00    +0.000 A 
ATOM     16  C   UNL     1      44.243   7.786  11.674  0.00  0.00    +0.000 A 
ATOM     17  C   UNL     1      45.081   8.894  11.660  0.00  0.00    +0.000 A 
ATOM     18  C   UNL     1      46.384   8.789  12.152  0.00  0.00    +0.000 A 
ATOM     19  C   UNL     1      46.889   7.584  12.663  0.00  0.00    +0.000 A 
ATOM     20  C   UNL     1      46.037   6.468  12.621  0.00  0.00    +0.000 A 
BRANCH  19  21
ATOM     21  N   UNL     1      48.158   7.520  13.194  0.00  0.00    +0.000 N 
ATOM     22  C   UNL     1      48.436   7.833  14.604  0.00  0.00    +0.000 C 
ATOM     23  C   UNL     1      49.550   8.885  14.682  0.00  0.00    +0.000 C 
ATOM     24  O   UNL     1      50.731   8.447  13.985  0.00  0.00    +0.000 OA
ATOM     25  C   UNL     1      50.431   8.199  12.598  0.00  0.00    +0.000 C 
ATOM     26  C   UNL     1      49.341   7.122  12.425  0.00  0.00    +0.000 C 
ENDBRANCH  19  21
ENDBRANCH  14  15
ENDBRANCH   1  14
TORSDOF 6
ENDMDL
MODEL 6
REMARK VINA RESULT:    -6.594      2.593      7.601
REMARK INTER + INTRA:          -9.828
REMARK INTER:                  -8.865
REMARK INTRA:                  -0.963
REMARK UNBOUND:                -0.921
REMARK  Name = 
REMARK  6 active torsions:
REMARK  status: ('A' for Active; 'I' for Inactive)
REMARK    1  A    between atoms: C_2  and  C_4
REMARK    2  A    between atoms: C_7  and  O_8
REMARK    3  A    between atoms: O_8  and  C_9
REMARK    4  A    between atoms: C_9  and  C_10
REMARK    5  A    between atoms: C_10  and  C_11
REMARK    6  A    between atoms: C_15  and  N_16
REMARK                            x       y       z     vdW  Elec       q    Type
REMARK                         _______ _______ _______ _____ _____    ______ ____
ROOT
ATOM      1  C   UNL     1      49.384   7.072  13.031  0.00  0.00    +0.000 C 
ENDROOT
BRANCH   1   2
ATOM      2  O   UNL     1      48.796   7.563  14.247  0.00  0.00    +0.000 OA
BRANCH   2   6
ATOM      3  C   UNL     1      47.809   4.439  16.760  0.00  0.00    +0.000 A 
ATOM      4  C   UNL     1      47.299   4.462  15.459  0.00  0.00    +0.000 A 
ATOM      5  C   UNL     1      47.629   5.529  14.616  0.00  0.00    +0.000 A 
ATOM      6  C   UNL     1      48.460   6.527  15.106  0.00  0.00    +0.000 A 
ATOM      7  N   UNL     1      48.952   6.530  16.362  0.00  0.00    +0.000 NA
ATOM      8  C   UNL     1      48.607   5.497  17.165  0.00  0.00    +0.000 A 
BRANCH   3  10
ATOM      9  N   UNL     1      48.394   3.240  18.790  0.00  0.00    +0.000 N 
ATOM     10  C   UNL     1      47.541   3.357  17.731  0.00  0.00    +0.000 C 
ATOM     11  O   UNL     1      46.564   2.626  17.620  0.00  0.00    +0.000 OA
ATOM     12  H   UNL     1      48.114   2.586  19.511  0.00  0.00    +0.000 HD
ATOM     13  H   UNL     1      49.032   3.977  19.055  0.00  0.00    +0.000 HD
ENDBRANCH   3  10
ENDBRANCH   2   6
ENDBRANCH   1   2
BRANCH   1  14
ATOM     14  C   UNL     1      48.807   7.814  11.822  0.00  0.00    +0.000 C 
BRANCH  14  15
ATOM     15  C   UNL     1      47.294   7.772  11.822  0.00  0.00    +0.000 A 
ATOM     16  C   UNL     1      46.562   8.910  12.175  0.00  0.00    +0.000 A 
ATOM     17  C   UNL     1      45.174   8.897  12.106  0.00  0.00    +0.000 A 
ATOM     18  C   UNL     1      44.510   7.756  11.651  0.00  0.00    +0.000 A 
ATOM     19  C   UNL     1      45.202   6.599  11.262  0.00  0.00    +0.000 A 
ATOM     20  C   UNL     1      46.602   6.623  11.389  0.00  0.00    +0.000 A 
BRANCH  19  21
ATOM     21  N   UNL     1      44.528   5.507  10.765  0.00  0.00    +0.000 N 
ATOM     22  C   UNL     1      43.173   5.150  11.212  0.00  0.00    +0.000 C 
ATOM     23  C   UNL     1      43.156   3.685  11.665  0.00  0.00    +0.000 C 
ATOM     24  O   UNL     1      43.626   2.810  10.624  0.00  0.00    +0.000 OA
ATOM     25  C   UNL     1      44.973   3.158  10.248  0.00  0.00    +0.000 C 
ATOM     26  C   UNL     1      45.076   4.611   9.742  0.00  0.00    +0.000 C 
ENDBRANCH  19  21
ENDBRANCH  14  15
ENDBRANCH   1  14
TORSDOF 6
ENDMDL
MODEL 7
REMARK VINA RESULT:    -6.494      2.442      8.442
REMARK INTER + INTRA:          -9.693
REMARK INTER:                  -9.181
REMARK INTRA:                  -0.512
REMARK UNBOUND:                -0.921
REMARK  Name = 
REMARK  6 active torsions:
REMARK  status: ('A' for Active; 'I' for Inactive)
REMARK    1  A    between atoms: C_2  and  C_4
REMARK    2  A    between atoms: C_7  and  O_8
REMARK    3  A    between atoms: O_8  and  C_9
REMARK    4  A    between atoms: C_9  and  C_10
REMARK    5  A    between atoms: C_10  and  C_11
REMARK    6  A    between atoms: C_15  and  N_16
REMARK                            x       y       z     vdW  Elec       q    Type
REMARK                         _______ _______ _______ _____ _____    ______ ____
ROOT
ATOM      1  C   UNL     1      46.858   3.712  14.665  0.00  0.00    +0.000 C 
ENDROOT
BRANCH   1   2
ATOM      2  O   UNL     1      46.944   4.071  16.055  0.00  0.00    +0.000 OA
BRANCH   2   6
ATOM      3  C   UNL     1      50.732   3.343  17.528  0.00  0.00    +0.000 A 
ATOM      4  C   UNL     1      49.899   2.267  17.210  0.00  0.00    +0.000 A 
ATOM      5  C   UNL     1      48.613   2.520  16.720  0.00  0.00    +0.000 A 
ATOM      6  C   UNL     1      48.212   3.840  16.565  0.00  0.00    +0.000 A 
ATOM      7  N   UNL     1      48.995   4.892  16.878  0.00  0.00    +0.000 NA
ATOM      8  C   UNL     1      50.229   4.624  17.364  0.00  0.00    +0.000 A 
BRANCH   3  10
ATOM      9  N   UNL     1      52.492   1.959  18.470  0.00  0.00    +0.000 N 
ATOM     10  C   UNL     1      52.112   3.196  18.036  0.00  0.00    +0.000 C 
ATOM     11  O   UNL     1      52.902   4.132  18.021  0.00  0.00    +0.000 OA
ATOM     12  H   UNL     1      53.476   1.849  18.682  0.00  0.00    +0.000 HD
ATOM     13  H   UNL     1      51.969   1.124  18.247  0.00  0.00    +0.000 HD
ENDBRANCH   3  10
ENDBRANCH   2   6
ENDBRANCH   1   2
BRANCH   1  14
ATOM     14  C   UNL     1      46.536   4.945  13.816  0.00  0.00    +0.000 C 
BRANCH  14  15
ATOM     15  C   UNL     1      45.374   4.682  12.883  0.00  0.00    +0.000 A 
ATOM     16  C   UNL     1      44.088   5.112  13.230  0.00  0.00    +0.000 A 
ATOM     17  C   UNL     1      43.032   4.937  12.344  0.00  0.00    +0.000 A 
ATOM     18  C   UNL     1      43.260   4.361  11.092  0.00  0.00    +0.000 A 
ATOM     19  C   UNL     1      44.536   3.939  10.691  0.00  0.00    +0.000 A 
ATOM     20  C   UNL     1      45.576   4.082  11.624  0.00  0.00    +0.000 A 
BRANCH  19  21
ATOM     21  N   UNL     1      44.745   3.426   9.430  0.00  0.00    +0.000 N 
ATOM     22  C   UNL     1      44.662   1.986   9.145  0.00  0.00    +0.000 C 
ATOM     23  C   UNL     1      45.948   1.531   8.442  0.00  0.00    +0.000 C 
ATOM     24  O   UNL     1      46.194   2.302   7.252  0.00  0.00    +0.000 OA
ATOM     25  C   UNL     1      46.319   3.700   7.578  0.00  0.00    +0.000 C 
ATOM     26  C   UNL     1      45.050   4.253   8.258  0.00  0.00    +0.000 C 
ENDBRANCH  19  21
ENDBRANCH  14  15
ENDBRANCH   1  14
TORSDOF 6
ENDMDL
MODEL 8
REMARK VINA RESULT:    -6.451      1.665      7.828
REMARK INTER + INTRA:          -9.634
REMARK INTER:                  -8.683
REMARK INTRA:                  -0.951
REMARK UNBOUND:                -0.921
REMARK  Name = 
REMARK  6 active torsions:
REMARK  status: ('A' for Active; 'I' for Inactive)
REMARK    1  A    between atoms: C_2  and  C_4
REMARK    2  A    between atoms: C_7  and  O_8
REMARK    3  A    between atoms: O_8  and  C_9
REMARK    4  A    between atoms: C_9  and  C_10
REMARK    5  A    between atoms: C_10  and  C_11
REMARK    6  A    between atoms: C_15  and  N_16
REMARK                            x       y       z     vdW  Elec       q    Type
REMARK                         _______ _______ _______ _____ _____    ______ ____
ROOT
ATOM      1  C   UNL     1      45.691   7.198  12.467  0.00  0.00    +0.000 C 
ENDROOT
BRANCH   1   2
ATOM      2  O   UNL     1      46.857   6.359  12.413  0.00  0.00    +0.000 OA
BRANCH   2   6
ATOM      3  C   UNL     1      47.914   4.913  16.133  0.00  0.00    +0.000 A 
ATOM      4  C   UNL     1      47.017   4.189  15.343  0.00  0.00    +0.000 A 
ATOM      5  C   UNL     1      46.655   4.690  14.088  0.00  0.00    +0.000 A 
ATOM      6  C   UNL     1      47.209   5.892  13.670  0.00  0.00    +0.000 A 
ATOM      7  N   UNL     1      48.066   6.613  14.422  0.00  0.00    +0.000 NA
ATOM      8  C   UNL     1      48.390   6.118  15.639  0.00  0.00    +0.000 A 
BRANCH   3  10
ATOM      9  N   UNL     1      47.495   3.787  18.244  0.00  0.00    +0.000 N 
ATOM     10  C   UNL     1      48.380   4.474  17.466  0.00  0.00    +0.000 C 
ATOM     11  O   UNL     1      49.530   4.673  17.838  0.00  0.00    +0.000 OA
ATOM     12  H   UNL     1      47.876   3.379  19.089  0.00  0.00    +0.000 HD
ATOM     13  H   UNL     1      46.651   3.377  17.870  0.00  0.00    +0.000 HD
ENDBRANCH   3  10
ENDBRANCH   2   6
ENDBRANCH   1   2
BRANCH   1  14
ATOM     14  C   UNL     1      44.788   6.934  11.258  0.00  0.00    +0.000 C 
BRANCH  14  15
ATOM     15  C   UNL     1      44.592   5.451  11.032  0.00  0.00    +0.000 A 
ATOM     16  C   UNL     1      43.768   4.714  11.890  0.00  0.00    +0.000 A 
ATOM     17  C   UNL     1      43.528   3.368  11.642  0.00  0.00    +0.000 A 
ATOM     18  C   UNL     1      44.083   2.757  10.516  0.00  0.00    +0.000 A 
ATOM     19  C   UNL     1      44.895   3.461   9.614  0.00  0.00    +0.000 A 
ATOM     20  C   UNL     1      45.161   4.807   9.914  0.00  0.00    +0.000 A 
BRANCH  19  21
ATOM     21  N   UNL     1      45.385   2.850   8.481  0.00  0.00    +0.000 N 
ATOM     22  C   UNL     1      45.399   1.388   8.321  0.00  0.00    +0.000 C 
ATOM     23  C   UNL     1      46.817   0.929   7.956  0.00  0.00    +0.000 C 
ATOM     24  O   UNL     1      47.298   1.604   6.780  0.00  0.00    +0.000 OA
ATOM     25  C   UNL     1      47.317   3.029   6.992  0.00  0.00    +0.000 C 
ATOM     26  C   UNL     1      45.918   3.584   7.329  0.00  0.00    +0.000 C 
ENDBRANCH  19  21
ENDBRANCH  14  15
ENDBRANCH   1  14
TORSDOF 6
ENDMDL
MODEL 9
REMARK VINA RESULT:    -6.308      3.115      4.686
REMARK INTER + INTRA:          -9.441
REMARK INTER:                  -8.796
REMARK INTRA:                  -0.645
REMARK UNBOUND:                -0.921
REMARK  Name = 
REMARK  6 active torsions:
REMARK  status: ('A' for Active; 'I' for Inactive)
REMARK    1  A    between atoms: C_2  and  C_4
REMARK    2  A    between atoms: C_7  and  O_8
REMARK    3  A    between atoms: O_8  and  C_9
REMARK    4  A    between atoms: C_9  and  C_10
REMARK    5  A    between atoms: C_10  and  C_11
REMARK    6  A    between atoms: C_15  and  N_16
REMARK                            x       y       z     vdW  Elec       q    Type
REMARK                         _______ _______ _______ _____ _____    ______ ____
ROOT
ATOM      1  C   UNL     1      46.137   4.100   7.648  0.00  0.00    +0.000 C 
ENDROOT
BRANCH   1   2
ATOM      2  O   UNL     1      47.128   3.060   7.702  0.00  0.00    +0.000 OA
BRANCH   2   6
ATOM      3  C   UNL     1      46.937   0.604   4.388  0.00  0.00    +0.000 A 
ATOM      4  C   UNL     1      46.792   1.985   4.230  0.00  0.00    +0.000 A 
ATOM      5  C   UNL     1      46.847   2.811   5.358  0.00  0.00    +0.000 A 
ATOM      6  C   UNL     1      47.051   2.223   6.599  0.00  0.00    +0.000 A 
ATOM      7  N   UNL     1      47.181   0.892   6.775  0.00  0.00    +0.000 NA
ATOM      8  C   UNL     1      47.109   0.111   5.672  0.00  0.00    +0.000 A 
BRANCH   3  10
ATOM      9  N   UNL     1      46.986  -1.687   3.583  0.00  0.00    +0.000 N 
ATOM     10  C   UNL     1      46.913  -0.361   3.269  0.00  0.00    +0.000 C 
ATOM     11  O   UNL     1      46.780   0.009   2.109  0.00  0.00    +0.000 OA
ATOM     12  H   UNL     1      46.829  -2.331   2.817  0.00  0.00    +0.000 HD
ATOM     13  H   UNL     1      46.824  -2.031   4.519  0.00  0.00    +0.000 HD
ENDBRANCH   3  10
ENDBRANCH   2   6
ENDBRANCH   1   2
BRANCH   1  14
ATOM     14  C   UNL     1      44.800   3.591   8.194  0.00  0.00    +0.000 C 
BRANCH  14  15
ATOM     15  C   UNL     1      44.672   3.863   9.677  0.00  0.00    +0.000 A 
ATOM     16  C   UNL     1      44.001   2.951  10.500  0.00  0.00    +0.000 A 
ATOM     17  C   UNL     1      43.945   3.161  11.873  0.00  0.00    +0.000 A 
ATOM     18  C   UNL     1      44.586   4.267  12.435  0.00  0.00    +0.000 A 
ATOM     19  C   UNL     1      45.291   5.194  11.653  0.00  0.00    +0.000 A 
ATOM     20  C   UNL     1      45.291   4.984  10.264  0.00  0.00    +0.000 A 
BRANCH  19  21
ATOM     21  N   UNL     1      45.962   6.245  12.238  0.00  0.00    +0.000 N 
ATOM     22  C   UNL     1      45.278   7.478  12.655  0.00  0.00    +0.000 C 
ATOM     23  C   UNL     1      45.990   8.689  12.036  0.00  0.00    +0.000 C 
ATOM     24  O   UNL     1      47.387   8.705  12.380  0.00  0.00    +0.000 OA
ATOM     25  C   UNL     1      48.033   7.505  11.912  0.00  0.00    +0.000 C 
ATOM     26  C   UNL     1      47.402   6.234  12.516  0.00  0.00    +0.000 C 
ENDBRANCH  19  21
ENDBRANCH  14  15
ENDBRANCH   1  14
TORSDOF 6
ENDMDL
