MODEL 1
REMARK VINA RESULT:    -8.295      0.000      0.000
REMARK INTER + INTRA:         -12.248
REMARK INTER:                 -11.205
REMARK INTRA:                  -1.043
REMARK UNBOUND:                -1.043
REMARK  Name = 
REMARK  7 active torsions:
REMARK  status: ('A' for Active; 'I' for Inactive)
REMARK    1  A    between atoms: C_1  and  C_2
REMARK    2  A    between atoms: C_2  and  C_3
REMARK    3  A    between atoms: C_2  and  C_13
REMARK    4  A    between atoms: C_3  and  C_4
REMARK    5  A    between atoms: C_7  and  C_8
REMARK    6  A    between atoms: C_17  and  O_18
REMARK    7  A    between atoms: O_18  and  C_19
REMARK                            x       y       z     vdW  Elec       q    Type
REMARK                         _______ _______ _______ _____ _____    ______ ____
ROOT
ATOM      1  C   UNL     1      43.226   4.414  12.690  0.00  0.00    +0.000 C 
ATOM      2  C   UNL     1      44.450   4.198  11.790  0.00  0.00    +0.000 C 
ENDROOT
BRANCH   2   3
ATOM      3  C   UNL     1      45.627   5.037  12.270  0.00  0.00    +0.000 A 
ATOM      4  C   UNL     1      45.982   6.216  11.604  0.00  0.00    +0.000 A 
ATOM      5  C   UNL     1      47.026   7.012  12.084  0.00  0.00    +0.000 A 
ATOM      6  C   UNL     1      47.726   6.646  13.235  0.00  0.00    +0.000 A 
ATOM      7  C   UNL     1      47.390   5.470  13.897  0.00  0.00    +0.000 A 
ATOM      8  C   UNL     1      46.352   4.673  13.415  0.00  0.00    +0.000 A 
BRANCH   7   9
ATOM      9  O   UNL     1      47.966   5.023  15.059  0.00  0.00    +0.000 OA
BRANCH   9  10
ATOM     10  C   UNL     1      47.197   4.180  15.943  0.00  0.00    +0.000 C 
ATOM     11  C   UNL     1      47.128   4.570  17.433  0.00  0.00    +0.000 C 
ATOM     12  N   UNL     1      47.562   3.219  17.822  0.00  0.00    +0.000 NA
ATOM     13  C   UNL     1      47.941   2.921  16.433  0.00  0.00    +0.000 C 
ATOM     14  H   UNL     1      46.815   2.629  18.183  0.00  0.00    +0.000 HD
ENDBRANCH   9  10
ENDBRANCH   7   9
ENDBRANCH   2   3
BRANCH   2  15
ATOM     15  C   UNL     1      44.162   4.508  10.301  0.00  0.00    +0.000 C 
BRANCH  15  16
ATOM     16  C   UNL     1      45.018   3.754   9.312  0.00  0.00    +0.000 A 
ATOM     17  C   UNL     1      45.757   4.457   8.349  0.00  0.00    +0.000 A 
ATOM     18  C   UNL     1      46.555   3.774   7.431  0.00  0.00    +0.000 A 
ATOM     19  C   UNL     1      46.633   2.379   7.469  0.00  0.00    +0.000 A 
ATOM     20  C   UNL     1      45.898   1.669   8.426  0.00  0.00    +0.000 A 
ATOM     21  C   UNL     1      45.101   2.356   9.347  0.00  0.00    +0.000 A 
BRANCH  19  22
ATOM     22  C   UNL     1      47.488   1.695   6.462  0.00  0.00    +0.000 C 
ATOM     23  N   UNL     1      48.525   2.407   5.926  0.00  0.00    +0.000 N 
ATOM     24  O   UNL     1      47.259   0.550   6.094  0.00  0.00    +0.000 OA
ATOM     25  H   UNL     1      48.594   3.411   6.009  0.00  0.00    +0.000 HD
ATOM     26  H   UNL     1      49.022   1.963   5.165  0.00  0.00    +0.000 HD
ENDBRANCH  19  22
ENDBRANCH  15  16
ENDBRANCH   2  15
TORSDOF 6
ENDMDL
MODEL 2
REMARK VINA RESULT:    -7.401      3.327      4.801
REMARK INTER + INTRA:         -11.041
REMARK INTER:                  -9.977
REMARK INTRA:                  -1.063
REMARK UNBOUND:                -1.043
REMARK  Name = 
REMARK  7 active torsions:
REMARK  status: ('A' for Active; 'I' for Inactive)
REMARK    1  A    between atoms: C_1  and  C_2
REMARK    2  A    between atoms: C_2  and  C_3
REMARK    3  A    between atoms: C_2  and  C_13
REMARK    4  A    between atoms: C_3  and  C_4
REMARK    5  A    between atoms: C_7  and  C_8
REMARK    6  A    between atoms: C_17  and  O_18
REMARK    7  A    between atoms: O_18  and  C_19
REMARK                            x       y       z     vdW  Elec       q    Type
REMARK                         _______ _______ _______ _____ _____    ______ ____
ROOT
ATOM      1  C   UNL     1      43.180   4.301  12.752  0.00  0.00    +0.000 C 
ATOM      2  C   UNL     1      44.347   4.452  11.768  0.00  0.00    +0.000 C 
ENDROOT
BRANCH   2   3
ATOM      3  C   UNL     1      45.133   5.725  12.055  0.00  0.00    +0.000 A 
ATOM      4  C   UNL     1      46.489   5.664  12.401  0.00  0.00    +0.000 A 
ATOM      5  C   UNL     1      47.219   6.838  12.605  0.00  0.00    +0.000 A 
ATOM      6  C   UNL     1      46.610   8.086  12.464  0.00  0.00    +0.000 A 
ATOM      7  C   UNL     1      45.261   8.158  12.134  0.00  0.00    +0.000 A 
ATOM      8  C   UNL     1      44.531   6.987  11.935  0.00  0.00    +0.000 A 
BRANCH   7   9
ATOM      9  O   UNL     1      44.558   9.316  11.922  0.00  0.00    +0.000 OA
BRANCH   9  10
ATOM     10  C   UNL     1      43.982   9.558  10.620  0.00  0.00    +0.000 C 
ATOM     11  C   UNL     1      44.174  10.954   9.995  0.00  0.00    +0.000 C 
ATOM     12  N   UNL     1      42.724  11.071   9.774  0.00  0.00    +0.000 NA
ATOM     13  C   UNL     1      42.480   9.907  10.639  0.00  0.00    +0.000 C 
ATOM     14  H   UNL     1      42.437  10.934   8.807  0.00  0.00    +0.000 HD
ENDBRANCH   9  10
ENDBRANCH   7   9
ENDBRANCH   2   3
BRANCH   2  15
ATOM     15  C   UNL     1      43.891   4.443  10.289  0.00  0.00    +0.000 C 
BRANCH  15  16
ATOM     16  C   UNL     1      44.844   3.774   9.328  0.00  0.00    +0.000 A 
ATOM     17  C   UNL     1      44.992   2.379   9.347  0.00  0.00    +0.000 A 
ATOM     18  C   UNL     1      45.867   1.747   8.463  0.00  0.00    +0.000 A 
ATOM     19  C   UNL     1      46.601   2.500   7.542  0.00  0.00    +0.000 A 
ATOM     20  C   UNL     1      46.461   3.893   7.517  0.00  0.00    +0.000 A 
ATOM     21  C   UNL     1      45.581   4.524   8.402  0.00  0.00    +0.000 A 
BRANCH  19  22
ATOM     22  C   UNL     1      47.529   1.783   6.629  0.00  0.00    +0.000 C 
ATOM     23  N   UNL     1      48.597   2.481   6.137  0.00  0.00    +0.000 N 
ATOM     24  O   UNL     1      47.335   0.621   6.295  0.00  0.00    +0.000 OA
ATOM     25  H   UNL     1      48.654   3.488   6.181  0.00  0.00    +0.000 HD
ATOM     26  H   UNL     1      49.150   2.010   5.433  0.00  0.00    +0.000 HD
ENDBRANCH  19  22
ENDBRANCH  15  16
ENDBRANCH   2  15
TORSDOF 6
ENDMDL
MODEL 3
REMARK VINA RESULT:    -7.154      1.453      7.712
REMARK INTER + INTRA:         -10.707
REMARK INTER:                 -10.230
REMARK INTRA:                  -0.477
REMARK UNBOUND:                -1.043
REMARK  Name = 
REMARK  7 active torsions:
REMARK  status: ('A' for Active; 'I' for Inactive)
REMARK    1  A    between atoms: C_1  and  C_2
REMARK    2  A    between atoms: C_2  and  C_3
REMARK    3  A    between atoms: C_2  and  C_13
REMARK    4  A    between atoms: C_3  and  C_4
REMARK    5  A    between atoms: C_7  and  C_8
REMARK    6  A    between atoms: C_17  and  O_18
REMARK    7  A    between atoms: O_18  and  C_19
REMARK                            x       y       z     vdW  Elec       q    Type
REMARK                         _______ _______ _______ _____ _____    ______ ____
ROOT
ATOM      1  C   UNL     1      44.393   6.658  12.138  0.00  0.00    +0.000 C 
ATOM      2  C   UNL     1      45.464   6.485  11.054  0.00  0.00    +0.000 C 
ENDROOT
BRANCH   2   3
ATOM      3  C   UNL     1      45.226   5.209  10.259  0.00  0.00    +0.000 A 
ATOM      4  C   UNL     1      44.361   4.218  10.742  0.00  0.00    +0.000 A 
ATOM      5  C   UNL     1      44.101   3.075   9.980  0.00  0.00    +0.000 A 
ATOM      6  C   UNL     1      44.694   2.907   8.727  0.00  0.00    +0.000 A 
ATOM      7  C   UNL     1      45.565   3.878   8.245  0.00  0.00    +0.000 A 
ATOM      8  C   UNL     1      45.829   5.015   9.006  0.00  0.00    +0.000 A 
BRANCH   7   9
ATOM      9  O   UNL     1      46.174   3.855   7.017  0.00  0.00    +0.000 OA
BRANCH   9  10
ATOM     10  C   UNL     1      46.559   2.584   6.448  0.00  0.00    +0.000 C 
ATOM     11  C   UNL     1      47.902   1.973   6.892  0.00  0.00    +0.000 C 
ATOM     12  N   UNL     1      48.314   1.820   5.487  0.00  0.00    +0.000 NA
ATOM     13  C   UNL     1      47.202   2.678   5.050  0.00  0.00    +0.000 C 
ATOM     14  H   UNL     1      48.261   0.865   5.138  0.00  0.00    +0.000 HD
ENDBRANCH   9  10
ENDBRANCH   7   9
ENDBRANCH   2   3
BRANCH   2  15
ATOM     15  C   UNL     1      46.903   6.483  11.626  0.00  0.00    +0.000 C 
BRANCH  15  16
ATOM     16  C   UNL     1      47.064   5.776  12.950  0.00  0.00    +0.000 A 
ATOM     17  C   UNL     1      47.734   6.412  14.006  0.00  0.00    +0.000 A 
ATOM     18  C   UNL     1      47.889   5.772  15.236  0.00  0.00    +0.000 A 
ATOM     19  C   UNL     1      47.368   4.489  15.430  0.00  0.00    +0.000 A 
ATOM     20  C   UNL     1      46.699   3.846  14.382  0.00  0.00    +0.000 A 
ATOM     21  C   UNL     1      46.543   4.491  13.151  0.00  0.00    +0.000 A 
BRANCH  19  22
ATOM     22  C   UNL     1      47.568   3.843  16.754  0.00  0.00    +0.000 C 
ATOM     23  N   UNL     1      48.779   4.014  17.364  0.00  0.00    +0.000 N 
ATOM     24  O   UNL     1      46.699   3.152  17.272  0.00  0.00    +0.000 OA
ATOM     25  H   UNL     1      49.592   4.354  16.871  0.00  0.00    +0.000 HD
ATOM     26  H   UNL     1      48.932   3.476  18.207  0.00  0.00    +0.000 HD
ENDBRANCH  19  22
ENDBRANCH  15  16
ENDBRANCH   2  15
TORSDOF 6
ENDMDL
MODEL 4
REMARK VINA RESULT:    -6.788      2.877      7.788
REMARK INTER + INTRA:         -10.212
REMARK INTER:                  -9.311
REMARK INTRA:                  -0.901
REMARK UNBOUND:                -1.043
REMARK  Name = 
REMARK  7 active torsions:
REMARK  status: ('A' for Active; 'I' for Inactive)
REMARK    1  A    between atoms: C_1  and  C_2
REMARK    2  A    between atoms: C_2  and  C_3
REMARK    3  A    between atoms: C_2  and  C_13
REMARK    4  A    between atoms: C_3  and  C_4
REMARK    5  A    between atoms: C_7  and  C_8
REMARK    6  A    between atoms: C_17  and  O_18
REMARK    7  A    between atoms: O_18  and  C_19
REMARK                            x       y       z     vdW  Elec       q    Type
REMARK                         _______ _______ _______ _____ _____    ______ ____
ROOT
ATOM      1  C   UNL     1      44.008   6.796  11.457  0.00  0.00    +0.000 C 
ATOM      2  C   UNL     1      45.361   6.143  11.149  0.00  0.00    +0.000 C 
ENDROOT
BRANCH   2   3
ATOM      3  C   UNL     1      45.174   4.873  10.330  0.00  0.00    +0.000 A 
ATOM      4  C   UNL     1      44.428   3.801  10.836  0.00  0.00    +0.000 A 
ATOM      5  C   UNL     1      44.210   2.662  10.055  0.00  0.00    +0.000 A 
ATOM      6  C   UNL     1      44.728   2.578   8.762  0.00  0.00    +0.000 A 
ATOM      7  C   UNL     1      45.482   3.631   8.255  0.00  0.00    +0.000 A 
ATOM      8  C   UNL     1      45.704   4.765   9.035  0.00  0.00    +0.000 A 
BRANCH   7   9
ATOM      9  O   UNL     1      46.006   3.692   6.990  0.00  0.00    +0.000 OA
BRANCH   9  10
ATOM     10  C   UNL     1      46.518   2.486   6.383  0.00  0.00    +0.000 C 
ATOM     11  C   UNL     1      47.865   1.938   6.893  0.00  0.00    +0.000 C 
ATOM     12  N   UNL     1      48.386   1.897   5.518  0.00  0.00    +0.000 NA
ATOM     13  C   UNL     1      47.252   2.705   5.045  0.00  0.00    +0.000 C 
ATOM     14  H   UNL     1      48.425   0.963   5.114  0.00  0.00    +0.000 HD
ENDBRANCH   9  10
ENDBRANCH   7   9
ENDBRANCH   2   3
BRANCH   2  15
ATOM     15  C   UNL     1      46.178   5.825  12.425  0.00  0.00    +0.000 C 
BRANCH  15  16
ATOM     16  C   UNL     1      47.471   6.592  12.567  0.00  0.00    +0.000 A 
ATOM     17  C   UNL     1      48.154   6.590  13.792  0.00  0.00    +0.000 A 
ATOM     18  C   UNL     1      49.352   7.292  13.936  0.00  0.00    +0.000 A 
ATOM     19  C   UNL     1      49.887   7.998  12.855  0.00  0.00    +0.000 A 
ATOM     20  C   UNL     1      49.211   8.006  11.629  0.00  0.00    +0.000 A 
ATOM     21  C   UNL     1      48.012   7.300  11.485  0.00  0.00    +0.000 A 
BRANCH  19  22
ATOM     22  C   UNL     1      51.158   8.740  13.061  0.00  0.00    +0.000 C 
ATOM     23  N   UNL     1      52.305   8.006  13.190  0.00  0.00    +0.000 N 
ATOM     24  O   UNL     1      51.185   9.962  13.147  0.00  0.00    +0.000 OA
ATOM     25  H   UNL     1      52.295   7.014  13.376  0.00  0.00    +0.000 HD
ATOM     26  H   UNL     1      53.137   8.523  13.441  0.00  0.00    +0.000 HD
ENDBRANCH  19  22
ENDBRANCH  15  16
ENDBRANCH   2  15
TORSDOF 6
ENDMDL
MODEL 5
REMARK VINA RESULT:    -6.611      2.604      3.199
REMARK INTER + INTRA:          -9.973
REMARK INTER:                  -9.000
REMARK INTRA:                  -0.974
REMARK UNBOUND:                -1.043
REMARK  Name = 
REMARK  7 active torsions:
REMARK  status: ('A' for Active; 'I' for Inactive)
REMARK    1  A    between atoms: C_1  and  C_2
REMARK    2  A    between atoms: C_2  and  C_3
REMARK    3  A    between atoms: C_2  and  C_13
REMARK    4  A    between atoms: C_3  and  C_4
REMARK    5  A    between atoms: C_7  and  C_8
REMARK    6  A    between atoms: C_17  and  O_18
REMARK    7  A    between atoms: O_18  and  C_19
REMARK                            x       y       z     vdW  Elec       q    Type
REMARK                         _______ _______ _______ _____ _____    ______ ____
ROOT
ATOM      1  C   UNL     1      44.317   4.395  13.128  0.00  0.00    +0.000 C 
ATOM      2  C   UNL     1      45.114   4.696  11.852  0.00  0.00    +0.000 C 
ENDROOT
BRANCH   2   3
ATOM      3  C   UNL     1      45.595   6.141  11.845  0.00  0.00    +0.000 A 
ATOM      4  C   UNL     1      44.693   7.192  11.638  0.00  0.00    +0.000 A 
ATOM      5  C   UNL     1      45.131   8.519  11.692  0.00  0.00    +0.000 A 
ATOM      6  C   UNL     1      46.469   8.815  11.956  0.00  0.00    +0.000 A 
ATOM      7  C   UNL     1      47.375   7.778  12.150  0.00  0.00    +0.000 A 
ATOM      8  C   UNL     1      46.940   6.455  12.091  0.00  0.00    +0.000 A 
BRANCH   7   9
ATOM      9  O   UNL     1      48.702   7.934  12.461  0.00  0.00    +0.000 OA
BRANCH   9  10
ATOM     10  C   UNL     1      49.071   8.251  13.820  0.00  0.00    +0.000 C 
ATOM     11  C   UNL     1      49.345   9.727  14.168  0.00  0.00    +0.000 C 
ATOM     12  N   UNL     1      50.649   9.365  14.744  0.00  0.00    +0.000 NA
ATOM     13  C   UNL     1      50.561   8.024  14.148  0.00  0.00    +0.000 C 
ATOM     14  H   UNL     1      50.670   9.365  15.762  0.00  0.00    +0.000 HD
ENDBRANCH   9  10
ENDBRANCH   7   9
ENDBRANCH   2   3
BRANCH   2  15
ATOM     15  C   UNL     1      44.311   4.407  10.560  0.00  0.00    +0.000 C 
BRANCH  15  16
ATOM     16  C   UNL     1      45.100   3.763   9.446  0.00  0.00    +0.000 A 
ATOM     17  C   UNL     1      45.160   2.365   9.349  0.00  0.00    +0.000 A 
ATOM     18  C   UNL     1      45.883   1.757   8.323  0.00  0.00    +0.000 A 
ATOM     19  C   UNL     1      46.550   2.537   7.373  0.00  0.00    +0.000 A 
ATOM     20  C   UNL     1      46.496   3.934   7.463  0.00  0.00    +0.000 A 
ATOM     21  C   UNL     1      45.768   4.542   8.491  0.00  0.00    +0.000 A 
BRANCH  19  22
ATOM     22  C   UNL     1      47.316   1.843   6.306  0.00  0.00    +0.000 C 
ATOM     23  N   UNL     1      48.010   2.619   5.419  0.00  0.00    +0.000 N 
ATOM     24  O   UNL     1      47.306   0.623   6.194  0.00  0.00    +0.000 OA
ATOM     25  H   UNL     1      47.845   3.610   5.321  0.00  0.00    +0.000 HD
ATOM     26  H   UNL     1      48.431   2.133   4.638  0.00  0.00    +0.000 HD
ENDBRANCH  19  22
ENDBRANCH  15  16
ENDBRANCH   2  15
TORSDOF 6
ENDMDL
MODEL 6
REMARK VINA RESULT:    -6.542      3.868      8.093
REMARK INTER + INTRA:          -9.880
REMARK INTER:                  -9.053
REMARK INTRA:                  -0.827
REMARK UNBOUND:                -1.043
REMARK  Name = 
REMARK  7 active torsions:
REMARK  status: ('A' for Active; 'I' for Inactive)
REMARK    1  A    between atoms: C_1  and  C_2
REMARK    2  A    between atoms: C_2  and  C_3
REMARK    3  A    between atoms: C_2  and  C_13
REMARK    4  A    between atoms: C_3  and  C_4
REMARK    5  A    between atoms: C_7  and  C_8
REMARK    6  A    between atoms: C_17  and  O_18
REMARK    7  A    between atoms: O_18  and  C_19
REMARK                            x       y       z     vdW  Elec       q    Type
REMARK                         _______ _______ _______ _____ _____    ______ ____
ROOT
ATOM      1  C   UNL     1      42.476   5.471  11.851  0.00  0.00    +0.000 C 
ATOM      2  C   UNL     1      43.787   5.719  11.094  0.00  0.00    +0.000 C 
ENDROOT
BRANCH   2   3
ATOM      3  C   UNL     1      44.226   4.465  10.351  0.00  0.00    +0.000 A 
ATOM      4  C   UNL     1      43.786   3.200  10.763  0.00  0.00    +0.000 A 
ATOM      5  C   UNL     1      44.145   2.058  10.041  0.00  0.00    +0.000 A 
ATOM      6  C   UNL     1      44.943   2.161   8.900  0.00  0.00    +0.000 A 
ATOM      7  C   UNL     1      45.396   3.410   8.491  0.00  0.00    +0.000 A 
ATOM      8  C   UNL     1      45.043   4.549   9.213  0.00  0.00    +0.000 A 
BRANCH   7   9
ATOM      9  O   UNL     1      46.144   3.651   7.367  0.00  0.00    +0.000 OA
BRANCH   9  10
ATOM     10  C   UNL     1      46.710   2.535   6.648  0.00  0.00    +0.000 C 
ATOM     11  C   UNL     1      48.231   2.305   6.753  0.00  0.00    +0.000 C 
ATOM     12  N   UNL     1      48.343   2.277   5.286  0.00  0.00    +0.000 NA
ATOM     13  C   UNL     1      46.977   2.806   5.153  0.00  0.00    +0.000 C 
ATOM     14  H   UNL     1      48.465   1.345   4.895  0.00  0.00    +0.000 HD
ENDBRANCH   9  10
ENDBRANCH   7   9
ENDBRANCH   2   3
BRANCH   2  15
ATOM     15  C   UNL     1      44.930   6.206  12.017  0.00  0.00    +0.000 C 
BRANCH  15  16
ATOM     16  C   UNL     1      45.231   7.684  11.938  0.00  0.00    +0.000 A 
ATOM     17  C   UNL     1      46.419   8.186  12.491  0.00  0.00    +0.000 A 
ATOM     18  C   UNL     1      46.712   9.548  12.423  0.00  0.00    +0.000 A 
ATOM     19  C   UNL     1      45.826  10.427  11.793  0.00  0.00    +0.000 A 
ATOM     20  C   UNL     1      44.638   9.934  11.240  0.00  0.00    +0.000 A 
ATOM     21  C   UNL     1      44.347   8.568  11.306  0.00  0.00    +0.000 A 
BRANCH  19  22
ATOM     22  C   UNL     1      46.176  11.871  11.756  0.00  0.00    +0.000 C 
ATOM     23  N   UNL     1      45.244  12.759  12.216  0.00  0.00    +0.000 N 
ATOM     24  O   UNL     1      47.243  12.264  11.301  0.00  0.00    +0.000 OA
ATOM     25  H   UNL     1      44.277  12.506  12.360  0.00  0.00    +0.000 HD
ATOM     26  H   UNL     1      45.457  13.739  12.078  0.00  0.00    +0.000 HD
ENDBRANCH  19  22
ENDBRANCH  15  16
ENDBRANCH   2  15
TORSDOF 6
ENDMDL
MODEL 7
REMARK VINA RESULT:    -6.444      2.875      4.320
REMARK INTER + INTRA:          -9.748
REMARK INTER:                  -8.838
REMARK INTRA:                  -0.910
REMARK UNBOUND:                -1.043
REMARK  Name = 
REMARK  7 active torsions:
REMARK  status: ('A' for Active; 'I' for Inactive)
REMARK    1  A    between atoms: C_1  and  C_2
REMARK    2  A    between atoms: C_2  and  C_3
REMARK    3  A    between atoms: C_2  and  C_13
REMARK    4  A    between atoms: C_3  and  C_4
REMARK    5  A    between atoms: C_7  and  C_8
REMARK    6  A    between atoms: C_17  and  O_18
REMARK    7  A    between atoms: O_18  and  C_19
REMARK                            x       y       z     vdW  Elec       q    Type
REMARK                         _______ _______ _______ _____ _____    ______ ____
ROOT
ATOM      1  C   UNL     1      48.393   7.320  11.824  0.00  0.00    +0.000 C 
ATOM      2  C   UNL     1      47.681   8.256  12.809  0.00  0.00    +0.000 C 
ENDROOT
BRANCH   2   3
ATOM      3  C   UNL     1      48.159   8.004  14.233  0.00  0.00    +0.000 A 
ATOM      4  C   UNL     1      48.299   9.064  15.137  0.00  0.00    +0.000 A 
ATOM      5  C   UNL     1      48.681   8.820  16.459  0.00  0.00    +0.000 A 
ATOM      6  C   UNL     1      48.924   7.517  16.898  0.00  0.00    +0.000 A 
ATOM      7  C   UNL     1      48.802   6.458  16.005  0.00  0.00    +0.000 A 
ATOM      8  C   UNL     1      48.426   6.702  14.685  0.00  0.00    +0.000 A 
BRANCH   7   9
ATOM      9  O   UNL     1      48.967   5.134  16.320  0.00  0.00    +0.000 OA
BRANCH   9  10
ATOM     10  C   UNL     1      47.816   4.263  16.318  0.00  0.00    +0.000 C 
ATOM     11  C   UNL     1      46.885   4.296  17.546  0.00  0.00    +0.000 C 
ATOM     12  N   UNL     1      46.990   2.835  17.684  0.00  0.00    +0.000 NA
ATOM     13  C   UNL     1      48.113   2.808  16.734  0.00  0.00    +0.000 C 
ATOM     14  H   UNL     1      46.168   2.325  17.366  0.00  0.00    +0.000 HD
ENDBRANCH   9  10
ENDBRANCH   7   9
ENDBRANCH   2   3
BRANCH   2  15
ATOM     15  C   UNL     1      46.140   8.132  12.746  0.00  0.00    +0.000 C 
BRANCH  15  16
ATOM     16  C   UNL     1      45.622   6.782  12.311  0.00  0.00    +0.000 A 
ATOM     17  C   UNL     1      45.474   6.497  10.946  0.00  0.00    +0.000 A 
ATOM     18  C   UNL     1      45.000   5.252  10.530  0.00  0.00    +0.000 A 
ATOM     19  C   UNL     1      44.675   4.273  11.473  0.00  0.00    +0.000 A 
ATOM     20  C   UNL     1      44.818   4.550  12.837  0.00  0.00    +0.000 A 
ATOM     21  C   UNL     1      45.296   5.797  13.253  0.00  0.00    +0.000 A 
BRANCH  19  22
ATOM     22  C   UNL     1      44.162   2.967  10.981  0.00  0.00    +0.000 C 
ATOM     23  N   UNL     1      44.868   2.344   9.990  0.00  0.00    +0.000 N 
ATOM     24  O   UNL     1      43.127   2.476  11.416  0.00  0.00    +0.000 OA
ATOM     25  H   UNL     1      45.566   2.821   9.438  0.00  0.00    +0.000 HD
ATOM     26  H   UNL     1      44.442   1.516   9.594  0.00  0.00    +0.000 HD
ENDBRANCH  19  22
ENDBRANCH  15  16
ENDBRANCH   2  15
TORSDOF 6
ENDMDL
MODEL 8
REMARK VINA RESULT:    -6.355      3.168      7.532
REMARK INTER + INTRA:          -9.627
REMARK INTER:                  -8.806
REMARK INTRA:                  -0.821
REMARK UNBOUND:                -1.043
REMARK  Name = 
REMARK  7 active torsions:
REMARK  status: ('A' for Active; 'I' for Inactive)
REMARK    1  A    between atoms: C_1  and  C_2
REMARK    2  A    between atoms: C_2  and  C_3
REMARK    3  A    between atoms: C_2  and  C_13
REMARK    4  A    between atoms: C_3  and  C_4
REMARK    5  A    between atoms: C_7  and  C_8
REMARK    6  A    between atoms: C_17  and  O_18
REMARK    7  A    between atoms: O_18  and  C_19
REMARK                            x       y       z     vdW  Elec       q    Type
REMARK                         _______ _______ _______ _____ _____    ______ ____
ROOT
ATOM      1  C   UNL     1      49.668   7.823  11.762  0.00  0.00    +0.000 C 
ATOM      2  C   UNL     1      48.740   7.042  12.701  0.00  0.00    +0.000 C 
ENDROOT
BRANCH   2   3
ATOM      3  C   UNL     1      47.284   7.216  12.288  0.00  0.00    +0.000 A 
ATOM      4  C   UNL     1      46.623   8.432  12.499  0.00  0.00    +0.000 A 
ATOM      5  C   UNL     1      45.306   8.605  12.064  0.00  0.00    +0.000 A 
ATOM      6  C   UNL     1      44.633   7.571  11.411  0.00  0.00    +0.000 A 
ATOM      7  C   UNL     1      45.276   6.355  11.208  0.00  0.00    +0.000 A 
ATOM      8  C   UNL     1      46.588   6.181  11.646  0.00  0.00    +0.000 A 
BRANCH   7   9
ATOM      9  O   UNL     1      44.745   5.280  10.542  0.00  0.00    +0.000 OA
BRANCH   9  10
ATOM     10  C   UNL     1      44.559   4.037  11.253  0.00  0.00    +0.000 C 
ATOM     11  C   UNL     1      44.002   2.833  10.468  0.00  0.00    +0.000 C 
ATOM     12  N   UNL     1      42.949   2.642  11.478  0.00  0.00    +0.000 NA
ATOM     13  C   UNL     1      43.253   3.955  12.068  0.00  0.00    +0.000 C 
ATOM     14  H   UNL     1      43.112   1.858  12.107  0.00  0.00    +0.000 HD
ENDBRANCH   9  10
ENDBRANCH   7   9
ENDBRANCH   2   3
BRANCH   2  15
ATOM     15  C   UNL     1      48.912   7.444  14.186  0.00  0.00    +0.000 C 
BRANCH  15  16
ATOM     16  C   UNL     1      48.582   6.361  15.185  0.00  0.00    +0.000 A 
ATOM     17  C   UNL     1      47.527   5.473  14.931  0.00  0.00    +0.000 A 
ATOM     18  C   UNL     1      47.212   4.466  15.844  0.00  0.00    +0.000 A 
ATOM     19  C   UNL     1      47.955   4.327  17.020  0.00  0.00    +0.000 A 
ATOM     20  C   UNL     1      49.010   5.210  17.282  0.00  0.00    +0.000 A 
ATOM     21  C   UNL     1      49.325   6.217  16.365  0.00  0.00    +0.000 A 
BRANCH  19  22
ATOM     22  C   UNL     1      47.575   3.247  17.968  0.00  0.00    +0.000 C 
ATOM     23  N   UNL     1      48.266   3.166  19.145  0.00  0.00    +0.000 N 
ATOM     24  O   UNL     1      46.700   2.433  17.699  0.00  0.00    +0.000 OA
ATOM     25  H   UNL     1      49.142   3.645  19.293  0.00  0.00    +0.000 HD
ATOM     26  H   UNL     1      48.067   2.359  19.722  0.00  0.00    +0.000 HD
ENDBRANCH  19  22
ENDBRANCH  15  16
ENDBRANCH   2  15
TORSDOF 6
ENDMDL
MODEL 9
REMARK VINA RESULT:    -6.258      3.888      5.350
REMARK INTER + INTRA:          -9.496
REMARK INTER:                  -8.440
REMARK INTRA:                  -1.056
REMARK UNBOUND:                -1.043
REMARK  Name = 
REMARK  7 active torsions:
REMARK  status: ('A' for Active; 'I' for Inactive)
REMARK    1  A    between atoms: C_1  and  C_2
REMARK    2  A    between atoms: C_2  and  C_3
REMARK    3  A    between atoms: C_2  and  C_13
REMARK    4  A    between atoms: C_3  and  C_4
REMARK    5  A    between atoms: C_7  and  C_8
REMARK    6  A    between atoms: C_17  and  O_18
REMARK    7  A    between atoms: O_18  and  C_19
REMARK                            x       y       z     vdW  Elec       q    Type
REMARK                         _______ _______ _______ _____ _____    ______ ____
ROOT
ATOM      1  C   UNL     1      50.062   8.489  12.990  0.00  0.00    +0.000 C 
ATOM      2  C   UNL     1      48.755   7.851  13.480  0.00  0.00    +0.000 C 
ENDROOT
BRANCH   2   3
ATOM      3  C   UNL     1      48.702   7.833  15.002  0.00  0.00    +0.000 A 
ATOM      4  C   UNL     1      48.327   8.978  15.717  0.00  0.00    +0.000 A 
ATOM      5  C   UNL     1      48.222   8.938  17.110  0.00  0.00    +0.000 A 
ATOM      6  C   UNL     1      48.485   7.758  17.808  0.00  0.00    +0.000 A 
ATOM      7  C   UNL     1      48.871   6.620  17.109  0.00  0.00    +0.000 A 
ATOM      8  C   UNL     1      48.981   6.660  15.720  0.00  0.00    +0.000 A 
BRANCH   7   9
ATOM      9  O   UNL     1      49.113   5.391  17.669  0.00  0.00    +0.000 OA
BRANCH   9  10
ATOM     10  C   UNL     1      48.516   4.219  17.073  0.00  0.00    +0.000 C 
ATOM     11  C   UNL     1      46.978   4.158  16.988  0.00  0.00    +0.000 C 
ATOM     12  N   UNL     1      46.979   2.841  17.645  0.00  0.00    +0.000 NA
ATOM     13  C   UNL     1      48.390   3.012  18.024  0.00  0.00    +0.000 C 
ATOM     14  H   UNL     1      46.812   2.060  17.014  0.00  0.00    +0.000 HD
ENDBRANCH   9  10
ENDBRANCH   7   9
ENDBRANCH   2   3
BRANCH   2  15
ATOM     15  C   UNL     1      48.545   6.419  12.933  0.00  0.00    +0.000 C 
BRANCH  15  16
ATOM     16  C   UNL     1      47.116   6.066  12.594  0.00  0.00    +0.000 A 
ATOM     17  C   UNL     1      46.457   5.056  13.310  0.00  0.00    +0.000 A 
ATOM     18  C   UNL     1      45.136   4.721  13.010  0.00  0.00    +0.000 A 
ATOM     19  C   UNL     1      44.453   5.398  11.995  0.00  0.00    +0.000 A 
ATOM     20  C   UNL     1      45.104   6.407  11.275  0.00  0.00    +0.000 A 
ATOM     21  C   UNL     1      46.427   6.743  11.579  0.00  0.00    +0.000 A 
BRANCH  19  22
ATOM     22  C   UNL     1      43.051   4.998  11.704  0.00  0.00    +0.000 C 
ATOM     23  N   UNL     1      42.090   5.969  11.769  0.00  0.00    +0.000 N 
ATOM     24  O   UNL     1      42.752   3.838  11.449  0.00  0.00    +0.000 OA
ATOM     25  H   UNL     1      42.250   6.861  12.213  0.00  0.00    +0.000 HD
ATOM     26  H   UNL     1      41.133   5.653  11.678  0.00  0.00    +0.000 HD
ENDBRANCH  19  22
ENDBRANCH  15  16
ENDBRANCH   2  15
TORSDOF 6
ENDMDL
