MODEL 1
REMARK VINA RESULT:    -6.979      0.000      0.000
REMARK INTER + INTRA:          -9.358
REMARK INTER:                  -9.019
REMARK INTRA:                  -0.339
REMARK UNBOUND:                -0.339
REMARK  Name = 
REMARK  5 active torsions:
REMARK  status: ('A' for Active; 'I' for Inactive)
REMARK    1  A    between atoms: C_2  and  C_3
REMARK    2  A    between atoms: C_7  and  O_8
REMARK    3  A    between atoms: O_8  and  C_9
REMARK    4  A    between atoms: C_9  and  C_10
REMARK    5  A    between atoms: C_16  and  C_17
REMARK                            x       y       z     vdW  Elec       q    Type
REMARK                         _______ _______ _______ _____ _____    ______ ____
ROOT
ATOM      1  C   UNL     1      45.586   5.640  11.875  0.00  0.00    +0.000 A 
ATOM      2  C   UNL     1      45.556   4.783  12.977  0.00  0.00    +0.000 A 
ATOM      3  C   UNL     1      46.535   4.902  13.960  0.00  0.00    +0.000 A 
ATOM      4  F   UNL     1      46.495   4.081  15.019  0.00  0.00    +0.000 F 
ATOM      5  C   UNL     1      47.559   5.844  13.844  0.00  0.00    +0.000 A 
ATOM      6  F   UNL     1      48.480   5.918  14.817  0.00  0.00    +0.000 F 
ATOM      7  C   UNL     1      47.631   6.707  12.742  0.00  0.00    +0.000 A 
ATOM      8  C   UNL     1      46.588   6.623  11.804  0.00  0.00    +0.000 A 
ENDROOT
BRANCH   7   9
ATOM      9  C   UNL     1      48.789   7.695  12.595  0.00  0.00    +0.000 C 
ATOM     10  C   UNL     1      49.320   8.305  13.912  0.00  0.00    +0.000 C 
ATOM     11  C   UNL     1      48.364   9.348  14.507  0.00  0.00    +0.000 C 
ATOM     12  N   UNL     1      48.029  10.413  13.566  0.00  0.00    +0.000 NA
ATOM     13  C   UNL     1      47.522   9.888  12.298  0.00  0.00    +0.000 C 
ATOM     14  C   UNL     1      48.474   8.878  11.656  0.00  0.00    +0.000 C 
ATOM     15  H   UNL     1      48.858  10.980  13.391  0.00  0.00    +0.000 HD
ENDBRANCH   7   9
BRANCH   1  16
ATOM     16  C   UNL     1      44.586   5.531  10.750  0.00  0.00    +0.000 C 
BRANCH  16  17
ATOM     17  O   UNL     1      44.377   4.155  10.448  0.00  0.00    +0.000 OA
BRANCH  17  22
ATOM     18  C   UNL     1      46.161   1.920   8.088  0.00  0.00    +0.000 A 
ATOM     19  C   UNL     1      46.553   2.904   7.196  0.00  0.00    +0.000 A 
ATOM     20  N   UNL     1      46.259   4.215   7.360  0.00  0.00    +0.000 NA
ATOM     21  C   UNL     1      45.541   4.544   8.456  0.00  0.00    +0.000 A 
ATOM     22  C   UNL     1      45.096   3.635   9.408  0.00  0.00    +0.000 A 
ATOM     23  C   UNL     1      45.422   2.292   9.217  0.00  0.00    +0.000 A 
BRANCH  18  25
ATOM     24  N   UNL     1      46.791  -0.557   7.677  0.00  0.00    +0.000 NA
ATOM     25  C   UNL     1      46.507   0.553   7.855  0.00  0.00    +0.000 C 
ENDBRANCH  18  25
ENDBRANCH  17  22
ENDBRANCH  16  17
ENDBRANCH   1  16
TORSDOF 5
ENDMDL
MODEL 2
REMARK VINA RESULT:    -6.866      3.814      7.205
REMARK INTER + INTRA:          -9.213
REMARK INTER:                  -8.618
REMARK INTRA:                  -0.594
REMARK UNBOUND:                -0.339
REMARK  Name = 
REMARK  5 active torsions:
REMARK  status: ('A' for Active; 'I' for Inactive)
REMARK    1  A    between atoms: C_2  and  C_3
REMARK    2  A    between atoms: C_7  and  O_8
REMARK    3  A    between atoms: O_8  and  C_9
REMARK    4  A    between atoms: C_9  and  C_10
REMARK    5  A    between atoms: C_16  and  C_17
REMARK                            x       y       z     vdW  Elec       q    Type
REMARK                         _______ _______ _______ _____ _____    ______ ____
ROOT
ATOM      1  C   UNL     1      47.250   7.274  12.378  0.00  0.00    +0.000 A 
ATOM      2  C   UNL     1      46.832   8.606  12.358  0.00  0.00    +0.000 A 
ATOM      3  C   UNL     1      45.545   8.910  11.924  0.00  0.00    +0.000 A 
ATOM      4  F   UNL     1      45.147  10.191  11.915  0.00  0.00    +0.000 F 
ATOM      5  C   UNL     1      44.679   7.908  11.484  0.00  0.00    +0.000 A 
ATOM      6  F   UNL     1      43.448   8.252  11.075  0.00  0.00    +0.000 F 
ATOM      7  C   UNL     1      45.071   6.562  11.473  0.00  0.00    +0.000 A 
ATOM      8  C   UNL     1      46.345   6.271  11.990  0.00  0.00    +0.000 A 
ENDROOT
BRANCH   7   9
ATOM      9  C   UNL     1      44.137   5.478  10.934  0.00  0.00    +0.000 C 
ATOM     10  C   UNL     1      42.859   5.221  11.764  0.00  0.00    +0.000 C 
ATOM     11  C   UNL     1      43.146   4.475  13.074  0.00  0.00    +0.000 C 
ATOM     12  N   UNL     1      43.863   3.220  12.867  0.00  0.00    +0.000 NA
ATOM     13  C   UNL     1      45.084   3.407  12.081  0.00  0.00    +0.000 C 
ATOM     14  C   UNL     1      44.825   4.109  10.748  0.00  0.00    +0.000 C 
ATOM     15  H   UNL     1      43.252   2.558  12.390  0.00  0.00    +0.000 HD
ENDBRANCH   7   9
BRANCH   1  16
ATOM     16  C   UNL     1      48.648   6.881  12.788  0.00  0.00    +0.000 C 
BRANCH  16  17
ATOM     17  O   UNL     1      48.958   7.503  14.031  0.00  0.00    +0.000 OA
BRANCH  17  22
ATOM     18  C   UNL     1      48.302   4.957  16.646  0.00  0.00    +0.000 A 
ATOM     19  C   UNL     1      49.432   5.210  17.406  0.00  0.00    +0.000 A 
ATOM     20  N   UNL     1      50.344   6.157  17.088  0.00  0.00    +0.000 NA
ATOM     21  C   UNL     1      50.115   6.868  15.963  0.00  0.00    +0.000 A 
ATOM     22  C   UNL     1      49.018   6.691  15.129  0.00  0.00    +0.000 A 
ATOM     23  C   UNL     1      48.089   5.713  15.487  0.00  0.00    +0.000 A 
BRANCH  18  25
ATOM     24  N   UNL     1      46.624   3.123  17.369  0.00  0.00    +0.000 NA
ATOM     25  C   UNL     1      47.377   3.942  17.039  0.00  0.00    +0.000 C 
ENDBRANCH  18  25
ENDBRANCH  17  22
ENDBRANCH  16  17
ENDBRANCH   1  16
TORSDOF 5
ENDMDL
MODEL 3
REMARK VINA RESULT:    -6.840      4.298      7.521
REMARK INTER + INTRA:          -9.179
REMARK INTER:                  -8.876
REMARK INTRA:                  -0.302
REMARK UNBOUND:                -0.339
REMARK  Name = 
REMARK  5 active torsions:
REMARK  status: ('A' for Active; 'I' for Inactive)
REMARK    1  A    between atoms: C_2  and  C_3
REMARK    2  A    between atoms: C_7  and  O_8
REMARK    3  A    between atoms: O_8  and  C_9
REMARK    4  A    between atoms: C_9  and  C_10
REMARK    5  A    between atoms: C_16  and  C_17
REMARK                            x       y       z     vdW  Elec       q    Type
REMARK                         _______ _______ _______ _____ _____    ______ ____
ROOT
ATOM      1  C   UNL     1      46.692   4.650  13.685  0.00  0.00    +0.000 A 
ATOM      2  C   UNL     1      47.314   5.900  13.682  0.00  0.00    +0.000 A 
ATOM      3  C   UNL     1      46.852   6.889  12.819  0.00  0.00    +0.000 A 
ATOM      4  F   UNL     1      47.450   8.089  12.827  0.00  0.00    +0.000 F 
ATOM      5  C   UNL     1      45.798   6.640  11.940  0.00  0.00    +0.000 A 
ATOM      6  F   UNL     1      45.389   7.626  11.127  0.00  0.00    +0.000 F 
ATOM      7  C   UNL     1      45.161   5.392  11.902  0.00  0.00    +0.000 A 
ATOM      8  C   UNL     1      45.592   4.435  12.837  0.00  0.00    +0.000 A 
ENDROOT
BRANCH   7   9
ATOM      9  C   UNL     1      44.047   5.110  10.894  0.00  0.00    +0.000 C 
ATOM     10  C   UNL     1      42.886   4.229  11.409  0.00  0.00    +0.000 C 
ATOM     11  C   UNL     1      43.281   2.753  11.548  0.00  0.00    +0.000 C 
ATOM     12  N   UNL     1      43.820   2.191  10.312  0.00  0.00    +0.000 NA
ATOM     13  C   UNL     1      44.924   2.991   9.780  0.00  0.00    +0.000 C 
ATOM     14  C   UNL     1      44.548   4.460   9.587  0.00  0.00    +0.000 C 
ATOM     15  H   UNL     1      43.077   2.133   9.616  0.00  0.00    +0.000 HD
ENDBRANCH   7   9
BRANCH   1  16
ATOM     16  C   UNL     1      47.175   3.518  14.558  0.00  0.00    +0.000 C 
BRANCH  16  17
ATOM     17  O   UNL     1      47.107   3.924  15.921  0.00  0.00    +0.000 OA
BRANCH  17  22
ATOM     18  C   UNL     1      50.267   2.733  17.455  0.00  0.00    +0.000 A 
ATOM     19  C   UNL     1      50.473   3.830  18.275  0.00  0.00    +0.000 A 
ATOM     20  N   UNL     1      49.629   4.886  18.329  0.00  0.00    +0.000 NA
ATOM     21  C   UNL     1      48.545   4.839  17.524  0.00  0.00    +0.000 A 
ATOM     22  C   UNL     1      48.248   3.791  16.663  0.00  0.00    +0.000 A 
ATOM     23  C   UNL     1      49.132   2.711  16.635  0.00  0.00    +0.000 A 
BRANCH  18  25
ATOM     24  N   UNL     1      51.961   0.776  17.437  0.00  0.00    +0.000 NA
ATOM     25  C   UNL     1      51.197   1.649  17.448  0.00  0.00    +0.000 C 
ENDBRANCH  18  25
ENDBRANCH  17  22
ENDBRANCH  16  17
ENDBRANCH   1  16
TORSDOF 5
ENDMDL
MODEL 4
REMARK VINA RESULT:    -6.806      4.058      8.086
REMARK INTER + INTRA:          -9.134
REMARK INTER:                  -8.755
REMARK INTRA:                  -0.379
REMARK UNBOUND:                -0.339
REMARK  Name = 
REMARK  5 active torsions:
REMARK  status: ('A' for Active; 'I' for Inactive)
REMARK    1  A    between atoms: C_2  and  C_3
REMARK    2  A    between atoms: C_7  and  O_8
REMARK    3  A    between atoms: O_8  and  C_9
REMARK    4  A    between atoms: C_9  and  C_10
REMARK    5  A    between atoms: C_16  and  C_17
REMARK                            x       y       z     vdW  Elec       q    Type
REMARK                         _______ _______ _______ _____ _____    ______ ____
ROOT
ATOM      1  C   UNL     1      46.836   4.773  13.607  0.00  0.00    +0.000 A 
ATOM      2  C   UNL     1      47.501   5.990  13.444  0.00  0.00    +0.000 A 
ATOM      3  C   UNL     1      47.024   6.909  12.514  0.00  0.00    +0.000 A 
ATOM      4  F   UNL     1      47.663   8.078  12.369  0.00  0.00    +0.000 F 
ATOM      5  C   UNL     1      45.909   6.619  11.726  0.00  0.00    +0.000 A 
ATOM      6  F   UNL     1      45.487   7.538  10.843  0.00  0.00    +0.000 F 
ATOM      7  C   UNL     1      45.227   5.401  11.850  0.00  0.00    +0.000 A 
ATOM      8  C   UNL     1      45.680   4.523  12.850  0.00  0.00    +0.000 A 
ENDROOT
BRANCH   7   9
ATOM      9  C   UNL     1      44.044   5.069  10.940  0.00  0.00    +0.000 C 
ATOM     10  C   UNL     1      42.948   4.177  11.566  0.00  0.00    +0.000 C 
ATOM     11  C   UNL     1      43.388   2.714  11.709  0.00  0.00    +0.000 C 
ATOM     12  N   UNL     1      43.842   2.132  10.448  0.00  0.00    +0.000 NA
ATOM     13  C   UNL     1      44.882   2.942   9.811  0.00  0.00    +0.000 C 
ATOM     14  C   UNL     1      44.456   4.397   9.613  0.00  0.00    +0.000 C 
ATOM     15  H   UNL     1      43.048   2.040   9.815  0.00  0.00    +0.000 HD
ENDBRANCH   7   9
BRANCH   1  16
ATOM     16  C   UNL     1      47.331   3.713  14.560  0.00  0.00    +0.000 C 
BRANCH  16  17
ATOM     17  O   UNL     1      46.645   3.850  15.801  0.00  0.00    +0.000 OA
BRANCH  17  22
ATOM     18  C   UNL     1      48.035   5.043  19.025  0.00  0.00    +0.000 A 
ATOM     19  C   UNL     1      49.161   4.237  19.025  0.00  0.00    +0.000 A 
ATOM     20  N   UNL     1      49.450   3.365  18.031  0.00  0.00    +0.000 NA
ATOM     21  C   UNL     1      48.573   3.299  17.007  0.00  0.00    +0.000 A 
ATOM     22  C   UNL     1      47.414   4.059  16.912  0.00  0.00    +0.000 A 
ATOM     23  C   UNL     1      47.146   4.955  17.947  0.00  0.00    +0.000 A 
BRANCH  18  25
ATOM     24  N   UNL     1      47.595   6.667  20.992  0.00  0.00    +0.000 NA
ATOM     25  C   UNL     1      47.790   5.944  20.107  0.00  0.00    +0.000 C 
ENDBRANCH  18  25
ENDBRANCH  17  22
ENDBRANCH  16  17
ENDBRANCH   1  16
TORSDOF 5
ENDMDL
MODEL 5
REMARK VINA RESULT:    -6.523      3.916      7.617
REMARK INTER + INTRA:          -8.769
REMARK INTER:                  -8.362
REMARK INTRA:                  -0.406
REMARK UNBOUND:                -0.339
REMARK  Name = 
REMARK  5 active torsions:
REMARK  status: ('A' for Active; 'I' for Inactive)
REMARK    1  A    between atoms: C_2  and  C_3
REMARK    2  A    between atoms: C_7  and  O_8
REMARK    3  A    between atoms: O_8  and  C_9
REMARK    4  A    between atoms: C_9  and  C_10
REMARK    5  A    between atoms: C_16  and  C_17
REMARK                            x       y       z     vdW  Elec       q    Type
REMARK                         _______ _______ _______ _____ _____    ______ ____
ROOT
ATOM      1  C   UNL     1      46.951   7.081  13.062  0.00  0.00    +0.000 A 
ATOM      2  C   UNL     1      46.736   8.449  12.891  0.00  0.00    +0.000 A 
ATOM      3  C   UNL     1      45.609   8.881  12.197  0.00  0.00    +0.000 A 
ATOM      4  F   UNL     1      45.405  10.197  12.043  0.00  0.00    +0.000 F 
ATOM      5  C   UNL     1      44.709   7.966  11.649  0.00  0.00    +0.000 A 
ATOM      6  F   UNL     1      43.638   8.431  10.988  0.00  0.00    +0.000 F 
ATOM      7  C   UNL     1      44.902   6.584  11.786  0.00  0.00    +0.000 A 
ATOM      8  C   UNL     1      46.003   6.174  12.558  0.00  0.00    +0.000 A 
ENDROOT
BRANCH   7   9
ATOM      9  C   UNL     1      43.943   5.590  11.131  0.00  0.00    +0.000 C 
ATOM     10  C   UNL     1      42.795   5.077  12.029  0.00  0.00    +0.000 C 
ATOM     11  C   UNL     1      43.275   4.080  13.091  0.00  0.00    +0.000 C 
ATOM     12  N   UNL     1      44.001   2.949  12.521  0.00  0.00    +0.000 NA
ATOM     13  C   UNL     1      45.102   3.380  11.657  0.00  0.00    +0.000 C 
ATOM     14  C   UNL     1      44.647   4.341  10.558  0.00  0.00    +0.000 C 
ATOM     15  H   UNL     1      43.356   2.371  11.983  0.00  0.00    +0.000 HD
ENDBRANCH   7   9
BRANCH   1  16
ATOM     16  C   UNL     1      48.177   6.545  13.759  0.00  0.00    +0.000 C 
BRANCH  16  17
ATOM     17  O   UNL     1      47.919   5.212  14.190  0.00  0.00    +0.000 OA
BRANCH  17  22
ATOM     18  C   UNL     1      48.222   5.447  17.879  0.00  0.00    +0.000 A 
ATOM     19  C   UNL     1      47.463   4.327  18.176  0.00  0.00    +0.000 A 
ATOM     20  N   UNL     1      46.895   3.542  17.231  0.00  0.00    +0.000 NA
ATOM     21  C   UNL     1      47.093   3.901  15.944  0.00  0.00    +0.000 A 
ATOM     22  C   UNL     1      47.833   5.005  15.539  0.00  0.00    +0.000 A 
ATOM     23  C   UNL     1      48.414   5.791  16.535  0.00  0.00    +0.000 A 
BRANCH  18  25
ATOM     24  N   UNL     1      49.253   6.877  19.774  0.00  0.00    +0.000 NA
ATOM     25  C   UNL     1      48.795   6.232  18.926  0.00  0.00    +0.000 C 
ENDBRANCH  18  25
ENDBRANCH  17  22
ENDBRANCH  16  17
ENDBRANCH   1  16
TORSDOF 5
ENDMDL
MODEL 6
REMARK VINA RESULT:    -6.475      4.421      7.180
REMARK INTER + INTRA:          -8.706
REMARK INTER:                  -8.276
REMARK INTRA:                  -0.431
REMARK UNBOUND:                -0.339
REMARK  Name = 
REMARK  5 active torsions:
REMARK  status: ('A' for Active; 'I' for Inactive)
REMARK    1  A    between atoms: C_2  and  C_3
REMARK    2  A    between atoms: C_7  and  O_8
REMARK    3  A    between atoms: O_8  and  C_9
REMARK    4  A    between atoms: C_9  and  C_10
REMARK    5  A    between atoms: C_16  and  C_17
REMARK                            x       y       z     vdW  Elec       q    Type
REMARK                         _______ _______ _______ _____ _____    ______ ____
ROOT
ATOM      1  C   UNL     1      45.646   8.435  12.138  0.00  0.00    +0.000 A 
ATOM      2  C   UNL     1      47.039   8.401  12.219  0.00  0.00    +0.000 A 
ATOM      3  C   UNL     1      47.673   7.212  12.569  0.00  0.00    +0.000 A 
ATOM      4  F   UNL     1      49.012   7.185  12.636  0.00  0.00    +0.000 F 
ATOM      5  C   UNL     1      46.935   6.066  12.866  0.00  0.00    +0.000 A 
ATOM      6  F   UNL     1      47.592   4.944  13.200  0.00  0.00    +0.000 F 
ATOM      7  C   UNL     1      45.534   6.068  12.814  0.00  0.00    +0.000 A 
ATOM      8  C   UNL     1      44.920   7.256  12.381  0.00  0.00    +0.000 A 
ENDROOT
BRANCH   7   9
ATOM      9  C   UNL     1      44.733   4.824  13.199  0.00  0.00    +0.000 C 
ATOM     10  C   UNL     1      45.119   3.524  12.459  0.00  0.00    +0.000 C 
ATOM     11  C   UNL     1      44.643   3.511  11.000  0.00  0.00    +0.000 C 
ATOM     12  N   UNL     1      43.209   3.749  10.869  0.00  0.00    +0.000 NA
ATOM     13  C   UNL     1      42.788   4.971  11.556  0.00  0.00    +0.000 C 
ATOM     14  C   UNL     1      43.209   4.995  13.026  0.00  0.00    +0.000 C 
ATOM     15  H   UNL     1      42.699   2.953  11.252  0.00  0.00    +0.000 HD
ENDBRANCH   7   9
BRANCH   1  16
ATOM     16  C   UNL     1      44.894   9.703  11.814  0.00  0.00    +0.000 C 
BRANCH  16  17
ATOM     17  O   UNL     1      44.284   9.565  10.535  0.00  0.00    +0.000 OA
BRANCH  17  22
ATOM     18  C   UNL     1      40.695  10.483  10.708  0.00  0.00    +0.000 A 
ATOM     19  C   UNL     1      40.759  11.554   9.833  0.00  0.00    +0.000 A 
ATOM     20  N   UNL     1      41.899  11.945   9.219  0.00  0.00    +0.000 NA
ATOM     21  C   UNL     1      43.015  11.238   9.503  0.00  0.00    +0.000 A 
ATOM     22  C   UNL     1      43.060  10.152  10.368  0.00  0.00    +0.000 A 
ATOM     23  C   UNL     1      41.867   9.766  10.979  0.00  0.00    +0.000 A 
BRANCH  18  25
ATOM     24  N   UNL     1      38.447   9.822  11.809  0.00  0.00    +0.000 NA
ATOM     25  C   UNL     1      39.456  10.122  11.321  0.00  0.00    +0.000 C 
ENDBRANCH  18  25
ENDBRANCH  17  22
ENDBRANCH  16  17
ENDBRANCH   1  16
TORSDOF 5
ENDMDL
MODEL 7
REMARK VINA RESULT:    -6.469      4.451      6.295
REMARK INTER + INTRA:          -8.699
REMARK INTER:                  -8.183
REMARK INTRA:                  -0.516
REMARK UNBOUND:                -0.339
REMARK  Name = 
REMARK  5 active torsions:
REMARK  status: ('A' for Active; 'I' for Inactive)
REMARK    1  A    between atoms: C_2  and  C_3
REMARK    2  A    between atoms: C_7  and  O_8
REMARK    3  A    between atoms: O_8  and  C_9
REMARK    4  A    between atoms: C_9  and  C_10
REMARK    5  A    between atoms: C_16  and  C_17
REMARK                            x       y       z     vdW  Elec       q    Type
REMARK                         _______ _______ _______ _____ _____    ______ ____
ROOT
ATOM      1  C   UNL     1      46.328   4.722  13.368  0.00  0.00    +0.000 A 
ATOM      2  C   UNL     1      44.958   4.779  13.103  0.00  0.00    +0.000 A 
ATOM      3  C   UNL     1      44.442   5.874  12.416  0.00  0.00    +0.000 A 
ATOM      4  F   UNL     1      43.127   5.918  12.158  0.00  0.00    +0.000 F 
ATOM      5  C   UNL     1      45.268   6.924  12.014  0.00  0.00    +0.000 A 
ATOM      6  F   UNL     1      44.722   7.958  11.354  0.00  0.00    +0.000 F 
ATOM      7  C   UNL     1      46.644   6.909  12.279  0.00  0.00    +0.000 A 
ATOM      8  C   UNL     1      47.155   5.758  12.903  0.00  0.00    +0.000 A 
ENDROOT
BRANCH   7   9
ATOM      9  C   UNL     1      47.530   8.092  11.887  0.00  0.00    +0.000 C 
ATOM     10  C   UNL     1      49.041   7.788  11.775  0.00  0.00    +0.000 C 
ATOM     11  C   UNL     1      49.710   7.601  13.143  0.00  0.00    +0.000 C 
ATOM     12  N   UNL     1      49.498   8.735  14.038  0.00  0.00    +0.000 NA
ATOM     13  C   UNL     1      48.079   9.067  14.179  0.00  0.00    +0.000 C 
ATOM     14  C   UNL     1      47.393   9.304  12.833  0.00  0.00    +0.000 C 
ATOM     15  H   UNL     1      50.001   9.546  13.681  0.00  0.00    +0.000 HD
ENDBRANCH   7   9
BRANCH   1  16
ATOM     16  C   UNL     1      46.944   3.590  14.153  0.00  0.00    +0.000 C 
BRANCH  16  17
ATOM     17  O   UNL     1      46.643   3.766  15.534  0.00  0.00    +0.000 OA
BRANCH  17  22
ATOM     18  C   UNL     1      49.696   2.755  17.379  0.00  0.00    +0.000 A 
ATOM     19  C   UNL     1      49.673   3.783  18.307  0.00  0.00    +0.000 A 
ATOM     20  N   UNL     1      48.717   4.739  18.333  0.00  0.00    +0.000 NA
ATOM     21  C   UNL     1      47.755   4.662  17.387  0.00  0.00    +0.000 A 
ATOM     22  C   UNL     1      47.689   3.677  16.410  0.00  0.00    +0.000 A 
ATOM     23  C   UNL     1      48.684   2.699  16.414  0.00  0.00    +0.000 A 
BRANCH  18  25
ATOM     24  N   UNL     1      51.576   0.977  17.444  0.00  0.00    +0.000 NA
ATOM     25  C   UNL     1      50.736   1.775  17.409  0.00  0.00    +0.000 C 
ENDBRANCH  18  25
ENDBRANCH  17  22
ENDBRANCH  16  17
ENDBRANCH   1  16
TORSDOF 5
ENDMDL
MODEL 8
REMARK VINA RESULT:    -6.299      3.362      4.687
REMARK INTER + INTRA:          -8.479
REMARK INTER:                  -7.866
REMARK INTRA:                  -0.613
REMARK UNBOUND:                -0.339
REMARK  Name = 
REMARK  5 active torsions:
REMARK  status: ('A' for Active; 'I' for Inactive)
REMARK    1  A    between atoms: C_2  and  C_3
REMARK    2  A    between atoms: C_7  and  O_8
REMARK    3  A    between atoms: O_8  and  C_9
REMARK    4  A    between atoms: C_9  and  C_10
REMARK    5  A    between atoms: C_16  and  C_17
REMARK                            x       y       z     vdW  Elec       q    Type
REMARK                         _______ _______ _______ _____ _____    ______ ____
ROOT
ATOM      1  C   UNL     1      45.810   7.883  12.350  0.00  0.00    +0.000 A 
ATOM      2  C   UNL     1      47.188   8.098  12.306  0.00  0.00    +0.000 A 
ATOM      3  C   UNL     1      47.671   9.371  12.017  0.00  0.00    +0.000 A 
ATOM      4  F   UNL     1      48.996   9.572  11.983  0.00  0.00    +0.000 F 
ATOM      5  C   UNL     1      46.798  10.425  11.744  0.00  0.00    +0.000 A 
ATOM      6  F   UNL     1      47.312  11.634  11.470  0.00  0.00    +0.000 F 
ATOM      7  C   UNL     1      45.409  10.242  11.762  0.00  0.00    +0.000 A 
ATOM      8  C   UNL     1      44.944   8.969  12.134  0.00  0.00    +0.000 A 
ENDROOT
BRANCH   7   9
ATOM      9  C   UNL     1      44.462  11.388  11.403  0.00  0.00    +0.000 C 
ATOM     10  C   UNL     1      42.957  11.100  11.601  0.00  0.00    +0.000 C 
ATOM     11  C   UNL     1      42.391  10.155  10.533  0.00  0.00    +0.000 C 
ATOM     12  N   UNL     1      42.630  10.628   9.172  0.00  0.00    +0.000 NA
ATOM     13  C   UNL     1      44.045  10.918   8.932  0.00  0.00    +0.000 C 
ATOM     14  C   UNL     1      44.628  11.894   9.954  0.00  0.00    +0.000 C 
ATOM     15  H   UNL     1      42.079  11.469   9.006  0.00  0.00    +0.000 HD
ENDBRANCH   7   9
BRANCH   1  16
ATOM     16  C   UNL     1      45.221   6.518  12.608  0.00  0.00    +0.000 C 
BRANCH  16  17
ATOM     17  O   UNL     1      44.193   6.270  11.654  0.00  0.00    +0.000 OA
BRANCH  17  22
ATOM     18  C   UNL     1      45.203   3.974   8.922  0.00  0.00    +0.000 A 
ATOM     19  C   UNL     1      44.520   2.861   9.385  0.00  0.00    +0.000 A 
ATOM     20  N   UNL     1      43.772   2.864  10.512  0.00  0.00    +0.000 NA
ATOM     21  C   UNL     1      43.715   4.025  11.201  0.00  0.00    +0.000 A 
ATOM     22  C   UNL     1      44.364   5.195  10.827  0.00  0.00    +0.000 A 
ATOM     23  C   UNL     1      45.121   5.164   9.655  0.00  0.00    +0.000 A 
BRANCH  18  25
ATOM     24  N   UNL     1      46.597   3.835   6.746  0.00  0.00    +0.000 NA
ATOM     25  C   UNL     1      45.975   3.903   7.722  0.00  0.00    +0.000 C 
ENDBRANCH  18  25
ENDBRANCH  17  22
ENDBRANCH  16  17
ENDBRANCH   1  16
TORSDOF 5
ENDMDL
MODEL 9
REMARK VINA RESULT:    -6.216      1.527      2.132
REMARK INTER + INTRA:          -8.372
REMARK INTER:                  -7.853
REMARK INTRA:                  -0.519
REMARK UNBOUND:                -0.339
REMARK  Name = 
REMARK  5 active torsions:
REMARK  status: ('A' for Active; 'I' for Inactive)
REMARK    1  A    between atoms: C_2  and  C_3
REMARK    2  A    between atoms: C_7  and  O_8
REMARK    3  A    between atoms: O_8  and  C_9
REMARK    4  A    between atoms: C_9  and  C_10
REMARK    5  A    between atoms: C_16  and  C_17
REMARK                            x       y       z     vdW  Elec       q    Type
REMARK                         _______ _______ _______ _____ _____    ______ ____
ROOT
ATOM      1  C   UNL     1      45.445   5.758  12.922  0.00  0.00    +0.000 A 
ATOM      2  C   UNL     1      45.796   4.571  13.568  0.00  0.00    +0.000 A 
ATOM      3  C   UNL     1      46.919   4.549  14.390  0.00  0.00    +0.000 A 
ATOM      4  F   UNL     1      47.246   3.408  15.013  0.00  0.00    +0.000 F 
ATOM      5  C   UNL     1      47.712   5.686  14.553  0.00  0.00    +0.000 A 
ATOM      6  F   UNL     1      48.786   5.614  15.355  0.00  0.00    +0.000 F 
ATOM      7  C   UNL     1      47.400   6.889  13.905  0.00  0.00    +0.000 A 
ATOM      8  C   UNL     1      46.218   6.910  13.145  0.00  0.00    +0.000 A 
ENDROOT
BRANCH   7   9
ATOM      9  C   UNL     1      48.308   8.111  14.043  0.00  0.00    +0.000 C 
ATOM     10  C   UNL     1      47.843   9.379  13.291  0.00  0.00    +0.000 C 
ATOM     11  C   UNL     1      48.037   9.271  11.773  0.00  0.00    +0.000 C 
ATOM     12  N   UNL     1      49.411   8.949  11.398  0.00  0.00    +0.000 NA
ATOM     13  C   UNL     1      49.904   7.754  12.086  0.00  0.00    +0.000 C 
ATOM     14  C   UNL     1      49.765   7.849  13.605  0.00  0.00    +0.000 C 
ATOM     15  H   UNL     1      50.015   9.740  11.620  0.00  0.00    +0.000 HD
ENDBRANCH   7   9
BRANCH   1  16
ATOM     16  C   UNL     1      44.270   5.837  11.978  0.00  0.00    +0.000 C 
BRANCH  16  17
ATOM     17  O   UNL     1      44.755   5.941  10.643  0.00  0.00    +0.000 OA
BRANCH  17  22
ATOM     18  C   UNL     1      45.586   3.315   8.159  0.00  0.00    +0.000 A 
ATOM     19  C   UNL     1      44.808   2.313   8.716  0.00  0.00    +0.000 A 
ATOM     20  N   UNL     1      44.055   2.488   9.826  0.00  0.00    +0.000 NA
ATOM     21  C   UNL     1      44.092   3.710  10.399  0.00  0.00    +0.000 A 
ATOM     22  C   UNL     1      44.840   4.780   9.925  0.00  0.00    +0.000 A 
ATOM     23  C   UNL     1      45.600   4.573   8.774  0.00  0.00    +0.000 A 
BRANCH  18  25
ATOM     24  N   UNL     1      46.993   2.866   6.034  0.00  0.00    +0.000 NA
ATOM     25  C   UNL     1      46.357   3.064   6.984  0.00  0.00    +0.000 C 
ENDBRANCH  18  25
ENDBRANCH  17  22
ENDBRANCH  16  17
ENDBRANCH   1  16
TORSDOF 5
ENDMDL
