MODEL 1
REMARK VINA RESULT:    -6.924      0.000      0.000
REMARK INTER + INTRA:         -10.369
REMARK INTER:                  -9.758
REMARK INTRA:                  -0.612
REMARK UNBOUND:                -0.612
REMARK  Name = 
REMARK  9 active torsions:
REMARK  status: ('A' for Active; 'I' for Inactive)
REMARK    1  A    between atoms: C_1  and  C_2
REMARK    2  A    between atoms: C_2  and  C_3
REMARK    3  A    between atoms: C_6  and  C_7
REMARK    4  A    between atoms: C_7  and  O_8
REMARK    5  A    between atoms: O_8  and  C_9
REMARK    6  A    between atoms: C_13  and  C_14
REMARK    7  A    between atoms: C_14  and  N_15
REMARK    8  A    between atoms: C_18  and  C_19
REMARK    9  A    between atoms: C_19  and  N_20
REMARK                            x       y       z     vdW  Elec       q    Type
REMARK                         _______ _______ _______ _____ _____    ______ ____
ROOT
ATOM      1  C   UNL     1      46.887   6.277  12.738  0.00  0.00    +0.000 A 
ATOM      2  C   UNL     1      46.488   6.752  11.485  0.00  0.00    +0.000 A 
ATOM      3  N   UNL     1      45.568   6.166  10.693  0.00  0.00    +0.000 NA
ATOM      4  C   UNL     1      44.974   5.042  11.156  0.00  0.00    +0.000 A 
ATOM      5  C   UNL     1      45.285   4.505  12.405  0.00  0.00    +0.000 A 
ATOM      6  C   UNL     1      46.267   5.106  13.211  0.00  0.00    +0.000 A 
ENDROOT
BRANCH   1   8
ATOM      7  C   UNL     1      49.237   7.135  12.595  0.00  0.00    +0.000 C 
ATOM      8  C   UNL     1      47.990   7.008  13.458  0.00  0.00    +0.000 C 
ENDBRANCH   1   8
BRANCH   4   9
ATOM      9  C   UNL     1      44.009   4.331  10.237  0.00  0.00    +0.000 C 
BRANCH   9  10
ATOM     10  O   UNL     1      44.458   4.389   8.882  0.00  0.00    +0.000 OA
BRANCH  10  11
ATOM     11  C   UNL     1      45.191   3.316   8.442  0.00  0.00    +0.000 A 
ATOM     12  C   UNL     1      45.170   2.032   8.989  0.00  0.00    +0.000 A 
ATOM     13  C   UNL     1      45.942   1.016   8.423  0.00  0.00    +0.000 A 
ATOM     14  C   UNL     1      46.738   1.276   7.308  0.00  0.00    +0.000 A 
ATOM     15  C   UNL     1      46.794   2.563   6.756  0.00  0.00    +0.000 A 
ATOM     16  C   UNL     1      46.006   3.574   7.335  0.00  0.00    +0.000 A 
BRANCH  15  17
ATOM     17  C   UNL     1      47.587   2.862   5.506  0.00  0.00    +0.000 C 
BRANCH  17  18
ATOM     18  N   UNL     1      48.270   1.693   4.957  0.00  0.00    +0.000 NA
ATOM     19  H   UNL     1      48.141   1.688   3.945  0.00  0.00    +0.000 HD
ATOM     20  H   UNL     1      47.817   0.852   5.307  0.00  0.00    +0.000 HD
ENDBRANCH  17  18
ENDBRANCH  15  17
ENDBRANCH  10  11
ENDBRANCH   9  10
ENDBRANCH   4   9
BRANCH   6  21
ATOM     21  C   UNL     1      46.646   4.416  14.502  0.00  0.00    +0.000 C 
BRANCH  21  22
ATOM     22  N   UNL     1      47.433   3.210  14.266  0.00  0.00    +0.000 NA
ATOM     23  H   UNL     1      47.020   2.692  13.491  0.00  0.00    +0.000 HD
ATOM     24  H   UNL     1      47.373   2.604  15.082  0.00  0.00    +0.000 HD
ENDBRANCH  21  22
ENDBRANCH   6  21
TORSDOF 8
ENDMDL
MODEL 2
REMARK VINA RESULT:    -6.478      1.770      2.798
REMARK INTER + INTRA:          -9.741
REMARK INTER:                  -9.331
REMARK INTRA:                  -0.410
REMARK UNBOUND:                -0.612
REMARK  Name = 
REMARK  9 active torsions:
REMARK  status: ('A' for Active; 'I' for Inactive)
REMARK    1  A    between atoms: C_1  and  C_2
REMARK    2  A    between atoms: C_2  and  C_3
REMARK    3  A    between atoms: C_6  and  C_7
REMARK    4  A    between atoms: C_7  and  O_8
REMARK    5  A    between atoms: O_8  and  C_9
REMARK    6  A    between atoms: C_13  and  C_14
REMARK    7  A    between atoms: C_14  and  N_15
REMARK    8  A    between atoms: C_18  and  C_19
REMARK    9  A    between atoms: C_19  and  N_20
REMARK                            x       y       z     vdW  Elec       q    Type
REMARK                         _______ _______ _______ _____ _____    ______ ____
ROOT
ATOM      1  C   UNL     1      46.683   5.306  13.614  0.00  0.00    +0.000 A 
ATOM      2  C   UNL     1      46.275   3.971  13.538  0.00  0.00    +0.000 A 
ATOM      3  N   UNL     1      45.343   3.495  12.689  0.00  0.00    +0.000 NA
ATOM      4  C   UNL     1      44.774   4.375  11.833  0.00  0.00    +0.000 A 
ATOM      5  C   UNL     1      45.134   5.723  11.814  0.00  0.00    +0.000 A 
ATOM      6  C   UNL     1      46.084   6.216  12.724  0.00  0.00    +0.000 A 
ENDROOT
BRANCH   1   8
ATOM      7  C   UNL     1      47.666   4.698  15.838  0.00  0.00    +0.000 C 
ATOM      8  C   UNL     1      47.678   5.686  14.680  0.00  0.00    +0.000 C 
ENDBRANCH   1   8
BRANCH   4   9
ATOM      9  C   UNL     1      43.667   3.867  10.940  0.00  0.00    +0.000 C 
BRANCH   9  10
ATOM     10  O   UNL     1      44.085   2.707  10.217  0.00  0.00    +0.000 OA
BRANCH  10  11
ATOM     11  C   UNL     1      44.941   2.927   9.168  0.00  0.00    +0.000 A 
ATOM     12  C   UNL     1      45.197   4.159   8.565  0.00  0.00    +0.000 A 
ATOM     13  C   UNL     1      46.121   4.251   7.522  0.00  0.00    +0.000 A 
ATOM     14  C   UNL     1      46.796   3.115   7.078  0.00  0.00    +0.000 A 
ATOM     15  C   UNL     1      46.539   1.863   7.653  0.00  0.00    +0.000 A 
ATOM     16  C   UNL     1      45.609   1.788   8.705  0.00  0.00    +0.000 A 
BRANCH  15  17
ATOM     17  C   UNL     1      47.305   0.626   7.247  0.00  0.00    +0.000 C 
BRANCH  17  18
ATOM     18  N   UNL     1      46.736  -0.612   7.777  0.00  0.00    +0.000 NA
ATOM     19  H   UNL     1      46.377  -0.428   8.713  0.00  0.00    +0.000 HD
ATOM     20  H   UNL     1      47.482  -1.296   7.886  0.00  0.00    +0.000 HD
ENDBRANCH  17  18
ENDBRANCH  15  17
ENDBRANCH  10  11
ENDBRANCH   9  10
ENDBRANCH   4   9
BRANCH   6  21
ATOM     21  C   UNL     1      46.349   7.704  12.736  0.00  0.00    +0.000 C 
BRANCH  21  22
ATOM     22  N   UNL     1      45.119   8.477  12.869  0.00  0.00    +0.000 NA
ATOM     23  H   UNL     1      44.699   8.276  13.776  0.00  0.00    +0.000 HD
ATOM     24  H   UNL     1      44.450   8.169  12.166  0.00  0.00    +0.000 HD
ENDBRANCH  21  22
ENDBRANCH   6  21
TORSDOF 8
ENDMDL
MODEL 3
REMARK VINA RESULT:    -6.432      1.547      6.700
REMARK INTER + INTRA:          -9.676
REMARK INTER:                  -9.190
REMARK INTRA:                  -0.486
REMARK UNBOUND:                -0.612
REMARK  Name = 
REMARK  9 active torsions:
REMARK  status: ('A' for Active; 'I' for Inactive)
REMARK    1  A    between atoms: C_1  and  C_2
REMARK    2  A    between atoms: C_2  and  C_3
REMARK    3  A    between atoms: C_6  and  C_7
REMARK    4  A    between atoms: C_7  and  O_8
REMARK    5  A    between atoms: O_8  and  C_9
REMARK    6  A    between atoms: C_13  and  C_14
REMARK    7  A    between atoms: C_14  and  N_15
REMARK    8  A    between atoms: C_18  and  C_19
REMARK    9  A    between atoms: C_19  and  N_20
REMARK                            x       y       z     vdW  Elec       q    Type
REMARK                         _______ _______ _______ _____ _____    ______ ____
ROOT
ATOM      1  C   UNL     1      46.207   1.925   7.939  0.00  0.00    +0.000 A 
ATOM      2  C   UNL     1      45.255   1.497   8.870  0.00  0.00    +0.000 A 
ATOM      3  N   UNL     1      44.419   2.306   9.549  0.00  0.00    +0.000 NA
ATOM      4  C   UNL     1      44.497   3.633   9.296  0.00  0.00    +0.000 A 
ATOM      5  C   UNL     1      45.396   4.155   8.366  0.00  0.00    +0.000 A 
ATOM      6  C   UNL     1      46.284   3.306   7.685  0.00  0.00    +0.000 A 
ENDROOT
BRANCH   1   8
ATOM      7  C   UNL     1      46.663  -0.522   7.651  0.00  0.00    +0.000 C 
ATOM      8  C   UNL     1      47.120   0.893   7.330  0.00  0.00    +0.000 C 
ENDBRANCH   1   8
BRANCH   4   9
ATOM      9  C   UNL     1      43.627   4.555  10.118  0.00  0.00    +0.000 C 
BRANCH   9  10
ATOM     10  O   UNL     1      43.874   4.379  11.514  0.00  0.00    +0.000 OA
BRANCH  10  11
ATOM     11  C   UNL     1      44.983   5.012  12.016  0.00  0.00    +0.000 A 
ATOM     12  C   UNL     1      45.583   6.154  11.484  0.00  0.00    +0.000 A 
ATOM     13  C   UNL     1      46.693   6.721  12.113  0.00  0.00    +0.000 A 
ATOM     14  C   UNL     1      47.209   6.151  13.276  0.00  0.00    +0.000 A 
ATOM     15  C   UNL     1      46.638   4.991  13.816  0.00  0.00    +0.000 A 
ATOM     16  C   UNL     1      45.517   4.435  13.173  0.00  0.00    +0.000 A 
BRANCH  15  17
ATOM     17  C   UNL     1      47.124   4.391  15.114  0.00  0.00    +0.000 C 
BRANCH  17  18
ATOM     18  N   UNL     1      47.695   3.055  14.961  0.00  0.00    +0.000 NA
ATOM     19  H   UNL     1      48.691   3.149  14.765  0.00  0.00    +0.000 HD
ATOM     20  H   UNL     1      47.282   2.613  14.142  0.00  0.00    +0.000 HD
ENDBRANCH  17  18
ENDBRANCH  15  17
ENDBRANCH  10  11
ENDBRANCH   9  10
ENDBRANCH   4   9
BRANCH   6  21
ATOM     21  C   UNL     1      47.314   3.938   6.775  0.00  0.00    +0.000 C 
BRANCH  21  22
ATOM     22  N   UNL     1      47.097   3.585   5.377  0.00  0.00    +0.000 NA
ATOM     23  H   UNL     1      46.560   4.327   4.928  0.00  0.00    +0.000 HD
ATOM     24  H   UNL     1      46.523   2.744   5.326  0.00  0.00    +0.000 HD
ENDBRANCH  21  22
ENDBRANCH   6  21
TORSDOF 8
ENDMDL
MODEL 4
REMARK VINA RESULT:    -6.388      1.286      1.772
REMARK INTER + INTRA:          -9.613
REMARK INTER:                  -9.251
REMARK INTRA:                  -0.363
REMARK UNBOUND:                -0.612
REMARK  Name = 
REMARK  9 active torsions:
REMARK  status: ('A' for Active; 'I' for Inactive)
REMARK    1  A    between atoms: C_1  and  C_2
REMARK    2  A    between atoms: C_2  and  C_3
REMARK    3  A    between atoms: C_6  and  C_7
REMARK    4  A    between atoms: C_7  and  O_8
REMARK    5  A    between atoms: O_8  and  C_9
REMARK    6  A    between atoms: C_13  and  C_14
REMARK    7  A    between atoms: C_14  and  N_15
REMARK    8  A    between atoms: C_18  and  C_19
REMARK    9  A    between atoms: C_19  and  N_20
REMARK                            x       y       z     vdW  Elec       q    Type
REMARK                         _______ _______ _______ _____ _____    ______ ____
ROOT
ATOM      1  C   UNL     1      46.862   5.796  13.093  0.00  0.00    +0.000 A 
ATOM      2  C   UNL     1      46.168   6.496  12.101  0.00  0.00    +0.000 A 
ATOM      3  N   UNL     1      45.159   5.994  11.362  0.00  0.00    +0.000 NA
ATOM      4  C   UNL     1      44.780   4.719  11.613  0.00  0.00    +0.000 A 
ATOM      5  C   UNL     1      45.393   3.948  12.600  0.00  0.00    +0.000 A 
ATOM      6  C   UNL     1      46.464   4.471  13.345  0.00  0.00    +0.000 A 
ENDROOT
BRANCH   1   8
ATOM      7  C   UNL     1      48.963   7.121  12.758  0.00  0.00    +0.000 C 
ATOM      8  C   UNL     1      48.021   6.482  13.768  0.00  0.00    +0.000 C 
ENDBRANCH   1   8
BRANCH   4   9
ATOM      9  C   UNL     1      43.712   4.119  10.729  0.00  0.00    +0.000 C 
BRANCH   9  10
ATOM     10  O   UNL     1      44.165   2.900  10.138  0.00  0.00    +0.000 OA
BRANCH  10  11
ATOM     11  C   UNL     1      45.026   3.028   9.077  0.00  0.00    +0.000 A 
ATOM     12  C   UNL     1      45.311   4.211   8.393  0.00  0.00    +0.000 A 
ATOM     13  C   UNL     1      46.237   4.211   7.348  0.00  0.00    +0.000 A 
ATOM     14  C   UNL     1      46.884   3.031   6.982  0.00  0.00    +0.000 A 
ATOM     15  C   UNL     1      46.598   1.827   7.639  0.00  0.00    +0.000 A 
ATOM     16  C   UNL     1      45.666   1.845   8.692  0.00  0.00    +0.000 A 
BRANCH  15  17
ATOM     17  C   UNL     1      47.334   0.548   7.318  0.00  0.00    +0.000 C 
BRANCH  17  18
ATOM     18  N   UNL     1      46.642  -0.654   7.779  0.00  0.00    +0.000 NA
ATOM     19  H   UNL     1      45.880  -0.372   8.395  0.00  0.00    +0.000 HD
ATOM     20  H   UNL     1      47.281  -1.204   8.348  0.00  0.00    +0.000 HD
ENDBRANCH  17  18
ENDBRANCH  15  17
ENDBRANCH  10  11
ENDBRANCH   9  10
ENDBRANCH   4   9
BRANCH   6  21
ATOM     21  C   UNL     1      47.166   3.553  14.320  0.00  0.00    +0.000 C 
BRANCH  21  22
ATOM     22  N   UNL     1      46.852   3.885  15.705  0.00  0.00    +0.000 NA
ATOM     23  H   UNL     1      45.994   3.405  15.974  0.00  0.00    +0.000 HD
ATOM     24  H   UNL     1      46.658   4.882  15.777  0.00  0.00    +0.000 HD
ENDBRANCH  21  22
ENDBRANCH   6  21
TORSDOF 8
ENDMDL
MODEL 5
REMARK VINA RESULT:    -6.248      1.489      2.459
REMARK INTER + INTRA:          -9.417
REMARK INTER:                  -8.805
REMARK INTRA:                  -0.612
REMARK UNBOUND:                -0.612
REMARK  Name = 
REMARK  9 active torsions:
REMARK  status: ('A' for Active; 'I' for Inactive)
REMARK    1  A    between atoms: C_1  and  C_2
REMARK    2  A    between atoms: C_2  and  C_3
REMARK    3  A    between atoms: C_6  and  C_7
REMARK    4  A    between atoms: C_7  and  O_8
REMARK    5  A    between atoms: O_8  and  C_9
REMARK    6  A    between atoms: C_13  and  C_14
REMARK    7  A    between atoms: C_14  and  N_15
REMARK    8  A    between atoms: C_18  and  C_19
REMARK    9  A    between atoms: C_19  and  N_20
REMARK                            x       y       z     vdW  Elec       q    Type
REMARK                         _______ _______ _______ _____ _____    ______ ____
ROOT
ATOM      1  C   UNL     1      46.649   6.842  12.918  0.00  0.00    +0.000 A 
ATOM      2  C   UNL     1      46.514   5.450  12.910  0.00  0.00    +0.000 A 
ATOM      3  N   UNL     1      45.537   4.772  12.276  0.00  0.00    +0.000 NA
ATOM      4  C   UNL     1      44.629   5.494  11.580  0.00  0.00    +0.000 A 
ATOM      5  C   UNL     1      44.695   6.886  11.506  0.00  0.00    +0.000 A 
ATOM      6  C   UNL     1      45.699   7.586  12.195  0.00  0.00    +0.000 A 
ENDROOT
BRANCH   1   8
ATOM      7  C   UNL     1      49.124   7.166  13.147  0.00  0.00    +0.000 C 
ATOM      8  C   UNL     1      47.753   7.445  13.747  0.00  0.00    +0.000 C 
ENDBRANCH   1   8
BRANCH   4   9
ATOM      9  C   UNL     1      43.481   4.749  10.942  0.00  0.00    +0.000 C 
BRANCH   9  10
ATOM     10  O   UNL     1      43.655   4.658   9.526  0.00  0.00    +0.000 OA
BRANCH  10  11
ATOM     11  C   UNL     1      44.465   3.644   9.082  0.00  0.00    +0.000 A 
ATOM     12  C   UNL     1      44.352   2.296   9.428  0.00  0.00    +0.000 A 
ATOM     13  C   UNL     1      45.223   1.355   8.876  0.00  0.00    +0.000 A 
ATOM     14  C   UNL     1      46.210   1.754   7.976  0.00  0.00    +0.000 A 
ATOM     15  C   UNL     1      46.358   3.104   7.631  0.00  0.00    +0.000 A 
ATOM     16  C   UNL     1      45.469   4.038   8.192  0.00  0.00    +0.000 A 
BRANCH  15  17
ATOM     17  C   UNL     1      47.366   3.560   6.603  0.00  0.00    +0.000 C 
BRANCH  17  18
ATOM     18  N   UNL     1      48.480   2.631   6.428  0.00  0.00    +0.000 NA
ATOM     19  H   UNL     1      48.156   1.692   6.657  0.00  0.00    +0.000 HD
ATOM     20  H   UNL     1      49.206   2.856   7.104  0.00  0.00    +0.000 HD
ENDBRANCH  17  18
ENDBRANCH  15  17
ENDBRANCH  10  11
ENDBRANCH   9  10
ENDBRANCH   4   9
BRANCH   6  21
ATOM     21  C   UNL     1      45.653   9.097  12.174  0.00  0.00    +0.000 C 
BRANCH  21  22
ATOM     22  N   UNL     1      44.285   9.601  12.117  0.00  0.00    +0.000 NA
ATOM     23  H   UNL     1      43.660   8.834  11.868  0.00  0.00    +0.000 HD
ATOM     24  H   UNL     1      44.209  10.288  11.368  0.00  0.00    +0.000 HD
ENDBRANCH  21  22
ENDBRANCH   6  21
TORSDOF 8
ENDMDL
MODEL 6
REMARK VINA RESULT:    -5.946      1.652      6.237
REMARK INTER + INTRA:          -8.990
REMARK INTER:                  -8.805
REMARK INTRA:                  -0.185
REMARK UNBOUND:                -0.612
REMARK  Name = 
REMARK  9 active torsions:
REMARK  status: ('A' for Active; 'I' for Inactive)
REMARK    1  A    between atoms: C_1  and  C_2
REMARK    2  A    between atoms: C_2  and  C_3
REMARK    3  A    between atoms: C_6  and  C_7
REMARK    4  A    between atoms: C_7  and  O_8
REMARK    5  A    between atoms: O_8  and  C_9
REMARK    6  A    between atoms: C_13  and  C_14
REMARK    7  A    between atoms: C_14  and  N_15
REMARK    8  A    between atoms: C_18  and  C_19
REMARK    9  A    between atoms: C_19  and  N_20
REMARK                            x       y       z     vdW  Elec       q    Type
REMARK                         _______ _______ _______ _____ _____    ______ ____
ROOT
ATOM      1  C   UNL     1      46.672   2.897   7.364  0.00  0.00    +0.000 A 
ATOM      2  C   UNL     1      46.443   4.258   7.590  0.00  0.00    +0.000 A 
ATOM      3  N   UNL     1      45.583   4.756   8.500  0.00  0.00    +0.000 NA
ATOM      4  C   UNL     1      44.905   3.870   9.265  0.00  0.00    +0.000 A 
ATOM      5  C   UNL     1      45.084   2.493   9.133  0.00  0.00    +0.000 A 
ATOM      6  C   UNL     1      45.959   1.982   8.160  0.00  0.00    +0.000 A 
ENDROOT
BRANCH   1   8
ATOM      7  C   UNL     1      46.873   2.365   4.923  0.00  0.00    +0.000 C 
ATOM      8  C   UNL     1      47.607   2.509   6.248  0.00  0.00    +0.000 C 
ENDBRANCH   1   8
BRANCH   4   9
ATOM      9  C   UNL     1      43.874   4.418  10.224  0.00  0.00    +0.000 C 
BRANCH   9  10
ATOM     10  O   UNL     1      44.314   5.652  10.795  0.00  0.00    +0.000 OA
BRANCH  10  11
ATOM     11  C   UNL     1      45.233   5.554  11.808  0.00  0.00    +0.000 A 
ATOM     12  C   UNL     1      45.204   4.629  12.853  0.00  0.00    +0.000 A 
ATOM     13  C   UNL     1      46.224   4.614  13.806  0.00  0.00    +0.000 A 
ATOM     14  C   UNL     1      47.280   5.521  13.720  0.00  0.00    +0.000 A 
ATOM     15  C   UNL     1      47.320   6.473  12.693  0.00  0.00    +0.000 A 
ATOM     16  C   UNL     1      46.286   6.472  11.739  0.00  0.00    +0.000 A 
BRANCH  15  17
ATOM     17  C   UNL     1      48.485   7.420  12.528  0.00  0.00    +0.000 C 
BRANCH  17  18
ATOM     18  N   UNL     1      49.775   6.818  12.854  0.00  0.00    +0.000 NA
ATOM     19  H   UNL     1      50.451   7.096  12.143  0.00  0.00    +0.000 HD
ATOM     20  H   UNL     1      49.692   5.805  12.790  0.00  0.00    +0.000 HD
ENDBRANCH  17  18
ENDBRANCH  15  17
ENDBRANCH  10  11
ENDBRANCH   9  10
ENDBRANCH   4   9
BRANCH   6  21
ATOM     21  C   UNL     1      46.027   0.482   7.983  0.00  0.00    +0.000 C 
BRANCH  21  22
ATOM     22  N   UNL     1      47.402   0.007   7.872  0.00  0.00    +0.000 NA
ATOM     23  H   UNL     1      47.877   0.161   8.761  0.00  0.00    +0.000 HD
ATOM     24  H   UNL     1      47.897   0.566   7.180  0.00  0.00    +0.000 HD
ENDBRANCH  21  22
ENDBRANCH   6  21
TORSDOF 8
ENDMDL
MODEL 7
REMARK VINA RESULT:    -5.840      2.737      4.491
REMARK INTER + INTRA:          -8.841
REMARK INTER:                  -8.286
REMARK INTRA:                  -0.555
REMARK UNBOUND:                -0.612
REMARK  Name = 
REMARK  9 active torsions:
REMARK  status: ('A' for Active; 'I' for Inactive)
REMARK    1  A    between atoms: C_1  and  C_2
REMARK    2  A    between atoms: C_2  and  C_3
REMARK    3  A    between atoms: C_6  and  C_7
REMARK    4  A    between atoms: C_7  and  O_8
REMARK    5  A    between atoms: O_8  and  C_9
REMARK    6  A    between atoms: C_13  and  C_14
REMARK    7  A    between atoms: C_14  and  N_15
REMARK    8  A    between atoms: C_18  and  C_19
REMARK    9  A    between atoms: C_19  and  N_20
REMARK                            x       y       z     vdW  Elec       q    Type
REMARK                         _______ _______ _______ _____ _____    ______ ____
ROOT
ATOM      1  C   UNL     1      48.826   5.409  16.666  0.00  0.00    +0.000 A 
ATOM      2  C   UNL     1      48.999   6.577  15.916  0.00  0.00    +0.000 A 
ATOM      3  N   UNL     1      48.403   6.833  14.735  0.00  0.00    +0.000 NA
ATOM      4  C   UNL     1      47.558   5.895  14.249  0.00  0.00    +0.000 A 
ATOM      5  C   UNL     1      47.299   4.709  14.936  0.00  0.00    +0.000 A 
ATOM      6  C   UNL     1      47.949   4.437  16.151  0.00  0.00    +0.000 A 
ENDROOT
BRANCH   1   8
ATOM      7  C   UNL     1      51.009   4.658  17.642  0.00  0.00    +0.000 C 
ATOM      8  C   UNL     1      49.634   5.246  17.927  0.00  0.00    +0.000 C 
ENDBRANCH   1   8
BRANCH   4   9
ATOM      9  C   UNL     1      46.955   6.136  12.885  0.00  0.00    +0.000 C 
BRANCH   9  10
ATOM     10  O   UNL     1      45.528   6.124  12.949  0.00  0.00    +0.000 OA
BRANCH  10  11
ATOM     11  C   UNL     1      44.906   5.059  12.348  0.00  0.00    +0.000 A 
ATOM     12  C   UNL     1      44.108   4.110  12.989  0.00  0.00    +0.000 A 
ATOM     13  C   UNL     1      43.503   3.090  12.252  0.00  0.00    +0.000 A 
ATOM     14  C   UNL     1      43.689   3.013  10.873  0.00  0.00    +0.000 A 
ATOM     15  C   UNL     1      44.504   3.941  10.210  0.00  0.00    +0.000 A 
ATOM     16  C   UNL     1      45.102   4.965  10.966  0.00  0.00    +0.000 A 
BRANCH  15  17
ATOM     17  C   UNL     1      44.667   3.932   8.709  0.00  0.00    +0.000 C 
BRANCH  17  18
ATOM     18  N   UNL     1      45.682   4.867   8.227  0.00  0.00    +0.000 NA
ATOM     19  H   UNL     1      45.247   5.499   7.556  0.00  0.00    +0.000 HD
ATOM     20  H   UNL     1      46.390   4.347   7.713  0.00  0.00    +0.000 HD
ENDBRANCH  17  18
ENDBRANCH  15  17
ENDBRANCH  10  11
ENDBRANCH   9  10
ENDBRANCH   4   9
BRANCH   6  21
ATOM     21  C   UNL     1      47.719   3.087  16.793  0.00  0.00    +0.000 C 
BRANCH  21  22
ATOM     22  N   UNL     1      46.612   3.115  17.741  0.00  0.00    +0.000 NA
ATOM     23  H   UNL     1      45.734   3.051  17.227  0.00  0.00    +0.000 HD
ATOM     24  H   UNL     1      46.600   4.015  18.219  0.00  0.00    +0.000 HD
ENDBRANCH  21  22
ENDBRANCH   6  21
TORSDOF 8
ENDMDL
MODEL 8
REMARK VINA RESULT:    -5.775      1.694      2.645
REMARK INTER + INTRA:          -8.750
REMARK INTER:                  -8.399
REMARK INTRA:                  -0.351
REMARK UNBOUND:                -0.612
REMARK  Name = 
REMARK  9 active torsions:
REMARK  status: ('A' for Active; 'I' for Inactive)
REMARK    1  A    between atoms: C_1  and  C_2
REMARK    2  A    between atoms: C_2  and  C_3
REMARK    3  A    between atoms: C_6  and  C_7
REMARK    4  A    between atoms: C_7  and  O_8
REMARK    5  A    between atoms: O_8  and  C_9
REMARK    6  A    between atoms: C_13  and  C_14
REMARK    7  A    between atoms: C_14  and  N_15
REMARK    8  A    between atoms: C_18  and  C_19
REMARK    9  A    between atoms: C_19  and  N_20
REMARK                            x       y       z     vdW  Elec       q    Type
REMARK                         _______ _______ _______ _____ _____    ______ ____
ROOT
ATOM      1  C   UNL     1      47.308   5.258  14.569  0.00  0.00    +0.000 A 
ATOM      2  C   UNL     1      46.363   4.449  13.931  0.00  0.00    +0.000 A 
ATOM      3  N   UNL     1      45.844   4.682  12.709  0.00  0.00    +0.000 NA
ATOM      4  C   UNL     1      46.287   5.774  12.044  0.00  0.00    +0.000 A 
ATOM      5  C   UNL     1      47.247   6.629  12.586  0.00  0.00    +0.000 A 
ATOM      6  C   UNL     1      47.760   6.394  13.873  0.00  0.00    +0.000 A 
ENDROOT
BRANCH   1   8
ATOM      7  C   UNL     1      47.711   3.392  16.192  0.00  0.00    +0.000 C 
ATOM      8  C   UNL     1      47.722   4.898  15.972  0.00  0.00    +0.000 C 
ENDBRANCH   1   8
BRANCH   4   9
ATOM      9  C   UNL     1      45.645   6.092  10.714  0.00  0.00    +0.000 C 
BRANCH   9  10
ATOM     10  O   UNL     1      44.579   5.183  10.432  0.00  0.00    +0.000 OA
BRANCH  10  11
ATOM     11  C   UNL     1      44.909   4.078   9.689  0.00  0.00    +0.000 A 
ATOM     12  C   UNL     1      44.485   2.771   9.934  0.00  0.00    +0.000 A 
ATOM     13  C   UNL     1      44.867   1.737   9.078  0.00  0.00    +0.000 A 
ATOM     14  C   UNL     1      45.674   2.002   7.972  0.00  0.00    +0.000 A 
ATOM     15  C   UNL     1      46.132   3.302   7.719  0.00  0.00    +0.000 A 
ATOM     16  C   UNL     1      45.733   4.333   8.589  0.00  0.00    +0.000 A 
BRANCH  15  17
ATOM     17  C   UNL     1      46.945   3.637   6.491  0.00  0.00    +0.000 C 
BRANCH  17  18
ATOM     18  N   UNL     1      48.204   2.900   6.406  0.00  0.00    +0.000 NA
ATOM     19  H   UNL     1      48.117   2.048   6.958  0.00  0.00    +0.000 HD
ATOM     20  H   UNL     1      48.938   3.452   6.846  0.00  0.00    +0.000 HD
ENDBRANCH  17  18
ENDBRANCH  15  17
ENDBRANCH  10  11
ENDBRANCH   9  10
ENDBRANCH   4   9
BRANCH   6  21
ATOM     21  C   UNL     1      48.711   7.415  14.455  0.00  0.00    +0.000 C 
BRANCH  21  22
ATOM     22  N   UNL     1      50.104   7.001  14.323  0.00  0.00    +0.000 NA
ATOM     23  H   UNL     1      50.680   7.826  14.159  0.00  0.00    +0.000 HD
ATOM     24  H   UNL     1      50.204   6.412  13.499  0.00  0.00    +0.000 HD
ENDBRANCH  21  22
ENDBRANCH   6  21
TORSDOF 8
ENDMDL
MODEL 9
REMARK VINA RESULT:    -5.770      3.584      8.356
REMARK INTER + INTRA:          -8.743
REMARK INTER:                  -8.394
REMARK INTRA:                  -0.349
REMARK UNBOUND:                -0.612
REMARK  Name = 
REMARK  9 active torsions:
REMARK  status: ('A' for Active; 'I' for Inactive)
REMARK    1  A    between atoms: C_1  and  C_2
REMARK    2  A    between atoms: C_2  and  C_3
REMARK    3  A    between atoms: C_6  and  C_7
REMARK    4  A    between atoms: C_7  and  O_8
REMARK    5  A    between atoms: O_8  and  C_9
REMARK    6  A    between atoms: C_13  and  C_14
REMARK    7  A    between atoms: C_14  and  N_15
REMARK    8  A    between atoms: C_18  and  C_19
REMARK    9  A    between atoms: C_19  and  N_20
REMARK                            x       y       z     vdW  Elec       q    Type
REMARK                         _______ _______ _______ _____ _____    ______ ____
ROOT
ATOM      1  C   UNL     1      44.694   4.514  11.207  0.00  0.00    +0.000 A 
ATOM      2  C   UNL     1      45.164   3.398  11.906  0.00  0.00    +0.000 A 
ATOM      3  N   UNL     1      45.851   3.443  13.064  0.00  0.00    +0.000 NA
ATOM      4  C   UNL     1      46.086   4.664  13.600  0.00  0.00    +0.000 A 
ATOM      5  C   UNL     1      45.634   5.835  12.991  0.00  0.00    +0.000 A 
ATOM      6  C   UNL     1      44.946   5.779  11.768  0.00  0.00    +0.000 A 
ENDROOT
BRANCH   1   8
ATOM      7  C   UNL     1      45.021   4.185   8.744  0.00  0.00    +0.000 C 
ATOM      8  C   UNL     1      44.015   4.289   9.881  0.00  0.00    +0.000 C 
ENDBRANCH   1   8
BRANCH   4   9
ATOM      9  C   UNL     1      46.931   4.729  14.850  0.00  0.00    +0.000 C 
BRANCH   9  10
ATOM     10  O   UNL     1      46.931   3.473  15.532  0.00  0.00    +0.000 OA
BRANCH  10  11
ATOM     11  C   UNL     1      47.889   3.314  16.501  0.00  0.00    +0.000 A 
ATOM     12  C   UNL     1      48.989   2.458  16.431  0.00  0.00    +0.000 A 
ATOM     13  C   UNL     1      49.912   2.415  17.477  0.00  0.00    +0.000 A 
ATOM     14  C   UNL     1      49.743   3.227  18.598  0.00  0.00    +0.000 A 
ATOM     15  C   UNL     1      48.634   4.077  18.701  0.00  0.00    +0.000 A 
ATOM     16  C   UNL     1      47.716   4.112  17.637  0.00  0.00    +0.000 A 
BRANCH  15  17
ATOM     17  C   UNL     1      48.460   5.024  19.866  0.00  0.00    +0.000 C 
BRANCH  17  18
ATOM     18  N   UNL     1      48.083   4.355  21.109  0.00  0.00    +0.000 NA
ATOM     19  H   UNL     1      48.872   4.401  21.753  0.00  0.00    +0.000 HD
ATOM     20  H   UNL     1      47.928   3.367  20.917  0.00  0.00    +0.000 HD
ENDBRANCH  17  18
ENDBRANCH  15  17
ENDBRANCH  10  11
ENDBRANCH   9  10
ENDBRANCH   4   9
BRANCH   6  21
ATOM     21  C   UNL     1      44.583   7.084  11.097  0.00  0.00    +0.000 C 
BRANCH  21  22
ATOM     22  N   UNL     1      43.159   7.380  11.215  0.00  0.00    +0.000 NA
ATOM     23  H   UNL     1      43.045   8.364  11.459  0.00  0.00    +0.000 HD
ATOM     24  H   UNL     1      42.766   6.844  11.986  0.00  0.00    +0.000 HD
ENDBRANCH  21  22
ENDBRANCH   6  21
TORSDOF 8
ENDMDL
