MODEL 1
REMARK VINA RESULT:    -7.658      0.000      0.000
REMARK INTER + INTRA:         -10.710
REMARK INTER:                  -9.897
REMARK INTRA:                  -0.813
REMARK UNBOUND:                -0.813
REMARK  Name = 
REMARK  6 active torsions:
REMARK  status: ('A' for Active; 'I' for Inactive)
REMARK    1  A    between atoms: C_1  and  N_2
REMARK    2  A    between atoms: N_2  and  C_3
REMARK    3  A    between atoms: C_3  and  C_4
REMARK    4  A    between atoms: C_7  and  C_8
REMARK    5  A    between atoms: C_8  and  N_9
REMARK    6  A    between atoms: C_18  and  C_20
REMARK                            x       y       z     vdW  Elec       q    Type
REMARK                         _______ _______ _______ _____ _____    ______ ____
ROOT
ATOM      1  C   UNL     1      47.010   6.577  13.942  0.00  0.00    +0.000 C 
ENDROOT
BRANCH   1   2
ATOM      2  C   UNL     1      46.365   5.736  12.874  0.00  0.00    +0.000 A 
ATOM      3  C   UNL     1      46.034   6.277  11.627  0.00  0.00    +0.000 A 
ATOM      4  C   UNL     1      45.395   5.488  10.669  0.00  0.00    +0.000 A 
ATOM      5  C   UNL     1      45.053   4.159  10.955  0.00  0.00    +0.000 A 
ATOM      6  C   UNL     1      45.426   3.605  12.186  0.00  0.00    +0.000 A 
ATOM      7  C   UNL     1      46.079   4.386  13.135  0.00  0.00    +0.000 A 
BRANCH   5   8
ATOM      8  C   UNL     1      44.270   3.334   9.965  0.00  0.00    +0.000 C 
BRANCH   8   9
ATOM      9  N   UNL     1      45.004   2.120   9.640  0.00  0.00    +0.000 N 
ATOM     10  C   UNL     1      45.734   2.221   8.442  0.00  0.00    +0.000 A 
ATOM     11  C   UNL     1      46.480   1.134   8.034  0.00  0.00    +0.000 A 
ATOM     12  C   UNL     1      47.205   1.283   6.872  0.00  0.00    +0.000 A 
ATOM     13  N   UNL     1      47.211   2.406   6.139  0.00  0.00    +0.000 NA
ATOM     14  C   UNL     1      46.464   3.404   6.622  0.00  0.00    +0.000 A 
ATOM     15  N   UNL     1      45.730   3.370   7.745  0.00  0.00    +0.000 NA
ATOM     16  H   UNL     1      44.394   1.309   9.603  0.00  0.00    +0.000 HD
ENDBRANCH   8   9
ENDBRANCH   5   8
ENDBRANCH   1   2
BRANCH   1  18
ATOM     17  C   UNL     1      49.030   7.214  12.558  0.00  0.00    +0.000 C 
ATOM     18  N   UNL     1      48.455   6.781  13.830  0.00  0.00    +0.000 N 
ATOM     19  C   UNL     1      49.320   6.883  14.927  0.00  0.00    +0.000 C 
ATOM     20  O   UNL     1      50.539   6.960  14.760  0.00  0.00    +0.000 OA
BRANCH  19  21
ATOM     21  C   UNL     1      48.783   7.039  16.291  0.00  0.00    +0.000 A 
ATOM     22  C   UNL     1      48.610   8.245  16.950  0.00  0.00    +0.000 A 
ATOM     23  S   UNL     1      48.279   8.081  18.618  0.00  0.00    +0.000 S 
ATOM     24  C   UNL     1      48.425   6.391  18.527  0.00  0.00    +0.000 A 
ATOM     25  N   UNL     1      48.401   5.623  19.647  0.00  0.00    +0.000 NA
ATOM     26  C   UNL     1      48.532   4.358  19.418  0.00  0.00    +0.000 A 
ATOM     27  N   UNL     1      48.630   3.790  18.173  0.00  0.00    +0.000 N 
ATOM     28  C   UNL     1      48.550   4.522  17.007  0.00  0.00    +0.000 A 
ATOM     29  O   UNL     1      48.385   3.978  15.921  0.00  0.00    +0.000 OA
ATOM     30  C   UNL     1      48.565   5.957  17.221  0.00  0.00    +0.000 A 
ATOM     31  H   UNL     1      48.611   2.788  18.064  0.00  0.00    +0.000 HD
ENDBRANCH  19  21
ENDBRANCH   1  18
TORSDOF 5
ENDMDL
MODEL 2
REMARK VINA RESULT:    -7.182      2.865      4.100
REMARK INTER + INTRA:         -10.095
REMARK INTER:                  -8.869
REMARK INTRA:                  -1.225
REMARK UNBOUND:                -0.813
REMARK  Name = 
REMARK  6 active torsions:
REMARK  status: ('A' for Active; 'I' for Inactive)
REMARK    1  A    between atoms: C_1  and  N_2
REMARK    2  A    between atoms: N_2  and  C_3
REMARK    3  A    between atoms: C_3  and  C_4
REMARK    4  A    between atoms: C_7  and  C_8
REMARK    5  A    between atoms: C_8  and  N_9
REMARK    6  A    between atoms: C_18  and  C_20
REMARK                            x       y       z     vdW  Elec       q    Type
REMARK                         _______ _______ _______ _____ _____    ______ ____
ROOT
ATOM      1  C   UNL     1      49.630   7.564  16.036  0.00  0.00    +0.000 C 
ENDROOT
BRANCH   1   2
ATOM      2  C   UNL     1      48.604   7.467  14.939  0.00  0.00    +0.000 A 
ATOM      3  C   UNL     1      48.143   8.609  14.274  0.00  0.00    +0.000 A 
ATOM      4  C   UNL     1      47.158   8.497  13.292  0.00  0.00    +0.000 A 
ATOM      5  C   UNL     1      46.602   7.249  12.982  0.00  0.00    +0.000 A 
ATOM      6  C   UNL     1      47.096   6.101  13.614  0.00  0.00    +0.000 A 
ATOM      7  C   UNL     1      48.091   6.210  14.581  0.00  0.00    +0.000 A 
BRANCH   5   8
ATOM      8  C   UNL     1      45.465   7.134  11.997  0.00  0.00    +0.000 C 
BRANCH   8   9
ATOM      9  N   UNL     1      45.789   6.149  10.976  0.00  0.00    +0.000 N 
ATOM     10  C   UNL     1      44.962   5.012  11.027  0.00  0.00    +0.000 A 
ATOM     11  C   UNL     1      45.166   4.010  10.100  0.00  0.00    +0.000 A 
ATOM     12  C   UNL     1      44.317   2.926  10.162  0.00  0.00    +0.000 A 
ATOM     13  N   UNL     1      43.333   2.807  11.065  0.00  0.00    +0.000 NA
ATOM     14  C   UNL     1      43.210   3.833  11.913  0.00  0.00    +0.000 A 
ATOM     15  N   UNL     1      43.973   4.936  11.935  0.00  0.00    +0.000 NA
ATOM     16  H   UNL     1      46.763   5.867  11.019  0.00  0.00    +0.000 HD
ENDBRANCH   8   9
ENDBRANCH   5   8
ENDBRANCH   1   2
BRANCH   1  18
ATOM     17  C   UNL     1      48.120   8.881  17.581  0.00  0.00    +0.000 C 
ATOM     18  N   UNL     1      49.126   7.839  17.381  0.00  0.00    +0.000 N 
ATOM     19  C   UNL     1      49.307   6.985  18.476  0.00  0.00    +0.000 C 
ATOM     20  O   UNL     1      48.939   7.322  19.603  0.00  0.00    +0.000 OA
BRANCH  19  21
ATOM     21  C   UNL     1      49.816   5.615  18.280  0.00  0.00    +0.000 A 
ATOM     22  C   UNL     1      51.148   5.240  18.340  0.00  0.00    +0.000 A 
ATOM     23  S   UNL     1      51.451   3.664  17.754  0.00  0.00    +0.000 S 
ATOM     24  C   UNL     1      49.817   3.457  17.337  0.00  0.00    +0.000 A 
ATOM     25  N   UNL     1      49.403   2.365  16.644  0.00  0.00    +0.000 NA
ATOM     26  C   UNL     1      48.135   2.352  16.393  0.00  0.00    +0.000 A 
ATOM     27  N   UNL     1      47.241   3.303  16.817  0.00  0.00    +0.000 N 
ATOM     28  C   UNL     1      47.601   4.370  17.612  0.00  0.00    +0.000 A 
ATOM     29  O   UNL     1      46.759   5.054  18.183  0.00  0.00    +0.000 OA
ATOM     30  C   UNL     1      49.036   4.507  17.782  0.00  0.00    +0.000 A 
ATOM     31  H   UNL     1      46.250   3.169  16.686  0.00  0.00    +0.000 HD
ENDBRANCH  19  21
ENDBRANCH   1  18
TORSDOF 5
ENDMDL
MODEL 3
REMARK VINA RESULT:    -7.173      3.351      8.217
REMARK INTER + INTRA:         -10.083
REMARK INTER:                  -9.260
REMARK INTRA:                  -0.823
REMARK UNBOUND:                -0.813
REMARK  Name = 
REMARK  6 active torsions:
REMARK  status: ('A' for Active; 'I' for Inactive)
REMARK    1  A    between atoms: C_1  and  N_2
REMARK    2  A    between atoms: N_2  and  C_3
REMARK    3  A    between atoms: C_3  and  C_4
REMARK    4  A    between atoms: C_7  and  C_8
REMARK    5  A    between atoms: C_8  and  N_9
REMARK    6  A    between atoms: C_18  and  C_20
REMARK                            x       y       z     vdW  Elec       q    Type
REMARK                         _______ _______ _______ _____ _____    ______ ____
ROOT
ATOM      1  C   UNL     1      47.699   6.514  12.604  0.00  0.00    +0.000 C 
ENDROOT
BRANCH   1   2
ATOM      2  C   UNL     1      47.960   6.158  14.043  0.00  0.00    +0.000 A 
ATOM      3  C   UNL     1      48.809   6.935  14.839  0.00  0.00    +0.000 A 
ATOM      4  C   UNL     1      49.071   6.557  16.157  0.00  0.00    +0.000 A 
ATOM      5  C   UNL     1      48.512   5.386  16.686  0.00  0.00    +0.000 A 
ATOM      6  C   UNL     1      47.626   4.635  15.904  0.00  0.00    +0.000 A 
ATOM      7  C   UNL     1      47.350   5.020  14.595  0.00  0.00    +0.000 A 
BRANCH   5   8
ATOM      8  C   UNL     1      48.873   4.918  18.073  0.00  0.00    +0.000 C 
BRANCH   8   9
ATOM      9  N   UNL     1      50.314   4.994  18.264  0.00  0.00    +0.000 N 
ATOM     10  C   UNL     1      50.968   3.775  18.011  0.00  0.00    +0.000 A 
ATOM     11  C   UNL     1      52.341   3.725  18.148  0.00  0.00    +0.000 A 
ATOM     12  C   UNL     1      52.949   2.522  17.863  0.00  0.00    +0.000 A 
ATOM     13  N   UNL     1      52.279   1.427  17.474  0.00  0.00    +0.000 NA
ATOM     14  C   UNL     1      50.956   1.579  17.362  0.00  0.00    +0.000 A 
ATOM     15  N   UNL     1      50.266   2.703  17.605  0.00  0.00    +0.000 NA
ATOM     16  H   UNL     1      50.555   5.327  19.192  0.00  0.00    +0.000 HD
ENDBRANCH   8   9
ENDBRANCH   5   8
ENDBRANCH   1   2
BRANCH   1  18
ATOM     17  C   UNL     1      46.698   8.838  12.536  0.00  0.00    +0.000 C 
ATOM     18  N   UNL     1      46.559   7.395  12.345  0.00  0.00    +0.000 N 
ATOM     19  C   UNL     1      45.413   7.007  11.639  0.00  0.00    +0.000 C 
ATOM     20  O   UNL     1      44.450   7.770  11.539  0.00  0.00    +0.000 OA
BRANCH  19  21
ATOM     21  C   UNL     1      45.390   5.738  10.889  0.00  0.00    +0.000 A 
ATOM     22  C   UNL     1      45.768   5.585   9.565  0.00  0.00    +0.000 A 
ATOM     23  S   UNL     1      45.327   4.080   8.889  0.00  0.00    +0.000 S 
ATOM     24  C   UNL     1      44.554   3.610  10.327  0.00  0.00    +0.000 A 
ATOM     25  N   UNL     1      43.826   2.465  10.391  0.00  0.00    +0.000 NA
ATOM     26  C   UNL     1      43.292   2.247  11.547  0.00  0.00    +0.000 A 
ATOM     27  N   UNL     1      43.463   3.039  12.655  0.00  0.00    +0.000 N 
ATOM     28  C   UNL     1      44.280   4.150  12.663  0.00  0.00    +0.000 A 
ATOM     29  O   UNL     1      44.617   4.689  13.711  0.00  0.00    +0.000 OA
ATOM     30  C   UNL     1      44.769   4.519  11.347  0.00  0.00    +0.000 A 
ATOM     31  H   UNL     1      43.114   2.746  13.554  0.00  0.00    +0.000 HD
ENDBRANCH  19  21
ENDBRANCH   1  18
TORSDOF 5
ENDMDL
MODEL 4
REMARK VINA RESULT:    -7.171      2.392      3.631
REMARK INTER + INTRA:         -10.080
REMARK INTER:                  -9.032
REMARK INTRA:                  -1.048
REMARK UNBOUND:                -0.813
REMARK  Name = 
REMARK  6 active torsions:
REMARK  status: ('A' for Active; 'I' for Inactive)
REMARK    1  A    between atoms: C_1  and  N_2
REMARK    2  A    between atoms: N_2  and  C_3
REMARK    3  A    between atoms: C_3  and  C_4
REMARK    4  A    between atoms: C_7  and  C_8
REMARK    5  A    between atoms: C_8  and  N_9
REMARK    6  A    between atoms: C_18  and  C_20
REMARK                            x       y       z     vdW  Elec       q    Type
REMARK                         _______ _______ _______ _____ _____    ______ ____
ROOT
ATOM      1  C   UNL     1      49.241   7.512  15.218  0.00  0.00    +0.000 C 
ENDROOT
BRANCH   1   2
ATOM      2  C   UNL     1      48.112   7.299  14.246  0.00  0.00    +0.000 A 
ATOM      3  C   UNL     1      47.424   8.381  13.686  0.00  0.00    +0.000 A 
ATOM      4  C   UNL     1      46.352   8.156  12.822  0.00  0.00    +0.000 A 
ATOM      5  C   UNL     1      45.935   6.850  12.530  0.00  0.00    +0.000 A 
ATOM      6  C   UNL     1      46.653   5.768  13.054  0.00  0.00    +0.000 A 
ATOM      7  C   UNL     1      47.734   5.991  13.901  0.00  0.00    +0.000 A 
BRANCH   5   8
ATOM      8  C   UNL     1      44.713   6.602  11.682  0.00  0.00    +0.000 C 
BRANCH   8   9
ATOM      9  N   UNL     1      45.112   6.180  10.347  0.00  0.00    +0.000 N 
ATOM     10  C   UNL     1      44.816   4.830  10.085  0.00  0.00    +0.000 A 
ATOM     11  C   UNL     1      45.138   4.315   8.846  0.00  0.00    +0.000 A 
ATOM     12  C   UNL     1      44.805   2.998   8.617  0.00  0.00    +0.000 A 
ATOM     13  N   UNL     1      44.203   2.217   9.525  0.00  0.00    +0.000 NA
ATOM     14  C   UNL     1      43.924   2.809  10.691  0.00  0.00    +0.000 A 
ATOM     15  N   UNL     1      44.195   4.083  11.015  0.00  0.00    +0.000 NA
ATOM     16  H   UNL     1      46.097   6.355  10.174  0.00  0.00    +0.000 HD
ENDBRANCH   8   9
ENDBRANCH   5   8
ENDBRANCH   1   2
BRANCH   1  18
ATOM     17  C   UNL     1      48.272   9.114  16.920  0.00  0.00    +0.000 C 
ATOM     18  N   UNL     1      48.867   7.818  16.599  0.00  0.00    +0.000 N 
ATOM     19  C   UNL     1      48.757   6.858  17.612  0.00  0.00    +0.000 C 
ATOM     20  O   UNL     1      48.530   7.196  18.776  0.00  0.00    +0.000 OA
BRANCH  19  21
ATOM     21  C   UNL     1      48.773   5.420  17.286  0.00  0.00    +0.000 A 
ATOM     22  C   UNL     1      47.650   4.625  17.121  0.00  0.00    +0.000 A 
ATOM     23  S   UNL     1      47.989   2.952  17.072  0.00  0.00    +0.000 S 
ATOM     24  C   UNL     1      49.643   3.233  17.337  0.00  0.00    +0.000 A 
ATOM     25  N   UNL     1      50.504   2.205  17.552  0.00  0.00    +0.000 NA
ATOM     26  C   UNL     1      51.726   2.576  17.747  0.00  0.00    +0.000 A 
ATOM     27  N   UNL     1      52.172   3.872  17.694  0.00  0.00    +0.000 N 
ATOM     28  C   UNL     1      51.353   4.934  17.374  0.00  0.00    +0.000 A 
ATOM     29  O   UNL     1      51.814   6.033  17.084  0.00  0.00    +0.000 OA
ATOM     30  C   UNL     1      49.946   4.581  17.305  0.00  0.00    +0.000 A 
ATOM     31  H   UNL     1      53.158   4.078  17.739  0.00  0.00    +0.000 HD
ENDBRANCH  19  21
ENDBRANCH   1  18
TORSDOF 5
ENDMDL
MODEL 5
REMARK VINA RESULT:    -7.061      2.369      3.416
REMARK INTER + INTRA:          -9.938
REMARK INTER:                  -8.356
REMARK INTRA:                  -1.582
REMARK UNBOUND:                -0.813
REMARK  Name = 
REMARK  6 active torsions:
REMARK  status: ('A' for Active; 'I' for Inactive)
REMARK    1  A    between atoms: C_1  and  N_2
REMARK    2  A    between atoms: N_2  and  C_3
REMARK    3  A    between atoms: C_3  and  C_4
REMARK    4  A    between atoms: C_7  and  C_8
REMARK    5  A    between atoms: C_8  and  N_9
REMARK    6  A    between atoms: C_18  and  C_20
REMARK                            x       y       z     vdW  Elec       q    Type
REMARK                         _______ _______ _______ _____ _____    ______ ____
ROOT
ATOM      1  C   UNL     1      49.824   9.121  14.322  0.00  0.00    +0.000 C 
ENDROOT
BRANCH   1   2
ATOM      2  C   UNL     1      48.643   8.559  13.578  0.00  0.00    +0.000 A 
ATOM      3  C   UNL     1      48.816   7.736  12.459  0.00  0.00    +0.000 A 
ATOM      4  C   UNL     1      47.705   7.264  11.759  0.00  0.00    +0.000 A 
ATOM      5  C   UNL     1      46.410   7.631  12.150  0.00  0.00    +0.000 A 
ATOM      6  C   UNL     1      46.235   8.415  13.296  0.00  0.00    +0.000 A 
ATOM      7  C   UNL     1      47.343   8.872  14.005  0.00  0.00    +0.000 A 
BRANCH   5   8
ATOM      8  C   UNL     1      45.211   7.211  11.337  0.00  0.00    +0.000 C 
BRANCH   8   9
ATOM      9  N   UNL     1      45.577   6.128  10.435  0.00  0.00    +0.000 N 
ATOM     10  C   UNL     1      44.835   4.954  10.656  0.00  0.00    +0.000 A 
ATOM     11  C   UNL     1      45.084   3.858   9.853  0.00  0.00    +0.000 A 
ATOM     12  C   UNL     1      44.317   2.737  10.080  0.00  0.00    +0.000 A 
ATOM     13  N   UNL     1      43.368   2.666  11.024  0.00  0.00    +0.000 NA
ATOM     14  C   UNL     1      43.195   3.781  11.743  0.00  0.00    +0.000 A 
ATOM     15  N   UNL     1      43.878   4.927  11.600  0.00  0.00    +0.000 NA
ATOM     16  H   UNL     1      46.569   5.920  10.478  0.00  0.00    +0.000 HD
ENDBRANCH   8   9
ENDBRANCH   5   8
ENDBRANCH   1   2
BRANCH   1  18
ATOM     17  C   UNL     1      52.193   8.311  13.951  0.00  0.00    +0.000 C 
ATOM     18  N   UNL     1      50.906   8.187  14.634  0.00  0.00    +0.000 N 
ATOM     19  C   UNL     1      50.920   7.350  15.757  0.00  0.00    +0.000 C 
ATOM     20  O   UNL     1      51.817   6.518  15.909  0.00  0.00    +0.000 OA
BRANCH  19  21
ATOM     21  C   UNL     1      49.941   7.539  16.843  0.00  0.00    +0.000 A 
ATOM     22  C   UNL     1      50.065   8.446  17.882  0.00  0.00    +0.000 A 
ATOM     23  S   UNL     1      48.944   8.207  19.148  0.00  0.00    +0.000 S 
ATOM     24  C   UNL     1      48.299   6.837  18.378  0.00  0.00    +0.000 A 
ATOM     25  N   UNL     1      47.383   6.049  18.998  0.00  0.00    +0.000 NA
ATOM     26  C   UNL     1      46.993   5.041  18.291  0.00  0.00    +0.000 A 
ATOM     27  N   UNL     1      47.395   4.780  17.005  0.00  0.00    +0.000 N 
ATOM     28  C   UNL     1      48.240   5.612  16.300  0.00  0.00    +0.000 A 
ATOM     29  O   UNL     1      48.383   5.500  15.088  0.00  0.00    +0.000 OA
ATOM     30  C   UNL     1      48.824   6.665  17.110  0.00  0.00    +0.000 A 
ATOM     31  H   UNL     1      46.962   4.043  16.471  0.00  0.00    +0.000 HD
ENDBRANCH  19  21
ENDBRANCH   1  18
TORSDOF 5
ENDMDL
MODEL 6
REMARK VINA RESULT:    -6.565      3.152      9.468
REMARK INTER + INTRA:          -9.297
REMARK INTER:                  -8.452
REMARK INTRA:                  -0.845
REMARK UNBOUND:                -0.813
REMARK  Name = 
REMARK  6 active torsions:
REMARK  status: ('A' for Active; 'I' for Inactive)
REMARK    1  A    between atoms: C_1  and  N_2
REMARK    2  A    between atoms: N_2  and  C_3
REMARK    3  A    between atoms: C_3  and  C_4
REMARK    4  A    between atoms: C_7  and  C_8
REMARK    5  A    between atoms: C_8  and  N_9
REMARK    6  A    between atoms: C_18  and  C_20
REMARK                            x       y       z     vdW  Elec       q    Type
REMARK                         _______ _______ _______ _____ _____    ______ ____
ROOT
ATOM      1  C   UNL     1      47.140   5.212  12.829  0.00  0.00    +0.000 C 
ENDROOT
BRANCH   1   2
ATOM      2  C   UNL     1      47.459   5.144  14.298  0.00  0.00    +0.000 A 
ATOM      3  C   UNL     1      48.252   6.119  14.914  0.00  0.00    +0.000 A 
ATOM      4  C   UNL     1      48.570   6.009  16.268  0.00  0.00    +0.000 A 
ATOM      5  C   UNL     1      48.125   4.911  17.016  0.00  0.00    +0.000 A 
ATOM      6  C   UNL     1      47.293   3.961  16.412  0.00  0.00    +0.000 A 
ATOM      7  C   UNL     1      46.960   4.079  15.066  0.00  0.00    +0.000 A 
BRANCH   5   8
ATOM      8  C   UNL     1      48.552   4.732  18.452  0.00  0.00    +0.000 C 
BRANCH   8   9
ATOM      9  N   UNL     1      47.589   5.368  19.339  0.00  0.00    +0.000 N 
ATOM     10  C   UNL     1      48.161   6.370  20.144  0.00  0.00    +0.000 A 
ATOM     11  C   UNL     1      47.343   7.054  21.021  0.00  0.00    +0.000 A 
ATOM     12  C   UNL     1      47.934   8.049  21.770  0.00  0.00    +0.000 A 
ATOM     13  N   UNL     1      49.234   8.366  21.688  0.00  0.00    +0.000 NA
ATOM     14  C   UNL     1      49.939   7.654  20.804  0.00  0.00    +0.000 A 
ATOM     15  N   UNL     1      49.465   6.673  20.020  0.00  0.00    +0.000 NA
ATOM     16  H   UNL     1      47.110   4.691  19.924  0.00  0.00    +0.000 HD
ENDBRANCH   8   9
ENDBRANCH   5   8
ENDBRANCH   1   2
BRANCH   1  18
ATOM     17  C   UNL     1      47.201   7.643  12.127  0.00  0.00    +0.000 C 
ATOM     18  N   UNL     1      46.446   6.413  12.365  0.00  0.00    +0.000 N 
ATOM     19  C   UNL     1      45.148   6.415  11.839  0.00  0.00    +0.000 C 
ATOM     20  O   UNL     1      44.587   7.475  11.555  0.00  0.00    +0.000 OA
BRANCH  19  21
ATOM     21  C   UNL     1      44.481   5.147  11.487  0.00  0.00    +0.000 A 
ATOM     22  C   UNL     1      43.617   4.443  12.310  0.00  0.00    +0.000 A 
ATOM     23  S   UNL     1      43.266   2.866  11.757  0.00  0.00    +0.000 S 
ATOM     24  C   UNL     1      44.314   3.049  10.432  0.00  0.00    +0.000 A 
ATOM     25  N   UNL     1      44.600   2.004   9.614  0.00  0.00    +0.000 NA
ATOM     26  C   UNL     1      45.418   2.295   8.657  0.00  0.00    +0.000 A 
ATOM     27  N   UNL     1      45.931   3.544   8.414  0.00  0.00    +0.000 N 
ATOM     28  C   UNL     1      45.583   4.654   9.154  0.00  0.00    +0.000 A 
ATOM     29  O   UNL     1      45.847   5.788   8.769  0.00  0.00    +0.000 OA
ATOM     30  C   UNL     1      44.794   4.342  10.332  0.00  0.00    +0.000 A 
ATOM     31  H   UNL     1      46.469   3.724   7.581  0.00  0.00    +0.000 HD
ENDBRANCH  19  21
ENDBRANCH   1  18
TORSDOF 5
ENDMDL
MODEL 7
REMARK VINA RESULT:    -6.126      3.496      5.669
REMARK INTER + INTRA:          -8.729
REMARK INTER:                  -7.511
REMARK INTRA:                  -1.218
REMARK UNBOUND:                -0.813
REMARK  Name = 
REMARK  6 active torsions:
REMARK  status: ('A' for Active; 'I' for Inactive)
REMARK    1  A    between atoms: C_1  and  N_2
REMARK    2  A    between atoms: N_2  and  C_3
REMARK    3  A    between atoms: C_3  and  C_4
REMARK    4  A    between atoms: C_7  and  C_8
REMARK    5  A    between atoms: C_8  and  N_9
REMARK    6  A    between atoms: C_18  and  C_20
REMARK                            x       y       z     vdW  Elec       q    Type
REMARK                         _______ _______ _______ _____ _____    ______ ____
ROOT
ATOM      1  C   UNL     1      49.124   4.631  19.714  0.00  0.00    +0.000 C 
ENDROOT
BRANCH   1   2
ATOM      2  C   UNL     1      48.649   4.466  18.295  0.00  0.00    +0.000 A 
ATOM      3  C   UNL     1      48.563   5.560  17.427  0.00  0.00    +0.000 A 
ATOM      4  C   UNL     1      48.076   5.388  16.131  0.00  0.00    +0.000 A 
ATOM      5  C   UNL     1      47.643   4.128  15.695  0.00  0.00    +0.000 A 
ATOM      6  C   UNL     1      47.773   3.025  16.548  0.00  0.00    +0.000 A 
ATOM      7  C   UNL     1      48.275   3.193  17.835  0.00  0.00    +0.000 A 
BRANCH   5   8
ATOM      8  C   UNL     1      47.020   3.956  14.333  0.00  0.00    +0.000 C 
BRANCH   8   9
ATOM      9  N   UNL     1      46.123   5.067  14.053  0.00  0.00    +0.000 N 
ATOM     10  C   UNL     1      45.041   4.708  13.228  0.00  0.00    +0.000 A 
ATOM     11  C   UNL     1      44.114   5.677  12.901  0.00  0.00    +0.000 A 
ATOM     12  C   UNL     1      43.054   5.279  12.116  0.00  0.00    +0.000 A 
ATOM     13  N   UNL     1      42.893   4.026  11.666  0.00  0.00    +0.000 NA
ATOM     14  C   UNL     1      43.838   3.159  12.045  0.00  0.00    +0.000 A 
ATOM     15  N   UNL     1      44.903   3.437  12.812  0.00  0.00    +0.000 NA
ATOM     16  H   UNL     1      46.615   5.858  13.648  0.00  0.00    +0.000 HD
ENDBRANCH   8   9
ENDBRANCH   5   8
ENDBRANCH   1   2
BRANCH   1  18
ATOM     17  C   UNL     1      51.597   4.501  19.189  0.00  0.00    +0.000 C 
ATOM     18  N   UNL     1      50.485   5.139  19.893  0.00  0.00    +0.000 N 
ATOM     19  C   UNL     1      50.789   6.383  20.459  0.00  0.00    +0.000 C 
ATOM     20  O   UNL     1      51.959   6.709  20.668  0.00  0.00    +0.000 OA
BRANCH  19  21
ATOM     21  C   UNL     1      49.727   7.380  20.689  0.00  0.00    +0.000 A 
ATOM     22  C   UNL     1      48.887   7.414  21.790  0.00  0.00    +0.000 A 
ATOM     23  S   UNL     1      47.562   8.478  21.617  0.00  0.00    +0.000 S 
ATOM     24  C   UNL     1      48.033   8.878  20.034  0.00  0.00    +0.000 A 
ATOM     25  N   UNL     1      47.243   9.646  19.240  0.00  0.00    +0.000 NA
ATOM     26  C   UNL     1      47.730   9.857  18.063  0.00  0.00    +0.000 A 
ATOM     27  N   UNL     1      48.954   9.416  17.628  0.00  0.00    +0.000 N 
ATOM     28  C   UNL     1      49.833   8.725  18.436  0.00  0.00    +0.000 A 
ATOM     29  O   UNL     1      51.006   8.566  18.116  0.00  0.00    +0.000 OA
ATOM     30  C   UNL     1      49.260   8.331  19.710  0.00  0.00    +0.000 A 
ATOM     31  H   UNL     1      49.322   9.717  16.738  0.00  0.00    +0.000 HD
ENDBRANCH  19  21
ENDBRANCH   1  18
TORSDOF 5
ENDMDL
MODEL 8
REMARK VINA RESULT:    -6.096      2.834      4.172
REMARK INTER + INTRA:          -8.691
REMARK INTER:                  -7.862
REMARK INTRA:                  -0.829
REMARK UNBOUND:                -0.813
REMARK  Name = 
REMARK  6 active torsions:
REMARK  status: ('A' for Active; 'I' for Inactive)
REMARK    1  A    between atoms: C_1  and  N_2
REMARK    2  A    between atoms: N_2  and  C_3
REMARK    3  A    between atoms: C_3  and  C_4
REMARK    4  A    between atoms: C_7  and  C_8
REMARK    5  A    between atoms: C_8  and  N_9
REMARK    6  A    between atoms: C_18  and  C_20
REMARK                            x       y       z     vdW  Elec       q    Type
REMARK                         _______ _______ _______ _____ _____    ______ ____
ROOT
ATOM      1  C   UNL     1      50.680   8.599  13.222  0.00  0.00    +0.000 C 
ENDROOT
BRANCH   1   2
ATOM      2  C   UNL     1      49.271   8.201  12.872  0.00  0.00    +0.000 A 
ATOM      3  C   UNL     1      48.874   6.860  12.879  0.00  0.00    +0.000 A 
ATOM      4  C   UNL     1      47.574   6.513  12.507  0.00  0.00    +0.000 A 
ATOM      5  C   UNL     1      46.666   7.498  12.096  0.00  0.00    +0.000 A 
ATOM      6  C   UNL     1      47.049   8.844  12.135  0.00  0.00    +0.000 A 
ATOM      7  C   UNL     1      48.339   9.192  12.523  0.00  0.00    +0.000 A 
BRANCH   5   8
ATOM      8  C   UNL     1      45.295   7.120  11.594  0.00  0.00    +0.000 C 
BRANCH   8   9
ATOM      9  N   UNL     1      45.410   6.136  10.527  0.00  0.00    +0.000 N 
ATOM     10  C   UNL     1      44.730   4.938  10.808  0.00  0.00    +0.000 A 
ATOM     11  C   UNL     1      44.757   3.930   9.864  0.00  0.00    +0.000 A 
ATOM     12  C   UNL     1      44.054   2.784  10.162  0.00  0.00    +0.000 A 
ATOM     13  N   UNL     1      43.369   2.609  11.302  0.00  0.00    +0.000 NA
ATOM     14  C   UNL     1      43.396   3.644  12.147  0.00  0.00    +0.000 A 
ATOM     15  N   UNL     1      44.038   4.806  11.953  0.00  0.00    +0.000 NA
ATOM     16  H   UNL     1      46.379   5.936  10.301  0.00  0.00    +0.000 HD
ENDBRANCH   8   9
ENDBRANCH   5   8
ENDBRANCH   1   2
BRANCH   1  18
ATOM     17  C   UNL     1      50.211  11.022  13.783  0.00  0.00    +0.000 C 
ATOM     18  N   UNL     1      50.833   9.743  14.122  0.00  0.00    +0.000 N 
ATOM     19  C   UNL     1      51.284   9.645  15.444  0.00  0.00    +0.000 C 
ATOM     20  O   UNL     1      51.480  10.659  16.117  0.00  0.00    +0.000 OA
BRANCH  19  21
ATOM     21  C   UNL     1      51.402   8.330  16.099  0.00  0.00    +0.000 A 
ATOM     22  C   UNL     1      52.588   7.645  16.311  0.00  0.00    +0.000 A 
ATOM     23  S   UNL     1      52.372   6.021  16.793  0.00  0.00    +0.000 S 
ATOM     24  C   UNL     1      50.684   6.161  16.669  0.00  0.00    +0.000 A 
ATOM     25  N   UNL     1      49.878   5.077  16.806  0.00  0.00    +0.000 NA
ATOM     26  C   UNL     1      48.620   5.338  16.677  0.00  0.00    +0.000 A 
ATOM     27  N   UNL     1      48.094   6.590  16.476  0.00  0.00    +0.000 N 
ATOM     28  C   UNL     1      48.867   7.731  16.437  0.00  0.00    +0.000 A 
ATOM     29  O   UNL     1      48.365   8.847  16.513  0.00  0.00    +0.000 OA
ATOM     30  C   UNL     1      50.294   7.463  16.419  0.00  0.00    +0.000 A 
ATOM     31  H   UNL     1      47.097   6.737  16.502  0.00  0.00    +0.000 HD
ENDBRANCH  19  21
ENDBRANCH   1  18
TORSDOF 5
ENDMDL
MODEL 9
REMARK VINA RESULT:    -6.089      2.179      3.537
REMARK INTER + INTRA:          -8.682
REMARK INTER:                  -7.585
REMARK INTRA:                  -1.097
REMARK UNBOUND:                -0.813
REMARK  Name = 
REMARK  6 active torsions:
REMARK  status: ('A' for Active; 'I' for Inactive)
REMARK    1  A    between atoms: C_1  and  N_2
REMARK    2  A    between atoms: N_2  and  C_3
REMARK    3  A    between atoms: C_3  and  C_4
REMARK    4  A    between atoms: C_7  and  C_8
REMARK    5  A    between atoms: C_8  and  N_9
REMARK    6  A    between atoms: C_18  and  C_20
REMARK                            x       y       z     vdW  Elec       q    Type
REMARK                         _______ _______ _______ _____ _____    ______ ____
ROOT
ATOM      1  C   UNL     1      49.251   8.308  15.399  0.00  0.00    +0.000 C 
ENDROOT
BRANCH   1   2
ATOM      2  C   UNL     1      48.222   7.841  14.405  0.00  0.00    +0.000 A 
ATOM      3  C   UNL     1      48.192   6.515  13.960  0.00  0.00    +0.000 A 
ATOM      4  C   UNL     1      47.256   6.118  13.004  0.00  0.00    +0.000 A 
ATOM      5  C   UNL     1      46.358   7.047  12.461  0.00  0.00    +0.000 A 
ATOM      6  C   UNL     1      46.356   8.362  12.940  0.00  0.00    +0.000 A 
ATOM      7  C   UNL     1      47.278   8.754  13.907  0.00  0.00    +0.000 A 
BRANCH   5   8
ATOM      8  C   UNL     1      45.414   6.649  11.353  0.00  0.00    +0.000 C 
BRANCH   8   9
ATOM      9  N   UNL     1      44.858   5.331  11.623  0.00  0.00    +0.000 N 
ATOM     10  C   UNL     1      44.898   4.478  10.505  0.00  0.00    +0.000 A 
ATOM     11  C   UNL     1      44.408   3.194  10.641  0.00  0.00    +0.000 A 
ATOM     12  C   UNL     1      44.491   2.380   9.533  0.00  0.00    +0.000 A 
ATOM     13  N   UNL     1      45.009   2.773   8.361  0.00  0.00    +0.000 NA
ATOM     14  C   UNL     1      45.465   4.029   8.332  0.00  0.00    +0.000 A 
ATOM     15  N   UNL     1      45.442   4.902   9.351  0.00  0.00    +0.000 NA
ATOM     16  H   UNL     1      43.909   5.387  11.979  0.00  0.00    +0.000 HD
ENDBRANCH   8   9
ENDBRANCH   5   8
ENDBRANCH   1   2
BRANCH   1  18
ATOM     17  C   UNL     1      51.699   7.819  14.983  0.00  0.00    +0.000 C 
ATOM     18  N   UNL     1      50.419   7.446  15.584  0.00  0.00    +0.000 N 
ATOM     19  C   UNL     1      50.499   6.429  16.543  0.00  0.00    +0.000 C 
ATOM     20  O   UNL     1      51.476   5.678  16.582  0.00  0.00    +0.000 OA
BRANCH  19  21
ATOM     21  C   UNL     1      49.484   6.322  17.607  0.00  0.00    +0.000 A 
ATOM     22  C   UNL     1      48.419   5.437  17.611  0.00  0.00    +0.000 A 
ATOM     23  S   UNL     1      47.246   5.771  18.806  0.00  0.00    +0.000 S 
ATOM     24  C   UNL     1      48.092   7.153  19.315  0.00  0.00    +0.000 A 
ATOM     25  N   UNL     1      47.560   8.006  20.229  0.00  0.00    +0.000 NA
ATOM     26  C   UNL     1      48.317   9.014  20.508  0.00  0.00    +0.000 A 
ATOM     27  N   UNL     1      49.575   9.218  19.999  0.00  0.00    +0.000 N 
ATOM     28  C   UNL     1      50.196   8.324  19.153  0.00  0.00    +0.000 A 
ATOM     29  O   UNL     1      51.396   8.395  18.916  0.00  0.00    +0.000 OA
ATOM     30  C   UNL     1      49.321   7.262  18.690  0.00  0.00    +0.000 A 
ATOM     31  H   UNL     1      50.156   9.964  20.351  0.00  0.00    +0.000 HD
ENDBRANCH  19  21
ENDBRANCH   1  18
TORSDOF 5
ENDMDL
