MODEL 1
REMARK VINA RESULT:    -7.985      0.000      0.000
REMARK INTER + INTRA:         -12.548
REMARK INTER:                 -11.252
REMARK INTRA:                  -1.296
REMARK UNBOUND:                -1.296
REMARK  Name = 
REMARK  8 active torsions:
REMARK  status: ('A' for Active; 'I' for Inactive)
REMARK    1  A    between atoms: C_1  and  N_2
REMARK    2  A    between atoms: N_2  and  C_3
REMARK    3  A    between atoms: N_2  and  C_10
REMARK    4  A    between atoms: C_3  and  C_4
REMARK    5  A    between atoms: C_10  and  C_11
REMARK    6  A    between atoms: C_14  and  C_15
REMARK    7  A    between atoms: C_15  and  N_16
REMARK    8  A    between atoms: C_17  and  C_19
REMARK                            x       y       z     vdW  Elec       q    Type
REMARK                         _______ _______ _______ _____ _____    ______ ____
ROOT
ATOM      1  C   UNL     1      44.909   5.831  11.014  0.00  0.00    +0.000 A 
ATOM      2  C   UNL     1      44.296   6.635  11.986  0.00  0.00    +0.000 A 
ATOM      3  C   UNL     1      45.062   7.472  12.807  0.00  0.00    +0.000 A 
ATOM      4  C   UNL     1      46.455   7.532  12.664  0.00  0.00    +0.000 A 
ATOM      5  C   UNL     1      47.065   6.737  11.686  0.00  0.00    +0.000 A 
ATOM      6  C   UNL     1      46.301   5.898  10.868  0.00  0.00    +0.000 A 
ENDROOT
BRANCH   1   7
ATOM      7  C   UNL     1      44.102   4.842  10.192  0.00  0.00    +0.000 C 
BRANCH   7   9
ATOM      8  C   UNL     1      43.743   2.768  11.392  0.00  0.00    +0.000 C 
ATOM      9  N   UNL     1      44.519   3.431  10.334  0.00  0.00    +0.000 NA
BRANCH   9  10
ATOM     10  C   UNL     1      44.316   2.686   9.073  0.00  0.00    +0.000 C 
BRANCH  10  11
ATOM     11  C   UNL     1      45.574   2.462   8.264  0.00  0.00    +0.000 A 
ATOM     12  C   UNL     1      46.131   1.187   8.134  0.00  0.00    +0.000 A 
ATOM     13  C   UNL     1      47.298   1.045   7.398  0.00  0.00    +0.000 A 
ATOM     14  N   UNL     1      47.934   2.067   6.785  0.00  0.00    +0.000 NA
ATOM     15  C   UNL     1      47.375   3.288   6.914  0.00  0.00    +0.000 A 
ATOM     16  C   UNL     1      46.212   3.533   7.628  0.00  0.00    +0.000 A 
ENDBRANCH  10  11
ENDBRANCH   9  10
ENDBRANCH   7   9
ENDBRANCH   1   7
BRANCH   4  17
ATOM     17  C   UNL     1      47.293   8.380  13.586  0.00  0.00    +0.000 C 
BRANCH  17  18
ATOM     18  N   UNL     1      47.656   7.649  14.777  0.00  0.00    +0.000 N 
ATOM     19  C   UNL     1      48.841   6.965  14.861  0.00  0.00    +0.000 C 
ATOM     20  O   UNL     1      49.668   6.985  13.953  0.00  0.00    +0.000 OA
ATOM     21  H   UNL     1      46.912   7.448  15.438  0.00  0.00    +0.000 HD
BRANCH  19  22
ATOM     22  C   UNL     1      49.103   6.249  16.117  0.00  0.00    +0.000 A 
ATOM     23  C   UNL     1      50.112   6.692  16.963  0.00  0.00    +0.000 A 
ATOM     24  S   UNL     1      50.265   5.773  18.390  0.00  0.00    +0.000 S 
ATOM     25  C   UNL     1      49.020   4.718  17.909  0.00  0.00    +0.000 A 
ATOM     26  N   UNL     1      48.661   3.663  18.686  0.00  0.00    +0.000 NA
ATOM     27  C   UNL     1      47.720   2.928  18.191  0.00  0.00    +0.000 A 
ATOM     28  N   UNL     1      47.105   3.161  16.988  0.00  0.00    +0.000 N 
ATOM     29  C   UNL     1      47.418   4.227  16.180  0.00  0.00    +0.000 A 
ATOM     30  O   UNL     1      46.823   4.424  15.127  0.00  0.00    +0.000 OA
ATOM     31  C   UNL     1      48.479   5.078  16.685  0.00  0.00    +0.000 A 
ATOM     32  H   UNL     1      46.368   2.554  16.660  0.00  0.00    +0.000 HD
ENDBRANCH  19  22
ENDBRANCH  17  18
ENDBRANCH   4  17
TORSDOF 7
ENDMDL
MODEL 2
REMARK VINA RESULT:    -7.499      1.939      2.237
REMARK INTER + INTRA:         -11.863
REMARK INTER:                 -11.152
REMARK INTRA:                  -0.711
REMARK UNBOUND:                -1.296
REMARK  Name = 
REMARK  8 active torsions:
REMARK  status: ('A' for Active; 'I' for Inactive)
REMARK    1  A    between atoms: C_1  and  N_2
REMARK    2  A    between atoms: N_2  and  C_3
REMARK    3  A    between atoms: N_2  and  C_10
REMARK    4  A    between atoms: C_3  and  C_4
REMARK    5  A    between atoms: C_10  and  C_11
REMARK    6  A    between atoms: C_14  and  C_15
REMARK    7  A    between atoms: C_15  and  N_16
REMARK    8  A    between atoms: C_17  and  C_19
REMARK                            x       y       z     vdW  Elec       q    Type
REMARK                         _______ _______ _______ _____ _____    ______ ____
ROOT
ATOM      1  C   UNL     1      45.527   5.456  11.689  0.00  0.00    +0.000 A 
ATOM      2  C   UNL     1      45.764   4.913  12.960  0.00  0.00    +0.000 A 
ATOM      3  C   UNL     1      46.825   5.377  13.749  0.00  0.00    +0.000 A 
ATOM      4  C   UNL     1      47.662   6.401  13.287  0.00  0.00    +0.000 A 
ATOM      5  C   UNL     1      47.418   6.951  12.022  0.00  0.00    +0.000 A 
ATOM      6  C   UNL     1      46.361   6.486  11.233  0.00  0.00    +0.000 A 
ENDROOT
BRANCH   1   7
ATOM      7  C   UNL     1      44.448   4.890  10.783  0.00  0.00    +0.000 C 
BRANCH   7   9
ATOM      8  C   UNL     1      43.615   2.662  11.243  0.00  0.00    +0.000 C 
ATOM      9  N   UNL     1      44.589   3.451  10.475  0.00  0.00    +0.000 NA
BRANCH   9  10
ATOM     10  C   UNL     1      44.366   3.190   9.036  0.00  0.00    +0.000 C 
BRANCH  10  11
ATOM     11  C   UNL     1      45.577   2.665   8.298  0.00  0.00    +0.000 A 
ATOM     12  C   UNL     1      45.891   1.303   8.304  0.00  0.00    +0.000 A 
ATOM     13  C   UNL     1      47.025   0.881   7.627  0.00  0.00    +0.000 A 
ATOM     14  N   UNL     1      47.850   1.707   6.947  0.00  0.00    +0.000 NA
ATOM     15  C   UNL     1      47.524   3.016   6.944  0.00  0.00    +0.000 A 
ATOM     16  C   UNL     1      46.413   3.536   7.591  0.00  0.00    +0.000 A 
ENDBRANCH  10  11
ENDBRANCH   9  10
ENDBRANCH   7   9
ENDBRANCH   1   7
BRANCH   4  17
ATOM     17  C   UNL     1      48.845   6.861  14.100  0.00  0.00    +0.000 C 
BRANCH  17  18
ATOM     18  N   UNL     1      48.472   7.087  15.477  0.00  0.00    +0.000 N 
ATOM     19  C   UNL     1      49.169   6.512  16.508  0.00  0.00    +0.000 C 
ATOM     20  O   UNL     1      50.168   5.825  16.313  0.00  0.00    +0.000 OA
ATOM     21  H   UNL     1      47.545   7.467  15.647  0.00  0.00    +0.000 HD
BRANCH  19  22
ATOM     22  C   UNL     1      48.696   6.803  17.868  0.00  0.00    +0.000 A 
ATOM     23  C   UNL     1      48.300   8.094  18.197  0.00  0.00    +0.000 A 
ATOM     24  S   UNL     1      47.749   8.257  19.802  0.00  0.00    +0.000 S 
ATOM     25  C   UNL     1      48.063   6.618  20.133  0.00  0.00    +0.000 A 
ATOM     26  N   UNL     1      47.836   6.100  21.369  0.00  0.00    +0.000 NA
ATOM     27  C   UNL     1      48.141   4.850  21.490  0.00  0.00    +0.000 A 
ATOM     28  N   UNL     1      48.652   4.073  20.482  0.00  0.00    +0.000 N 
ATOM     29  C   UNL     1      48.877   4.547  19.212  0.00  0.00    +0.000 A 
ATOM     30  O   UNL     1      49.302   3.815  18.326  0.00  0.00    +0.000 OA
ATOM     31  C   UNL     1      48.561   5.950  19.025  0.00  0.00    +0.000 A 
ATOM     32  H   UNL     1      48.861   3.098  20.639  0.00  0.00    +0.000 HD
ENDBRANCH  19  22
ENDBRANCH  17  18
ENDBRANCH   4  17
TORSDOF 7
ENDMDL
MODEL 3
REMARK VINA RESULT:    -7.152      2.774      7.907
REMARK INTER + INTRA:         -11.375
REMARK INTER:                  -9.569
REMARK INTRA:                  -1.806
REMARK UNBOUND:                -1.296
REMARK  Name = 
REMARK  8 active torsions:
REMARK  status: ('A' for Active; 'I' for Inactive)
REMARK    1  A    between atoms: C_1  and  N_2
REMARK    2  A    between atoms: N_2  and  C_3
REMARK    3  A    between atoms: N_2  and  C_10
REMARK    4  A    between atoms: C_3  and  C_4
REMARK    5  A    between atoms: C_10  and  C_11
REMARK    6  A    between atoms: C_14  and  C_15
REMARK    7  A    between atoms: C_15  and  N_16
REMARK    8  A    between atoms: C_17  and  C_19
REMARK                            x       y       z     vdW  Elec       q    Type
REMARK                         _______ _______ _______ _____ _____    ______ ____
ROOT
ATOM      1  C   UNL     1      49.310   8.150  15.989  0.00  0.00    +0.000 A 
ATOM      2  C   UNL     1      50.003   7.402  15.026  0.00  0.00    +0.000 A 
ATOM      3  C   UNL     1      49.534   7.322  13.709  0.00  0.00    +0.000 A 
ATOM      4  C   UNL     1      48.369   7.999  13.325  0.00  0.00    +0.000 A 
ATOM      5  C   UNL     1      47.683   8.755  14.284  0.00  0.00    +0.000 A 
ATOM      6  C   UNL     1      48.149   8.832  15.600  0.00  0.00    +0.000 A 
ENDROOT
BRANCH   1   7
ATOM      7  C   UNL     1      49.748   8.157  17.443  0.00  0.00    +0.000 C 
BRANCH   7   9
ATOM      8  C   UNL     1      50.421   6.930  19.420  0.00  0.00    +0.000 C 
ATOM      9  N   UNL     1      49.893   6.819  18.053  0.00  0.00    +0.000 NA
BRANCH   9  10
ATOM     10  C   UNL     1      48.592   6.118  18.114  0.00  0.00    +0.000 C 
BRANCH  10  11
ATOM     11  C   UNL     1      48.543   4.816  17.345  0.00  0.00    +0.000 A 
ATOM     12  C   UNL     1      49.345   3.732  17.710  0.00  0.00    +0.000 A 
ATOM     13  C   UNL     1      49.274   2.570  16.956  0.00  0.00    +0.000 A 
ATOM     14  N   UNL     1      48.464   2.414  15.886  0.00  0.00    +0.000 NA
ATOM     15  C   UNL     1      47.689   3.468  15.556  0.00  0.00    +0.000 A 
ATOM     16  C   UNL     1      47.689   4.670  16.246  0.00  0.00    +0.000 A 
ENDBRANCH  10  11
ENDBRANCH   9  10
ENDBRANCH   7   9
ENDBRANCH   1   7
BRANCH   4  17
ATOM     17  C   UNL     1      47.821   7.867  11.927  0.00  0.00    +0.000 C 
BRANCH  17  18
ATOM     18  N   UNL     1      47.073   6.641  11.777  0.00  0.00    +0.000 N 
ATOM     19  C   UNL     1      45.702   6.640  11.750  0.00  0.00    +0.000 C 
ATOM     20  O   UNL     1      45.051   7.681  11.799  0.00  0.00    +0.000 OA
ATOM     21  H   UNL     1      47.572   5.773  11.947  0.00  0.00    +0.000 HD
BRANCH  19  22
ATOM     22  C   UNL     1      45.045   5.334  11.602  0.00  0.00    +0.000 A 
ATOM     23  C   UNL     1      44.358   4.785  12.678  0.00  0.00    +0.000 A 
ATOM     24  S   UNL     1      43.627   3.285  12.333  0.00  0.00    +0.000 S 
ATOM     25  C   UNL     1      44.240   3.290  10.746  0.00  0.00    +0.000 A 
ATOM     26  N   UNL     1      44.001   2.251   9.903  0.00  0.00    +0.000 NA
ATOM     27  C   UNL     1      44.546   2.371   8.737  0.00  0.00    +0.000 A 
ATOM     28  N   UNL     1      45.305   3.442   8.341  0.00  0.00    +0.000 N 
ATOM     29  C   UNL     1      45.554   4.524   9.150  0.00  0.00    +0.000 A 
ATOM     30  O   UNL     1      46.209   5.479   8.751  0.00  0.00    +0.000 OA
ATOM     31  C   UNL     1      44.974   4.434  10.476  0.00  0.00    +0.000 A 
ATOM     32  H   UNL     1      45.696   3.480   7.411  0.00  0.00    +0.000 HD
ENDBRANCH  19  22
ENDBRANCH  17  18
ENDBRANCH   4  17
TORSDOF 7
ENDMDL
MODEL 4
REMARK VINA RESULT:    -7.110      3.218      7.793
REMARK INTER + INTRA:         -11.315
REMARK INTER:                  -9.896
REMARK INTRA:                  -1.420
REMARK UNBOUND:                -1.296
REMARK  Name = 
REMARK  8 active torsions:
REMARK  status: ('A' for Active; 'I' for Inactive)
REMARK    1  A    between atoms: C_1  and  N_2
REMARK    2  A    between atoms: N_2  and  C_3
REMARK    3  A    between atoms: N_2  and  C_10
REMARK    4  A    between atoms: C_3  and  C_4
REMARK    5  A    between atoms: C_10  and  C_11
REMARK    6  A    between atoms: C_14  and  C_15
REMARK    7  A    between atoms: C_15  and  N_16
REMARK    8  A    between atoms: C_17  and  C_19
REMARK                            x       y       z     vdW  Elec       q    Type
REMARK                         _______ _______ _______ _____ _____    ______ ____
ROOT
ATOM      1  C   UNL     1      48.779   7.660  16.391  0.00  0.00    +0.000 A 
ATOM      2  C   UNL     1      48.946   6.614  15.472  0.00  0.00    +0.000 A 
ATOM      3  C   UNL     1      48.748   6.828  14.102  0.00  0.00    +0.000 A 
ATOM      4  C   UNL     1      48.392   8.095  13.623  0.00  0.00    +0.000 A 
ATOM      5  C   UNL     1      48.235   9.142  14.540  0.00  0.00    +0.000 A 
ATOM      6  C   UNL     1      48.429   8.928  15.908  0.00  0.00    +0.000 A 
ENDROOT
BRANCH   1   7
ATOM      7  C   UNL     1      48.887   7.415  17.886  0.00  0.00    +0.000 C 
BRANCH   7   9
ATOM      8  C   UNL     1      50.742   6.852  19.339  0.00  0.00    +0.000 C 
ATOM      9  N   UNL     1      49.852   6.366  18.275  0.00  0.00    +0.000 NA
BRANCH   9  10
ATOM     10  C   UNL     1      49.156   5.158  18.769  0.00  0.00    +0.000 C 
BRANCH  10  11
ATOM     11  C   UNL     1      49.297   3.943  17.880  0.00  0.00    +0.000 A 
ATOM     12  C   UNL     1      48.226   3.485  17.107  0.00  0.00    +0.000 A 
ATOM     13  C   UNL     1      48.406   2.354  16.327  0.00  0.00    +0.000 A 
ATOM     14  N   UNL     1      49.565   1.662  16.256  0.00  0.00    +0.000 NA
ATOM     15  C   UNL     1      50.590   2.125  17.000  0.00  0.00    +0.000 A 
ATOM     16  C   UNL     1      50.508   3.246  17.813  0.00  0.00    +0.000 A 
ENDBRANCH  10  11
ENDBRANCH   9  10
ENDBRANCH   7   9
ENDBRANCH   1   7
BRANCH   4  17
ATOM     17  C   UNL     1      48.113   8.320  12.159  0.00  0.00    +0.000 C 
BRANCH  17  18
ATOM     18  N   UNL     1      47.485   7.163  11.567  0.00  0.00    +0.000 N 
ATOM     19  C   UNL     1      46.122   7.071  11.450  0.00  0.00    +0.000 C 
ATOM     20  O   UNL     1      45.378   7.986  11.794  0.00  0.00    +0.000 OA
ATOM     21  H   UNL     1      48.054   6.326  11.475  0.00  0.00    +0.000 HD
BRANCH  19  22
ATOM     22  C   UNL     1      45.592   5.844  10.840  0.00  0.00    +0.000 A 
ATOM     23  C   UNL     1      45.816   5.595   9.491  0.00  0.00    +0.000 A 
ATOM     24  S   UNL     1      45.164   4.117   8.947  0.00  0.00    +0.000 S 
ATOM     25  C   UNL     1      44.516   3.776  10.483  0.00  0.00    +0.000 A 
ATOM     26  N   UNL     1      43.793   2.646  10.699  0.00  0.00    +0.000 NA
ATOM     27  C   UNL     1      43.338   2.523  11.903  0.00  0.00    +0.000 A 
ATOM     28  N   UNL     1      43.547   3.431  12.909  0.00  0.00    +0.000 N 
ATOM     29  C   UNL     1      44.289   4.575  12.743  0.00  0.00    +0.000 A 
ATOM     30  O   UNL     1      44.484   5.348  13.674  0.00  0.00    +0.000 OA
ATOM     31  C   UNL     1      44.814   4.768  11.405  0.00  0.00    +0.000 A 
ATOM     32  H   UNL     1      43.172   3.272  13.833  0.00  0.00    +0.000 HD
ENDBRANCH  19  22
ENDBRANCH  17  18
ENDBRANCH   4  17
TORSDOF 7
ENDMDL
MODEL 5
REMARK VINA RESULT:    -6.874      1.910      2.439
REMARK INTER + INTRA:         -10.982
REMARK INTER:                  -9.707
REMARK INTRA:                  -1.275
REMARK UNBOUND:                -1.296
REMARK  Name = 
REMARK  8 active torsions:
REMARK  status: ('A' for Active; 'I' for Inactive)
REMARK    1  A    between atoms: C_1  and  N_2
REMARK    2  A    between atoms: N_2  and  C_3
REMARK    3  A    between atoms: N_2  and  C_10
REMARK    4  A    between atoms: C_3  and  C_4
REMARK    5  A    between atoms: C_10  and  C_11
REMARK    6  A    between atoms: C_14  and  C_15
REMARK    7  A    between atoms: C_15  and  N_16
REMARK    8  A    between atoms: C_17  and  C_19
REMARK                            x       y       z     vdW  Elec       q    Type
REMARK                         _______ _______ _______ _____ _____    ______ ____
ROOT
ATOM      1  C   UNL     1      45.495   5.885  12.174  0.00  0.00    +0.000 A 
ATOM      2  C   UNL     1      45.675   7.199  11.719  0.00  0.00    +0.000 A 
ATOM      3  C   UNL     1      46.857   7.896  11.997  0.00  0.00    +0.000 A 
ATOM      4  C   UNL     1      47.889   7.289  12.724  0.00  0.00    +0.000 A 
ATOM      5  C   UNL     1      47.713   5.972  13.169  0.00  0.00    +0.000 A 
ATOM      6  C   UNL     1      46.531   5.277  12.895  0.00  0.00    +0.000 A 
ENDROOT
BRANCH   1   7
ATOM      7  C   UNL     1      44.178   5.157  11.970  0.00  0.00    +0.000 C 
BRANCH   7   9
ATOM      8  C   UNL     1      43.330   2.892  11.839  0.00  0.00    +0.000 C 
ATOM      9  N   UNL     1      44.289   3.855  11.280  0.00  0.00    +0.000 NA
BRANCH   9  10
ATOM     10  C   UNL     1      44.016   3.995   9.833  0.00  0.00    +0.000 C 
BRANCH  10  11
ATOM     11  C   UNL     1      45.079   3.405   8.933  0.00  0.00    +0.000 A 
ATOM     12  C   UNL     1      45.826   4.215   8.072  0.00  0.00    +0.000 A 
ATOM     13  C   UNL     1      46.773   3.618   7.254  0.00  0.00    +0.000 A 
ATOM     14  N   UNL     1      47.030   2.291   7.241  0.00  0.00    +0.000 NA
ATOM     15  C   UNL     1      46.307   1.528   8.087  0.00  0.00    +0.000 A 
ATOM     16  C   UNL     1      45.338   2.031   8.942  0.00  0.00    +0.000 A 
ENDBRANCH  10  11
ENDBRANCH   9  10
ENDBRANCH   7   9
ENDBRANCH   1   7
BRANCH   4  17
ATOM     17  C   UNL     1      49.137   8.053  13.085  0.00  0.00    +0.000 C 
BRANCH  17  18
ATOM     18  N   UNL     1      49.959   7.300  14.003  0.00  0.00    +0.000 N 
ATOM     19  C   UNL     1      50.766   7.927  14.917  0.00  0.00    +0.000 C 
ATOM     20  O   UNL     1      50.788   9.150  15.032  0.00  0.00    +0.000 OA
ATOM     21  H   UNL     1      50.113   6.320  13.786  0.00  0.00    +0.000 HD
BRANCH  19  22
ATOM     22  C   UNL     1      51.566   7.063  15.795  0.00  0.00    +0.000 A 
ATOM     23  C   UNL     1      52.951   7.176  15.795  0.00  0.00    +0.000 A 
ATOM     24  S   UNL     1      53.727   6.127  16.891  0.00  0.00    +0.000 S 
ATOM     25  C   UNL     1      52.243   5.449  17.375  0.00  0.00    +0.000 A 
ATOM     26  N   UNL     1      52.201   4.447  18.293  0.00  0.00    +0.000 NA
ATOM     27  C   UNL     1      51.013   4.007  18.550  0.00  0.00    +0.000 A 
ATOM     28  N   UNL     1      49.865   4.484  17.972  0.00  0.00    +0.000 N 
ATOM     29  C   UNL     1      49.857   5.509  17.057  0.00  0.00    +0.000 A 
ATOM     30  O   UNL     1      48.808   5.933  16.587  0.00  0.00    +0.000 OA
ATOM     31  C   UNL     1      51.168   6.032  16.724  0.00  0.00    +0.000 A 
ATOM     32  H   UNL     1      48.965   4.102  18.224  0.00  0.00    +0.000 HD
ENDBRANCH  19  22
ENDBRANCH  17  18
ENDBRANCH   4  17
TORSDOF 7
ENDMDL
MODEL 6
REMARK VINA RESULT:    -6.860      2.450      4.062
REMARK INTER + INTRA:         -10.963
REMARK INTER:                 -11.078
REMARK INTRA:                   0.116
REMARK UNBOUND:                -1.296
REMARK  Name = 
REMARK  8 active torsions:
REMARK  status: ('A' for Active; 'I' for Inactive)
REMARK    1  A    between atoms: C_1  and  N_2
REMARK    2  A    between atoms: N_2  and  C_3
REMARK    3  A    between atoms: N_2  and  C_10
REMARK    4  A    between atoms: C_3  and  C_4
REMARK    5  A    between atoms: C_10  and  C_11
REMARK    6  A    between atoms: C_14  and  C_15
REMARK    7  A    between atoms: C_15  and  N_16
REMARK    8  A    between atoms: C_17  and  C_19
REMARK                            x       y       z     vdW  Elec       q    Type
REMARK                         _______ _______ _______ _____ _____    ______ ____
ROOT
ATOM      1  C   UNL     1      45.316   3.365   8.319  0.00  0.00    +0.000 A 
ATOM      2  C   UNL     1      44.590   2.444   9.089  0.00  0.00    +0.000 A 
ATOM      3  C   UNL     1      44.179   2.766  10.388  0.00  0.00    +0.000 A 
ATOM      4  C   UNL     1      44.474   4.019  10.940  0.00  0.00    +0.000 A 
ATOM      5  C   UNL     1      45.190   4.942  10.167  0.00  0.00    +0.000 A 
ATOM      6  C   UNL     1      45.604   4.620   8.871  0.00  0.00    +0.000 A 
ENDROOT
BRANCH   1   7
ATOM      7  C   UNL     1      45.858   2.989   6.951  0.00  0.00    +0.000 C 
BRANCH   7   9
ATOM      8  C   UNL     1      46.985   0.898   7.426  0.00  0.00    +0.000 C 
ATOM      9  N   UNL     1      47.157   2.284   6.971  0.00  0.00    +0.000 NA
BRANCH   9  10
ATOM     10  C   UNL     1      47.770   2.259   5.625  0.00  0.00    +0.000 C 
BRANCH  10  11
ATOM     11  C   UNL     1      47.123   1.292   4.658  0.00  0.00    +0.000 A 
ATOM     12  C   UNL     1      46.247   1.742   3.666  0.00  0.00    +0.000 A 
ATOM     13  C   UNL     1      45.667   0.809   2.821  0.00  0.00    +0.000 A 
ATOM     14  N   UNL     1      45.902  -0.520   2.888  0.00  0.00    +0.000 NA
ATOM     15  C   UNL     1      46.759  -0.933   3.844  0.00  0.00    +0.000 A 
ATOM     16  C   UNL     1      47.388  -0.079   4.737  0.00  0.00    +0.000 A 
ENDBRANCH  10  11
ENDBRANCH   9  10
ENDBRANCH   7   9
ENDBRANCH   1   7
BRANCH   4  17
ATOM     17  C   UNL     1      44.093   4.351  12.360  0.00  0.00    +0.000 C 
BRANCH  17  18
ATOM     18  N   UNL     1      45.151   5.073  13.026  0.00  0.00    +0.000 N 
ATOM     19  C   UNL     1      46.217   4.420  13.589  0.00  0.00    +0.000 C 
ATOM     20  O   UNL     1      46.347   3.201  13.508  0.00  0.00    +0.000 OA
ATOM     21  H   UNL     1      44.960   6.037  13.284  0.00  0.00    +0.000 HD
BRANCH  19  22
ATOM     22  C   UNL     1      47.230   5.254  14.249  0.00  0.00    +0.000 A 
ATOM     23  C   UNL     1      47.877   6.250  13.526  0.00  0.00    +0.000 A 
ATOM     24  S   UNL     1      48.999   7.147  14.444  0.00  0.00    +0.000 S 
ATOM     25  C   UNL     1      48.697   6.208  15.830  0.00  0.00    +0.000 A 
ATOM     26  N   UNL     1      49.368   6.439  16.989  0.00  0.00    +0.000 NA
ATOM     27  C   UNL     1      49.061   5.638  17.955  0.00  0.00    +0.000 A 
ATOM     28  N   UNL     1      48.138   4.628  17.864  0.00  0.00    +0.000 N 
ATOM     29  C   UNL     1      47.419   4.372  16.721  0.00  0.00    +0.000 A 
ATOM     30  O   UNL     1      46.576   3.483  16.686  0.00  0.00    +0.000 OA
ATOM     31  C   UNL     1      47.735   5.237  15.601  0.00  0.00    +0.000 A 
ATOM     32  H   UNL     1      47.935   4.042  18.660  0.00  0.00    +0.000 HD
ENDBRANCH  19  22
ENDBRANCH  17  18
ENDBRANCH   4  17
TORSDOF 7
ENDMDL
MODEL 7
REMARK VINA RESULT:    -6.850      3.397      8.117
REMARK INTER + INTRA:         -10.949
REMARK INTER:                  -8.938
REMARK INTRA:                  -2.011
REMARK UNBOUND:                -1.296
REMARK  Name = 
REMARK  8 active torsions:
REMARK  status: ('A' for Active; 'I' for Inactive)
REMARK    1  A    between atoms: C_1  and  N_2
REMARK    2  A    between atoms: N_2  and  C_3
REMARK    3  A    between atoms: N_2  and  C_10
REMARK    4  A    between atoms: C_3  and  C_4
REMARK    5  A    between atoms: C_10  and  C_11
REMARK    6  A    between atoms: C_14  and  C_15
REMARK    7  A    between atoms: C_15  and  N_16
REMARK    8  A    between atoms: C_17  and  C_19
REMARK                            x       y       z     vdW  Elec       q    Type
REMARK                         _______ _______ _______ _____ _____    ______ ____
ROOT
ATOM      1  C   UNL     1      49.711   7.419  18.552  0.00  0.00    +0.000 A 
ATOM      2  C   UNL     1      50.409   6.979  17.418  0.00  0.00    +0.000 A 
ATOM      3  C   UNL     1      50.001   7.362  16.134  0.00  0.00    +0.000 A 
ATOM      4  C   UNL     1      48.893   8.202  15.959  0.00  0.00    +0.000 A 
ATOM      5  C   UNL     1      48.202   8.649  17.092  0.00  0.00    +0.000 A 
ATOM      6  C   UNL     1      48.607   8.264  18.374  0.00  0.00    +0.000 A 
ENDROOT
BRANCH   1   7
ATOM      7  C   UNL     1      50.079   6.926  19.941  0.00  0.00    +0.000 C 
BRANCH   7   9
ATOM      8  C   UNL     1      50.659   5.083  21.402  0.00  0.00    +0.000 C 
ATOM      9  N   UNL     1      50.126   5.456  20.084  0.00  0.00    +0.000 NA
BRANCH   9  10
ATOM     10  C   UNL     1      48.777   4.864  19.945  0.00  0.00    +0.000 C 
BRANCH  10  11
ATOM     11  C   UNL     1      48.517   4.199  18.612  0.00  0.00    +0.000 A 
ATOM     12  C   UNL     1      49.336   3.165  18.149  0.00  0.00    +0.000 A 
ATOM     13  C   UNL     1      49.063   2.606  16.910  0.00  0.00    +0.000 A 
ATOM     14  N   UNL     1      48.041   2.993  16.116  0.00  0.00    +0.000 NA
ATOM     15  C   UNL     1      47.255   3.985  16.585  0.00  0.00    +0.000 A 
ATOM     16  C   UNL     1      47.447   4.607  17.809  0.00  0.00    +0.000 A 
ENDBRANCH  10  11
ENDBRANCH   9  10
ENDBRANCH   7   9
ENDBRANCH   1   7
BRANCH   4  17
ATOM     17  C   UNL     1      48.406   8.565  14.580  0.00  0.00    +0.000 C 
BRANCH  17  18
ATOM     18  N   UNL     1      47.410   7.629  14.118  0.00  0.00    +0.000 N 
ATOM     19  C   UNL     1      47.735   6.600  13.271  0.00  0.00    +0.000 C 
ATOM     20  O   UNL     1      48.891   6.397  12.912  0.00  0.00    +0.000 OA
ATOM     21  H   UNL     1      46.437   7.899  14.228  0.00  0.00    +0.000 HD
BRANCH  19  22
ATOM     22  C   UNL     1      46.639   5.713  12.858  0.00  0.00    +0.000 A 
ATOM     23  C   UNL     1      46.772   4.338  13.014  0.00  0.00    +0.000 A 
ATOM     24  S   UNL     1      45.402   3.455  12.517  0.00  0.00    +0.000 S 
ATOM     25  C   UNL     1      44.598   4.873  12.029  0.00  0.00    +0.000 A 
ATOM     26  N   UNL     1      43.359   4.815  11.472  0.00  0.00    +0.000 NA
ATOM     27  C   UNL     1      42.875   5.962  11.125  0.00  0.00    +0.000 A 
ATOM     28  N   UNL     1      43.520   7.160  11.289  0.00  0.00    +0.000 N 
ATOM     29  C   UNL     1      44.762   7.269  11.866  0.00  0.00    +0.000 A 
ATOM     30  O   UNL     1      45.295   8.361  12.029  0.00  0.00    +0.000 OA
ATOM     31  C   UNL     1      45.357   6.008  12.265  0.00  0.00    +0.000 A 
ATOM     32  H   UNL     1      43.083   8.025  11.004  0.00  0.00    +0.000 HD
ENDBRANCH  19  22
ENDBRANCH  17  18
ENDBRANCH   4  17
TORSDOF 7
ENDMDL
MODEL 8
REMARK VINA RESULT:    -6.752      3.752      8.814
REMARK INTER + INTRA:         -10.811
REMARK INTER:                  -9.478
REMARK INTRA:                  -1.333
REMARK UNBOUND:                -1.296
REMARK  Name = 
REMARK  8 active torsions:
REMARK  status: ('A' for Active; 'I' for Inactive)
REMARK    1  A    between atoms: C_1  and  N_2
REMARK    2  A    between atoms: N_2  and  C_3
REMARK    3  A    between atoms: N_2  and  C_10
REMARK    4  A    between atoms: C_3  and  C_4
REMARK    5  A    between atoms: C_10  and  C_11
REMARK    6  A    between atoms: C_14  and  C_15
REMARK    7  A    between atoms: C_15  and  N_16
REMARK    8  A    between atoms: C_17  and  C_19
REMARK                            x       y       z     vdW  Elec       q    Type
REMARK                         _______ _______ _______ _____ _____    ______ ____
ROOT
ATOM      1  C   UNL     1      51.517   3.662  17.863  0.00  0.00    +0.000 A 
ATOM      2  C   UNL     1      50.971   2.462  17.385  0.00  0.00    +0.000 A 
ATOM      3  C   UNL     1      49.611   2.376  17.058  0.00  0.00    +0.000 A 
ATOM      4  C   UNL     1      48.774   3.492  17.191  0.00  0.00    +0.000 A 
ATOM      5  C   UNL     1      49.323   4.693  17.658  0.00  0.00    +0.000 A 
ATOM      6  C   UNL     1      50.679   4.778  17.988  0.00  0.00    +0.000 A 
ENDROOT
BRANCH   1   7
ATOM      7  C   UNL     1      52.963   3.739  18.321  0.00  0.00    +0.000 C 
BRANCH   7   9
ATOM      8  C   UNL     1      54.364   5.396  19.397  0.00  0.00    +0.000 C 
ATOM      9  N   UNL     1      53.583   5.074  18.195  0.00  0.00    +0.000 NA
BRANCH   9  10
ATOM     10  C   UNL     1      54.487   5.134  17.025  0.00  0.00    +0.000 C 
BRANCH  10  11
ATOM     11  C   UNL     1      54.104   6.165  15.987  0.00  0.00    +0.000 A 
ATOM     12  C   UNL     1      52.923   6.903  16.104  0.00  0.00    +0.000 A 
ATOM     13  C   UNL     1      52.613   7.820  15.111  0.00  0.00    +0.000 A 
ATOM     14  N   UNL     1      53.389   8.055  14.031  0.00  0.00    +0.000 NA
ATOM     15  C   UNL     1      54.530   7.340  13.941  0.00  0.00    +0.000 A 
ATOM     16  C   UNL     1      54.927   6.401  14.880  0.00  0.00    +0.000 A 
ENDBRANCH  10  11
ENDBRANCH   9  10
ENDBRANCH   7   9
ENDBRANCH   1   7
BRANCH   4  17
ATOM     17  C   UNL     1      47.298   3.391  16.904  0.00  0.00    +0.000 C 
BRANCH  17  18
ATOM     18  N   UNL     1      46.888   4.385  15.941  0.00  0.00    +0.000 N 
ATOM     19  C   UNL     1      46.958   4.145  14.593  0.00  0.00    +0.000 C 
ATOM     20  O   UNL     1      47.322   3.060  14.146  0.00  0.00    +0.000 OA
ATOM     21  H   UNL     1      46.790   5.339  16.276  0.00  0.00    +0.000 HD
BRANCH  19  22
ATOM     22  C   UNL     1      46.523   5.230  13.704  0.00  0.00    +0.000 A 
ATOM     23  C   UNL     1      47.346   6.334  13.513  0.00  0.00    +0.000 A 
ATOM     24  S   UNL     1      46.711   7.486  12.429  0.00  0.00    +0.000 S 
ATOM     25  C   UNL     1      45.290   6.575  12.210  0.00  0.00    +0.000 A 
ATOM     26  N   UNL     1      44.291   7.025  11.405  0.00  0.00    +0.000 NA
ATOM     27  C   UNL     1      43.259   6.248  11.348  0.00  0.00    +0.000 A 
ATOM     28  N   UNL     1      43.142   5.061  12.023  0.00  0.00    +0.000 N 
ATOM     29  C   UNL     1      44.134   4.556  12.829  0.00  0.00    +0.000 A 
ATOM     30  O   UNL     1      44.008   3.474  13.390  0.00  0.00    +0.000 OA
ATOM     31  C   UNL     1      45.311   5.396  12.938  0.00  0.00    +0.000 A 
ATOM     32  H   UNL     1      42.312   4.494  11.929  0.00  0.00    +0.000 HD
ENDBRANCH  19  22
ENDBRANCH  17  18
ENDBRANCH   4  17
TORSDOF 7
ENDMDL
MODEL 9
REMARK VINA RESULT:    -6.712      3.401      7.862
REMARK INTER + INTRA:         -10.754
REMARK INTER:                  -8.356
REMARK INTRA:                  -2.398
REMARK UNBOUND:                -1.296
REMARK  Name = 
REMARK  8 active torsions:
REMARK  status: ('A' for Active; 'I' for Inactive)
REMARK    1  A    between atoms: C_1  and  N_2
REMARK    2  A    between atoms: N_2  and  C_3
REMARK    3  A    between atoms: N_2  and  C_10
REMARK    4  A    between atoms: C_3  and  C_4
REMARK    5  A    between atoms: C_10  and  C_11
REMARK    6  A    between atoms: C_14  and  C_15
REMARK    7  A    between atoms: C_15  and  N_16
REMARK    8  A    between atoms: C_17  and  C_19
REMARK                            x       y       z     vdW  Elec       q    Type
REMARK                         _______ _______ _______ _____ _____    ______ ____
ROOT
ATOM      1  C   UNL     1      51.323   7.042  17.354  0.00  0.00    +0.000 A 
ATOM      2  C   UNL     1      51.197   6.883  15.966  0.00  0.00    +0.000 A 
ATOM      3  C   UNL     1      50.239   7.608  15.247  0.00  0.00    +0.000 A 
ATOM      4  C   UNL     1      49.395   8.517  15.899  0.00  0.00    +0.000 A 
ATOM      5  C   UNL     1      49.528   8.683  17.284  0.00  0.00    +0.000 A 
ATOM      6  C   UNL     1      50.482   7.956  18.003  0.00  0.00    +0.000 A 
ENDROOT
BRANCH   1   7
ATOM      7  C   UNL     1      52.283   6.184  18.158  0.00  0.00    +0.000 C 
BRANCH   7   9
ATOM      8  C   UNL     1      52.994   3.984  18.882  0.00  0.00    +0.000 C 
ATOM      9  N   UNL     1      51.921   4.754  18.236  0.00  0.00    +0.000 NA
BRANCH   9  10
ATOM     10  C   UNL     1      50.679   4.561  19.016  0.00  0.00    +0.000 C 
BRANCH  10  11
ATOM     11  C   UNL     1      49.491   4.096  18.203  0.00  0.00    +0.000 A 
ATOM     12  C   UNL     1      49.565   2.946  17.412  0.00  0.00    +0.000 A 
ATOM     13  C   UNL     1      48.452   2.578  16.670  0.00  0.00    +0.000 A 
ATOM     14  N   UNL     1      47.286   3.261  16.669  0.00  0.00    +0.000 NA
ATOM     15  C   UNL     1      47.232   4.362  17.447  0.00  0.00    +0.000 A 
ATOM     16  C   UNL     1      48.289   4.811  18.223  0.00  0.00    +0.000 A 
ENDBRANCH  10  11
ENDBRANCH   9  10
ENDBRANCH   7   9
ENDBRANCH   1   7
BRANCH   4  17
ATOM     17  C   UNL     1      48.318   9.253  15.146  0.00  0.00    +0.000 C 
BRANCH  17  18
ATOM     18  N   UNL     1      47.386   8.332  14.540  0.00  0.00    +0.000 N 
ATOM     19  C   UNL     1      47.228   8.267  13.179  0.00  0.00    +0.000 C 
ATOM     20  O   UNL     1      47.907   8.949  12.415  0.00  0.00    +0.000 OA
ATOM     21  H   UNL     1      46.681   7.924  15.147  0.00  0.00    +0.000 HD
BRANCH  19  22
ATOM     22  C   UNL     1      46.246   7.300  12.673  0.00  0.00    +0.000 A 
ATOM     23  C   UNL     1      45.162   7.747  11.928  0.00  0.00    +0.000 A 
ATOM     24  S   UNL     1      44.135   6.498  11.388  0.00  0.00    +0.000 S 
ATOM     25  C   UNL     1      45.076   5.315  12.170  0.00  0.00    +0.000 A 
ATOM     26  N   UNL     1      44.722   4.003  12.128  0.00  0.00    +0.000 NA
ATOM     27  C   UNL     1      45.509   3.215  12.784  0.00  0.00    +0.000 A 
ATOM     28  N   UNL     1      46.620   3.625  13.475  0.00  0.00    +0.000 N 
ATOM     29  C   UNL     1      47.029   4.936  13.526  0.00  0.00    +0.000 A 
ATOM     30  O   UNL     1      48.047   5.262  14.125  0.00  0.00    +0.000 OA
ATOM     31  C   UNL     1      46.173   5.865  12.815  0.00  0.00    +0.000 A 
ATOM     32  H   UNL     1      47.201   2.957  13.960  0.00  0.00    +0.000 HD
ENDBRANCH  19  22
ENDBRANCH  17  18
ENDBRANCH   4  17
TORSDOF 7
ENDMDL
