MODEL 1
REMARK VINA RESULT:    -7.562      0.000      0.000
REMARK INTER + INTRA:         -12.835
REMARK INTER:                 -11.541
REMARK INTRA:                  -1.294
REMARK UNBOUND:                -1.294
REMARK  Name = 
REMARK  10 active torsions:
REMARK  status: ('A' for Active; 'I' for Inactive)
REMARK    1  A    between atoms: C_1  and  C_2
REMARK    2  A    between atoms: C_2  and  C_3
REMARK    3  A    between atoms: C_3  and  C_4
REMARK    4  A    between atoms: C_4  and  C_5
REMARK    5  A    between atoms: C_7  and  C_8
REMARK    6  A    between atoms: C_8  and  C_9
REMARK    7  A    between atoms: C_9  and  C_10
REMARK    8  A    between atoms: C_13  and  C_14
REMARK    9  A    between atoms: C_20  and  S_21
REMARK   10  A    between atoms: S_21  and  C_22
REMARK                            x       y       z     vdW  Elec       q    Type
REMARK                         _______ _______ _______ _____ _____    ______ ____
ROOT
ATOM      1  C   UNL     1      46.836   6.341  12.643  0.00  0.00    +0.000 A 
ATOM      2  C   UNL     1      45.754   5.739  12.003  0.00  0.00    +0.000 A 
ATOM      3  C   UNL     1      45.260   4.520  12.456  0.00  0.00    +0.000 A 
ATOM      4  N   UNL     1      45.765   3.913  13.559  0.00  0.00    +0.000 NA
ATOM      5  C   UNL     1      46.804   4.510  14.191  0.00  0.00    +0.000 A 
ATOM      6  C   UNL     1      47.392   5.689  13.742  0.00  0.00    +0.000 A 
ENDROOT
BRANCH   1   7
ATOM      7  C   UNL     1      47.335   7.679  12.157  0.00  0.00    +0.000 C 
BRANCH   7   8
ATOM      8  C   UNL     1      48.828   7.603  11.817  0.00  0.00    +0.000 C 
BRANCH   8  10
ATOM      9  C   UNL     1      49.140   9.060  13.831  0.00  0.00    +0.000 C 
ATOM     10  C   UNL     1      49.623   8.755  12.420  0.00  0.00    +0.000 C 
ENDBRANCH   8  10
ENDBRANCH   7   8
ENDBRANCH   1   7
BRANCH   3  11
ATOM     11  C   UNL     1      44.099   3.845  11.757  0.00  0.00    +0.000 C 
BRANCH  11  12
ATOM     12  C   UNL     1      43.898   4.309  10.305  0.00  0.00    +0.000 C 
BRANCH  12  13
ATOM     13  C   UNL     1      44.812   3.638   9.315  0.00  0.00    +0.000 A 
ATOM     14  C   UNL     1      45.600   4.408   8.452  0.00  0.00    +0.000 A 
ATOM     15  C   UNL     1      46.489   3.792   7.571  0.00  0.00    +0.000 A 
ATOM     16  C   UNL     1      46.607   2.400   7.554  0.00  0.00    +0.000 A 
ATOM     17  C   UNL     1      45.803   1.623   8.394  0.00  0.00    +0.000 A 
ATOM     18  C   UNL     1      44.906   2.242   9.273  0.00  0.00    +0.000 A 
BRANCH  16  19
ATOM     19  C   UNL     1      47.585   1.792   6.613  0.00  0.00    +0.000 C 
ATOM     20  N   UNL     1      48.640   2.563   6.209  0.00  0.00    +0.000 N 
ATOM     21  O   UNL     1      47.444   0.653   6.184  0.00  0.00    +0.000 OA
ATOM     22  H   UNL     1      48.660   3.563   6.335  0.00  0.00    +0.000 HD
ATOM     23  H   UNL     1      49.221   2.165   5.483  0.00  0.00    +0.000 HD
ENDBRANCH  16  19
ENDBRANCH  12  13
ENDBRANCH  11  12
ENDBRANCH   3  11
BRANCH   5  24
ATOM     24  S   UNL     1      47.518   3.670  15.594  0.00  0.00    +0.000 S 
BRANCH  24  25
ATOM     25  C   UNL     1      47.927   5.041  16.750  0.00  0.00    +0.000 C 
ATOM     26  C   UNL     1      49.406   5.265  17.030  0.00  0.00    +0.000 C 
ATOM     27  C   UNL     1      49.576   4.899  18.493  0.00  0.00    +0.000 C 
ATOM     28  N   UNL     1      48.304   5.257  19.133  0.00  0.00    +0.000 NA
ATOM     29  C   UNL     1      47.263   4.968  18.130  0.00  0.00    +0.000 C 
ATOM     30  H   UNL     1      48.309   6.258  19.331  0.00  0.00    +0.000 HD
ENDBRANCH  24  25
ENDBRANCH   5  24
TORSDOF 9
ENDMDL
MODEL 2
REMARK VINA RESULT:    -7.516      1.981      3.679
REMARK INTER + INTRA:         -12.765
REMARK INTER:                 -11.653
REMARK INTRA:                  -1.112
REMARK UNBOUND:                -1.294
REMARK  Name = 
REMARK  10 active torsions:
REMARK  status: ('A' for Active; 'I' for Inactive)
REMARK    1  A    between atoms: C_1  and  C_2
REMARK    2  A    between atoms: C_2  and  C_3
REMARK    3  A    between atoms: C_3  and  C_4
REMARK    4  A    between atoms: C_4  and  C_5
REMARK    5  A    between atoms: C_7  and  C_8
REMARK    6  A    between atoms: C_8  and  C_9
REMARK    7  A    between atoms: C_9  and  C_10
REMARK    8  A    between atoms: C_13  and  C_14
REMARK    9  A    between atoms: C_20  and  S_21
REMARK   10  A    between atoms: S_21  and  C_22
REMARK                            x       y       z     vdW  Elec       q    Type
REMARK                         _______ _______ _______ _____ _____    ______ ____
ROOT
ATOM      1  C   UNL     1      46.879   4.690  13.529  0.00  0.00    +0.000 A 
ATOM      2  C   UNL     1      45.734   4.608  12.739  0.00  0.00    +0.000 A 
ATOM      3  C   UNL     1      45.528   5.517  11.706  0.00  0.00    +0.000 A 
ATOM      4  N   UNL     1      46.449   6.462  11.395  0.00  0.00    +0.000 NA
ATOM      5  C   UNL     1      47.572   6.527  12.152  0.00  0.00    +0.000 A 
ATOM      6  C   UNL     1      47.800   5.696  13.245  0.00  0.00    +0.000 A 
ENDROOT
BRANCH   1   7
ATOM      7  C   UNL     1      47.100   3.674  14.621  0.00  0.00    +0.000 C 
BRANCH   7   8
ATOM      8  C   UNL     1      47.260   4.372  15.978  0.00  0.00    +0.000 C 
BRANCH   8  10
ATOM      9  C   UNL     1      48.677   2.411  16.626  0.00  0.00    +0.000 C 
ATOM     10  C   UNL     1      47.620   3.399  17.095  0.00  0.00    +0.000 C 
ENDBRANCH   8  10
ENDBRANCH   7   8
ENDBRANCH   1   7
BRANCH   3  11
ATOM     11  C   UNL     1      44.278   5.454  10.853  0.00  0.00    +0.000 C 
BRANCH  11  12
ATOM     12  C   UNL     1      43.900   4.028  10.417  0.00  0.00    +0.000 C 
BRANCH  12  13
ATOM     13  C   UNL     1      44.806   3.447   9.367  0.00  0.00    +0.000 A 
ATOM     14  C   UNL     1      45.450   4.286   8.451  0.00  0.00    +0.000 A 
ATOM     15  C   UNL     1      46.334   3.758   7.509  0.00  0.00    +0.000 A 
ATOM     16  C   UNL     1      46.593   2.385   7.486  0.00  0.00    +0.000 A 
ATOM     17  C   UNL     1      45.934   1.537   8.381  0.00  0.00    +0.000 A 
ATOM     18  C   UNL     1      45.041   2.067   9.320  0.00  0.00    +0.000 A 
BRANCH  16  19
ATOM     19  C   UNL     1      47.561   1.874   6.479  0.00  0.00    +0.000 C 
ATOM     20  N   UNL     1      48.697   2.604   6.263  0.00  0.00    +0.000 N 
ATOM     21  O   UNL     1      47.343   0.853   5.838  0.00  0.00    +0.000 OA
ATOM     22  H   UNL     1      48.797   3.557   6.577  0.00  0.00    +0.000 HD
ATOM     23  H   UNL     1      49.277   2.295   5.494  0.00  0.00    +0.000 HD
ENDBRANCH  16  19
ENDBRANCH  12  13
ENDBRANCH  11  12
ENDBRANCH   3  11
BRANCH   5  24
ATOM     24  S   UNL     1      48.746   7.821  11.791  0.00  0.00    +0.000 S 
BRANCH  24  25
ATOM     25  C   UNL     1      48.431   9.063  13.112  0.00  0.00    +0.000 C 
ATOM     26  C   UNL     1      49.469   9.139  14.223  0.00  0.00    +0.000 C 
ATOM     27  C   UNL     1      48.737   8.652  15.460  0.00  0.00    +0.000 C 
ATOM     28  N   UNL     1      47.342   9.068  15.275  0.00  0.00    +0.000 NA
ATOM     29  C   UNL     1      47.081   8.943  13.829  0.00  0.00    +0.000 C 
ATOM     30  H   UNL     1      47.254  10.047  15.547  0.00  0.00    +0.000 HD
ENDBRANCH  24  25
ENDBRANCH   5  24
TORSDOF 9
ENDMDL
MODEL 3
REMARK VINA RESULT:    -7.022      3.452      5.459
REMARK INTER + INTRA:         -12.011
REMARK INTER:                 -10.775
REMARK INTRA:                  -1.236
REMARK UNBOUND:                -1.294
REMARK  Name = 
REMARK  10 active torsions:
REMARK  status: ('A' for Active; 'I' for Inactive)
REMARK    1  A    between atoms: C_1  and  C_2
REMARK    2  A    between atoms: C_2  and  C_3
REMARK    3  A    between atoms: C_3  and  C_4
REMARK    4  A    between atoms: C_4  and  C_5
REMARK    5  A    between atoms: C_7  and  C_8
REMARK    6  A    between atoms: C_8  and  C_9
REMARK    7  A    between atoms: C_9  and  C_10
REMARK    8  A    between atoms: C_13  and  C_14
REMARK    9  A    between atoms: C_20  and  S_21
REMARK   10  A    between atoms: S_21  and  C_22
REMARK                            x       y       z     vdW  Elec       q    Type
REMARK                         _______ _______ _______ _____ _____    ______ ____
ROOT
ATOM      1  C   UNL     1      47.463   7.302  12.213  0.00  0.00    +0.000 A 
ATOM      2  C   UNL     1      46.695   6.152  12.035  0.00  0.00    +0.000 A 
ATOM      3  C   UNL     1      45.326   6.250  11.809  0.00  0.00    +0.000 A 
ATOM      4  N   UNL     1      44.708   7.452  11.694  0.00  0.00    +0.000 NA
ATOM      5  C   UNL     1      45.460   8.569  11.847  0.00  0.00    +0.000 A 
ATOM      6  C   UNL     1      46.818   8.536  12.150  0.00  0.00    +0.000 A 
ENDROOT
BRANCH   1   7
ATOM      7  C   UNL     1      48.951   7.175  12.422  0.00  0.00    +0.000 C 
BRANCH   7   8
ATOM      8  C   UNL     1      49.710   8.037  11.407  0.00  0.00    +0.000 C 
BRANCH   8  10
ATOM      9  C   UNL     1      50.335  10.064  12.740  0.00  0.00    +0.000 C 
ATOM     10  C   UNL     1      50.857   8.815  12.044  0.00  0.00    +0.000 C 
ENDBRANCH   8  10
ENDBRANCH   7   8
ENDBRANCH   1   7
BRANCH   3  11
ATOM     11  C   UNL     1      44.476   5.009  11.636  0.00  0.00    +0.000 C 
BRANCH  11  12
ATOM     12  C   UNL     1      43.925   4.833  10.211  0.00  0.00    +0.000 C 
BRANCH  12  13
ATOM     13  C   UNL     1      44.801   4.003   9.312  0.00  0.00    +0.000 A 
ATOM     14  C   UNL     1      45.700   4.625   8.438  0.00  0.00    +0.000 A 
ATOM     15  C   UNL     1      46.553   3.860   7.642  0.00  0.00    +0.000 A 
ATOM     16  C   UNL     1      46.524   2.465   7.724  0.00  0.00    +0.000 A 
ATOM     17  C   UNL     1      45.611   1.837   8.576  0.00  0.00    +0.000 A 
ATOM     18  C   UNL     1      44.750   2.605   9.369  0.00  0.00    +0.000 A 
BRANCH  16  19
ATOM     19  C   UNL     1      47.470   1.695   6.873  0.00  0.00    +0.000 C 
ATOM     20  N   UNL     1      48.484   2.385   6.266  0.00  0.00    +0.000 N 
ATOM     21  O   UNL     1      47.337   0.491   6.689  0.00  0.00    +0.000 OA
ATOM     22  H   UNL     1      48.485   3.390   6.189  0.00  0.00    +0.000 HD
ATOM     23  H   UNL     1      49.038   1.858   5.605  0.00  0.00    +0.000 HD
ENDBRANCH  16  19
ENDBRANCH  12  13
ENDBRANCH  11  12
ENDBRANCH   3  11
BRANCH   5  24
ATOM     24  S   UNL     1      44.631  10.147  11.774  0.00  0.00    +0.000 S 
BRANCH  24  25
ATOM     25  C   UNL     1      43.340   9.892  10.488  0.00  0.00    +0.000 C 
ATOM     26  C   UNL     1      43.528  10.659   9.187  0.00  0.00    +0.000 C 
ATOM     27  C   UNL     1      42.381  11.652   9.162  0.00  0.00    +0.000 C 
ATOM     28  N   UNL     1      41.273  10.983   9.854  0.00  0.00    +0.000 NA
ATOM     29  C   UNL     1      41.900  10.186  10.924  0.00  0.00    +0.000 C 
ATOM     30  H   UNL     1      40.810  10.355   9.197  0.00  0.00    +0.000 HD
ENDBRANCH  24  25
ENDBRANCH   5  24
TORSDOF 9
ENDMDL
MODEL 4
REMARK VINA RESULT:    -6.945      2.762      4.157
REMARK INTER + INTRA:         -11.893
REMARK INTER:                 -10.784
REMARK INTRA:                  -1.110
REMARK UNBOUND:                -1.294
REMARK  Name = 
REMARK  10 active torsions:
REMARK  status: ('A' for Active; 'I' for Inactive)
REMARK    1  A    between atoms: C_1  and  C_2
REMARK    2  A    between atoms: C_2  and  C_3
REMARK    3  A    between atoms: C_3  and  C_4
REMARK    4  A    between atoms: C_4  and  C_5
REMARK    5  A    between atoms: C_7  and  C_8
REMARK    6  A    between atoms: C_8  and  C_9
REMARK    7  A    between atoms: C_9  and  C_10
REMARK    8  A    between atoms: C_13  and  C_14
REMARK    9  A    between atoms: C_20  and  S_21
REMARK   10  A    between atoms: S_21  and  C_22
REMARK                            x       y       z     vdW  Elec       q    Type
REMARK                         _______ _______ _______ _____ _____    ______ ____
ROOT
ATOM      1  C   UNL     1      45.131   8.343  11.799  0.00  0.00    +0.000 A 
ATOM      2  C   UNL     1      44.548   7.109  11.517  0.00  0.00    +0.000 A 
ATOM      3  C   UNL     1      45.152   5.932  11.946  0.00  0.00    +0.000 A 
ATOM      4  N   UNL     1      46.282   5.945  12.697  0.00  0.00    +0.000 NA
ATOM      5  C   UNL     1      46.837   7.146  12.987  0.00  0.00    +0.000 A 
ATOM      6  C   UNL     1      46.322   8.353  12.523  0.00  0.00    +0.000 A 
ENDROOT
BRANCH   1   7
ATOM      7  C   UNL     1      44.441   9.608  11.354  0.00  0.00    +0.000 C 
BRANCH   7   8
ATOM      8  C   UNL     1      43.113   9.279  10.662  0.00  0.00    +0.000 C 
BRANCH   8  10
ATOM      9  C   UNL     1      43.483  10.908   8.794  0.00  0.00    +0.000 C 
ATOM     10  C   UNL     1      42.539  10.472   9.905  0.00  0.00    +0.000 C 
ENDBRANCH   8  10
ENDBRANCH   7   8
ENDBRANCH   1   7
BRANCH   3  11
ATOM     11  C   UNL     1      44.541   4.583  11.628  0.00  0.00    +0.000 C 
BRANCH  11  12
ATOM     12  C   UNL     1      43.971   4.485  10.202  0.00  0.00    +0.000 C 
BRANCH  12  13
ATOM     13  C   UNL     1      44.883   3.797   9.224  0.00  0.00    +0.000 A 
ATOM     14  C   UNL     1      45.624   4.549   8.305  0.00  0.00    +0.000 A 
ATOM     15  C   UNL     1      46.513   3.920   7.432  0.00  0.00    +0.000 A 
ATOM     16  C   UNL     1      46.677   2.534   7.479  0.00  0.00    +0.000 A 
ATOM     17  C   UNL     1      45.920   1.773   8.376  0.00  0.00    +0.000 A 
ATOM     18  C   UNL     1      45.024   2.404   9.246  0.00  0.00    +0.000 A 
BRANCH  16  19
ATOM     19  C   UNL     1      47.653   1.913   6.543  0.00  0.00    +0.000 C 
ATOM     20  N   UNL     1      48.855   2.543   6.371  0.00  0.00    +0.000 N 
ATOM     21  O   UNL     1      47.387   0.892   5.921  0.00  0.00    +0.000 OA
ATOM     22  H   UNL     1      49.015   3.495   6.663  0.00  0.00    +0.000 HD
ATOM     23  H   UNL     1      49.448   2.163   5.645  0.00  0.00    +0.000 HD
ENDBRANCH  16  19
ENDBRANCH  12  13
ENDBRANCH  11  12
ENDBRANCH   3  11
BRANCH   5  24
ATOM     24  S   UNL     1      48.365   7.157  13.908  0.00  0.00    +0.000 S 
BRANCH  24  25
ATOM     25  C   UNL     1      49.458   8.247  12.906  0.00  0.00    +0.000 C 
ATOM     26  C   UNL     1      49.558   7.917  11.424  0.00  0.00    +0.000 C 
ATOM     27  C   UNL     1      50.992   7.458  11.232  0.00  0.00    +0.000 C 
ATOM     28  N   UNL     1      51.778   8.220  12.210  0.00  0.00    +0.000 NA
ATOM     29  C   UNL     1      50.908   8.361  13.392  0.00  0.00    +0.000 C 
ATOM     30  H   UNL     1      51.970   9.145  11.825  0.00  0.00    +0.000 HD
ENDBRANCH  24  25
ENDBRANCH   5  24
TORSDOF 9
ENDMDL
MODEL 5
REMARK VINA RESULT:    -6.319      3.054      5.126
REMARK INTER + INTRA:         -10.937
REMARK INTER:                  -9.638
REMARK INTRA:                  -1.299
REMARK UNBOUND:                -1.294
REMARK  Name = 
REMARK  10 active torsions:
REMARK  status: ('A' for Active; 'I' for Inactive)
REMARK    1  A    between atoms: C_1  and  C_2
REMARK    2  A    between atoms: C_2  and  C_3
REMARK    3  A    between atoms: C_3  and  C_4
REMARK    4  A    between atoms: C_4  and  C_5
REMARK    5  A    between atoms: C_7  and  C_8
REMARK    6  A    between atoms: C_8  and  C_9
REMARK    7  A    between atoms: C_9  and  C_10
REMARK    8  A    between atoms: C_13  and  C_14
REMARK    9  A    between atoms: C_20  and  S_21
REMARK   10  A    between atoms: S_21  and  C_22
REMARK                            x       y       z     vdW  Elec       q    Type
REMARK                         _______ _______ _______ _____ _____    ______ ____
ROOT
ATOM      1  C   UNL     1      48.640   8.548  16.983  0.00  0.00    +0.000 A 
ATOM      2  C   UNL     1      48.484   8.322  15.617  0.00  0.00    +0.000 A 
ATOM      3  C   UNL     1      48.967   7.152  15.039  0.00  0.00    +0.000 A 
ATOM      4  N   UNL     1      49.544   6.176  15.783  0.00  0.00    +0.000 NA
ATOM      5  C   UNL     1      49.676   6.389  17.115  0.00  0.00    +0.000 A 
ATOM      6  C   UNL     1      49.283   7.570  17.739  0.00  0.00    +0.000 A 
ENDROOT
BRANCH   1   7
ATOM      7  C   UNL     1      48.079   9.807  17.595  0.00  0.00    +0.000 C 
BRANCH   7   8
ATOM      8  C   UNL     1      48.248   9.783  19.119  0.00  0.00    +0.000 C 
BRANCH   8  10
ATOM      9  C   UNL     1      47.014   9.256  21.235  0.00  0.00    +0.000 C 
ATOM     10  C   UNL     1      46.916   9.889  19.855  0.00  0.00    +0.000 C 
ENDBRANCH   8  10
ENDBRANCH   7   8
ENDBRANCH   1   7
BRANCH   3  11
ATOM     11  C   UNL     1      48.823   6.903  13.552  0.00  0.00    +0.000 C 
BRANCH  11  12
ATOM     12  C   UNL     1      47.484   7.387  12.972  0.00  0.00    +0.000 C 
BRANCH  12  13
ATOM     13  C   UNL     1      46.588   6.278  12.490  0.00  0.00    +0.000 A 
ATOM     14  C   UNL     1      45.910   6.401  11.273  0.00  0.00    +0.000 A 
ATOM     15  C   UNL     1      45.121   5.353  10.795  0.00  0.00    +0.000 A 
ATOM     16  C   UNL     1      45.015   4.167  11.527  0.00  0.00    +0.000 A 
ATOM     17  C   UNL     1      45.669   4.047  12.757  0.00  0.00    +0.000 A 
ATOM     18  C   UNL     1      46.454   5.102  13.239  0.00  0.00    +0.000 A 
BRANCH  16  19
ATOM     19  C   UNL     1      44.182   3.071  10.965  0.00  0.00    +0.000 C 
ATOM     20  N   UNL     1      44.754   2.255  10.028  0.00  0.00    +0.000 N 
ATOM     21  O   UNL     1      43.013   2.915  11.298  0.00  0.00    +0.000 OA
ATOM     22  H   UNL     1      45.610   2.494   9.551  0.00  0.00    +0.000 HD
ATOM     23  H   UNL     1      44.131   1.596   9.582  0.00  0.00    +0.000 HD
ENDBRANCH  16  19
ENDBRANCH  12  13
ENDBRANCH  11  12
ENDBRANCH   3  11
BRANCH   5  24
ATOM     24  S   UNL     1      50.506   5.138  18.079  0.00  0.00    +0.000 S 
BRANCH  24  25
ATOM     25  C   UNL     1      49.220   3.840  18.291  0.00  0.00    +0.000 C 
ATOM     26  C   UNL     1      49.101   2.823  17.165  0.00  0.00    +0.000 C 
ATOM     27  C   UNL     1      47.743   3.098  16.546  0.00  0.00    +0.000 C 
ATOM     28  N   UNL     1      46.900   3.565  17.653  0.00  0.00    +0.000 NA
ATOM     29  C   UNL     1      47.793   4.349  18.525  0.00  0.00    +0.000 C 
ATOM     30  H   UNL     1      46.557   2.754  18.167  0.00  0.00    +0.000 HD
ENDBRANCH  24  25
ENDBRANCH   5  24
TORSDOF 9
ENDMDL
MODEL 6
REMARK VINA RESULT:    -6.127      4.402      7.855
REMARK INTER + INTRA:         -10.644
REMARK INTER:                  -9.668
REMARK INTRA:                  -0.976
REMARK UNBOUND:                -1.294
REMARK  Name = 
REMARK  10 active torsions:
REMARK  status: ('A' for Active; 'I' for Inactive)
REMARK    1  A    between atoms: C_1  and  C_2
REMARK    2  A    between atoms: C_2  and  C_3
REMARK    3  A    between atoms: C_3  and  C_4
REMARK    4  A    between atoms: C_4  and  C_5
REMARK    5  A    between atoms: C_7  and  C_8
REMARK    6  A    between atoms: C_8  and  C_9
REMARK    7  A    between atoms: C_9  and  C_10
REMARK    8  A    between atoms: C_13  and  C_14
REMARK    9  A    between atoms: C_20  and  S_21
REMARK   10  A    between atoms: S_21  and  C_22
REMARK                            x       y       z     vdW  Elec       q    Type
REMARK                         _______ _______ _______ _____ _____    ______ ____
ROOT
ATOM      1  C   UNL     1      48.849   7.445  12.590  0.00  0.00    +0.000 A 
ATOM      2  C   UNL     1      49.280   7.508  13.914  0.00  0.00    +0.000 A 
ATOM      3  C   UNL     1      48.661   6.733  14.890  0.00  0.00    +0.000 A 
ATOM      4  N   UNL     1      47.674   5.856  14.583  0.00  0.00    +0.000 NA
ATOM      5  C   UNL     1      47.271   5.782  13.292  0.00  0.00    +0.000 A 
ATOM      6  C   UNL     1      47.797   6.585  12.284  0.00  0.00    +0.000 A 
ENDROOT
BRANCH   1   7
ATOM      7  C   UNL     1      49.555   8.267  11.541  0.00  0.00    +0.000 C 
BRANCH   7   8
ATOM      8  C   UNL     1      50.519   9.262  12.199  0.00  0.00    +0.000 C 
BRANCH   8  10
ATOM      9  C   UNL     1      50.344  11.518  13.275  0.00  0.00    +0.000 C 
ATOM     10  C   UNL     1      50.080  10.710  12.013  0.00  0.00    +0.000 C 
ENDBRANCH   8  10
ENDBRANCH   7   8
ENDBRANCH   1   7
BRANCH   3  11
ATOM     11  C   UNL     1      49.104   6.807  16.337  0.00  0.00    +0.000 C 
BRANCH  11  12
ATOM     12  C   UNL     1      48.568   5.657  17.206  0.00  0.00    +0.000 C 
BRANCH  12  13
ATOM     13  C   UNL     1      49.535   4.518  17.380  0.00  0.00    +0.000 A 
ATOM     14  C   UNL     1      49.088   3.196  17.288  0.00  0.00    +0.000 A 
ATOM     15  C   UNL     1      49.990   2.136  17.394  0.00  0.00    +0.000 A 
ATOM     16  C   UNL     1      51.351   2.392  17.580  0.00  0.00    +0.000 A 
ATOM     17  C   UNL     1      51.802   3.710  17.699  0.00  0.00    +0.000 A 
ATOM     18  C   UNL     1      50.895   4.772  17.600  0.00  0.00    +0.000 A 
BRANCH  16  19
ATOM     19  C   UNL     1      52.275   1.229  17.664  0.00  0.00    +0.000 C 
ATOM     20  N   UNL     1      51.773   0.052  18.148  0.00  0.00    +0.000 N 
ATOM     21  O   UNL     1      53.454   1.320  17.343  0.00  0.00    +0.000 OA
ATOM     22  H   UNL     1      50.897   0.001  18.646  0.00  0.00    +0.000 HD
ATOM     23  H   UNL     1      52.450  -0.682  18.301  0.00  0.00    +0.000 HD
ENDBRANCH  16  19
ENDBRANCH  12  13
ENDBRANCH  11  12
ENDBRANCH   3  11
BRANCH   5  24
ATOM     24  S   UNL     1      45.918   4.685  12.903  0.00  0.00    +0.000 S 
BRANCH  24  25
ATOM     25  C   UNL     1      44.452   5.796  12.909  0.00  0.00    +0.000 C 
ATOM     26  C   UNL     1      43.093   5.115  12.989  0.00  0.00    +0.000 C 
ATOM     27  C   UNL     1      42.446   5.400  11.646  0.00  0.00    +0.000 C 
ATOM     28  N   UNL     1      42.956   6.715  11.241  0.00  0.00    +0.000 NA
ATOM     29  C   UNL     1      44.347   6.765  11.725  0.00  0.00    +0.000 C 
ATOM     30  H   UNL     1      42.412   7.436  11.713  0.00  0.00    +0.000 HD
ENDBRANCH  24  25
ENDBRANCH   5  24
TORSDOF 9
ENDMDL
MODEL 7
REMARK VINA RESULT:    -6.029      3.852      7.681
REMARK INTER + INTRA:         -10.495
REMARK INTER:                  -9.401
REMARK INTRA:                  -1.094
REMARK UNBOUND:                -1.294
REMARK  Name = 
REMARK  10 active torsions:
REMARK  status: ('A' for Active; 'I' for Inactive)
REMARK    1  A    between atoms: C_1  and  C_2
REMARK    2  A    between atoms: C_2  and  C_3
REMARK    3  A    between atoms: C_3  and  C_4
REMARK    4  A    between atoms: C_4  and  C_5
REMARK    5  A    between atoms: C_7  and  C_8
REMARK    6  A    between atoms: C_8  and  C_9
REMARK    7  A    between atoms: C_9  and  C_10
REMARK    8  A    between atoms: C_13  and  C_14
REMARK    9  A    between atoms: C_20  and  S_21
REMARK   10  A    between atoms: S_21  and  C_22
REMARK                            x       y       z     vdW  Elec       q    Type
REMARK                         _______ _______ _______ _____ _____    ______ ____
ROOT
ATOM      1  C   UNL     1      48.157   6.795  12.845  0.00  0.00    +0.000 A 
ATOM      2  C   UNL     1      48.151   5.848  13.867  0.00  0.00    +0.000 A 
ATOM      3  C   UNL     1      46.971   5.197  14.213  0.00  0.00    +0.000 A 
ATOM      4  N   UNL     1      45.815   5.412  13.537  0.00  0.00    +0.000 NA
ATOM      5  C   UNL     1      45.828   6.319  12.530  0.00  0.00    +0.000 A 
ATOM      6  C   UNL     1      46.957   7.057  12.187  0.00  0.00    +0.000 A 
ENDROOT
BRANCH   1   7
ATOM      7  C   UNL     1      49.454   7.464  12.463  0.00  0.00    +0.000 C 
BRANCH   7   8
ATOM      8  C   UNL     1      49.203   8.569  11.429  0.00  0.00    +0.000 C 
BRANCH   8  10
ATOM      9  C   UNL     1      48.874  11.018  11.015  0.00  0.00    +0.000 C 
ATOM     10  C   UNL     1      49.267   9.965  12.041  0.00  0.00    +0.000 C 
ENDBRANCH   8  10
ENDBRANCH   7   8
ENDBRANCH   1   7
BRANCH   3  11
ATOM     11  C   UNL     1      46.944   4.182  15.336  0.00  0.00    +0.000 C 
BRANCH  11  12
ATOM     12  C   UNL     1      47.681   4.644  16.604  0.00  0.00    +0.000 C 
BRANCH  12  13
ATOM     13  C   UNL     1      48.945   3.881  16.891  0.00  0.00    +0.000 A 
ATOM     14  C   UNL     1      50.051   4.535  17.444  0.00  0.00    +0.000 A 
ATOM     15  C   UNL     1      51.207   3.821  17.763  0.00  0.00    +0.000 A 
ATOM     16  C   UNL     1      51.261   2.443  17.543  0.00  0.00    +0.000 A 
ATOM     17  C   UNL     1      50.169   1.786  16.967  0.00  0.00    +0.000 A 
ATOM     18  C   UNL     1      49.013   2.505  16.640  0.00  0.00    +0.000 A 
BRANCH  16  19
ATOM     19  C   UNL     1      52.507   1.723  17.922  0.00  0.00    +0.000 C 
ATOM     20  N   UNL     1      52.627   0.416  17.533  0.00  0.00    +0.000 N 
ATOM     21  O   UNL     1      53.385   2.261  18.583  0.00  0.00    +0.000 OA
ATOM     22  H   UNL     1      51.842  -0.129  17.212  0.00  0.00    +0.000 HD
ATOM     23  H   UNL     1      53.428  -0.078  17.902  0.00  0.00    +0.000 HD
ENDBRANCH  16  19
ENDBRANCH  12  13
ENDBRANCH  11  12
ENDBRANCH   3  11
BRANCH   5  24
ATOM     24  S   UNL     1      44.289   6.658  11.694  0.00  0.00    +0.000 S 
BRANCH  24  25
ATOM     25  C   UNL     1      43.895   5.065  10.862  0.00  0.00    +0.000 C 
ATOM     26  C   UNL     1      42.883   4.173  11.565  0.00  0.00    +0.000 C 
ATOM     27  C   UNL     1      43.684   2.958  11.998  0.00  0.00    +0.000 C 
ATOM     28  N   UNL     1      44.721   2.791  10.973  0.00  0.00    +0.000 NA
ATOM     29  C   UNL     1      45.094   4.157  10.563  0.00  0.00    +0.000 C 
ATOM     30  H   UNL     1      44.315   2.302  10.175  0.00  0.00    +0.000 HD
ENDBRANCH  24  25
ENDBRANCH   5  24
TORSDOF 9
ENDMDL
MODEL 8
REMARK VINA RESULT:    -6.016      3.702      7.812
REMARK INTER + INTRA:         -10.476
REMARK INTER:                  -9.476
REMARK INTRA:                  -1.000
REMARK UNBOUND:                -1.294
REMARK  Name = 
REMARK  10 active torsions:
REMARK  status: ('A' for Active; 'I' for Inactive)
REMARK    1  A    between atoms: C_1  and  C_2
REMARK    2  A    between atoms: C_2  and  C_3
REMARK    3  A    between atoms: C_3  and  C_4
REMARK    4  A    between atoms: C_4  and  C_5
REMARK    5  A    between atoms: C_7  and  C_8
REMARK    6  A    between atoms: C_8  and  C_9
REMARK    7  A    between atoms: C_9  and  C_10
REMARK    8  A    between atoms: C_13  and  C_14
REMARK    9  A    between atoms: C_20  and  S_21
REMARK   10  A    between atoms: S_21  and  C_22
REMARK                            x       y       z     vdW  Elec       q    Type
REMARK                         _______ _______ _______ _____ _____    ______ ____
ROOT
ATOM      1  C   UNL     1      45.115   4.166  11.411  0.00  0.00    +0.000 A 
ATOM      2  C   UNL     1      45.755   3.479  12.440  0.00  0.00    +0.000 A 
ATOM      3  C   UNL     1      46.321   4.175  13.504  0.00  0.00    +0.000 A 
ATOM      4  N   UNL     1      46.217   5.523  13.608  0.00  0.00    +0.000 NA
ATOM      5  C   UNL     1      45.576   6.188  12.616  0.00  0.00    +0.000 A 
ATOM      6  C   UNL     1      45.057   5.556  11.490  0.00  0.00    +0.000 A 
ENDROOT
BRANCH   1   7
ATOM      7  C   UNL     1      44.479   3.391  10.285  0.00  0.00    +0.000 C 
BRANCH   7   8
ATOM      8  C   UNL     1      44.879   3.988   8.930  0.00  0.00    +0.000 C 
BRANCH   8  10
ATOM      9  C   UNL     1      46.526   3.684   7.066  0.00  0.00    +0.000 C 
ATOM     10  C   UNL     1      45.588   2.978   8.035  0.00  0.00    +0.000 C 
ENDBRANCH   8  10
ENDBRANCH   7   8
ENDBRANCH   1   7
BRANCH   3  11
ATOM     11  C   UNL     1      47.038   3.442  14.618  0.00  0.00    +0.000 C 
BRANCH  11  12
ATOM     12  C   UNL     1      47.186   4.270  15.906  0.00  0.00    +0.000 C 
BRANCH  12  13
ATOM     13  C   UNL     1      48.508   4.091  16.601  0.00  0.00    +0.000 A 
ATOM     14  C   UNL     1      49.013   2.807  16.833  0.00  0.00    +0.000 A 
ATOM     15  C   UNL     1      50.264   2.637  17.428  0.00  0.00    +0.000 A 
ATOM     16  C   UNL     1      51.026   3.752  17.785  0.00  0.00    +0.000 A 
ATOM     17  C   UNL     1      50.517   5.038  17.580  0.00  0.00    +0.000 A 
ATOM     18  C   UNL     1      49.259   5.208  16.990  0.00  0.00    +0.000 A 
BRANCH  16  19
ATOM     19  C   UNL     1      52.363   3.519  18.395  0.00  0.00    +0.000 C 
ATOM     20  N   UNL     1      52.690   2.234  18.734  0.00  0.00    +0.000 N 
ATOM     21  O   UNL     1      53.138   4.440  18.618  0.00  0.00    +0.000 OA
ATOM     22  H   UNL     1      52.003   1.499  18.799  0.00  0.00    +0.000 HD
ATOM     23  H   UNL     1      53.552   2.124  19.250  0.00  0.00    +0.000 HD
ENDBRANCH  16  19
ENDBRANCH  12  13
ENDBRANCH  11  12
ENDBRANCH   3  11
BRANCH   5  24
ATOM     24  S   UNL     1      45.509   7.968  12.715  0.00  0.00    +0.000 S 
BRANCH  24  25
ATOM     25  C   UNL     1      47.279   8.465  12.668  0.00  0.00    +0.000 C 
ATOM     26  C   UNL     1      48.174   7.674  11.725  0.00  0.00    +0.000 C 
ATOM     27  C   UNL     1      49.121   6.921  12.641  0.00  0.00    +0.000 C 
ATOM     28  N   UNL     1      49.308   7.794  13.806  0.00  0.00    +0.000 NA
ATOM     29  C   UNL     1      48.009   8.457  14.016  0.00  0.00    +0.000 C 
ATOM     30  H   UNL     1      50.010   8.498  13.578  0.00  0.00    +0.000 HD
ENDBRANCH  24  25
ENDBRANCH   5  24
TORSDOF 9
ENDMDL
MODEL 9
REMARK VINA RESULT:    -5.897      4.482      9.005
REMARK INTER + INTRA:         -10.293
REMARK INTER:                  -9.305
REMARK INTRA:                  -0.988
REMARK UNBOUND:                -1.294
REMARK  Name = 
REMARK  10 active torsions:
REMARK  status: ('A' for Active; 'I' for Inactive)
REMARK    1  A    between atoms: C_1  and  C_2
REMARK    2  A    between atoms: C_2  and  C_3
REMARK    3  A    between atoms: C_3  and  C_4
REMARK    4  A    between atoms: C_4  and  C_5
REMARK    5  A    between atoms: C_7  and  C_8
REMARK    6  A    between atoms: C_8  and  C_9
REMARK    7  A    between atoms: C_9  and  C_10
REMARK    8  A    between atoms: C_13  and  C_14
REMARK    9  A    between atoms: C_20  and  S_21
REMARK   10  A    between atoms: S_21  and  C_22
REMARK                            x       y       z     vdW  Elec       q    Type
REMARK                         _______ _______ _______ _____ _____    ______ ____
ROOT
ATOM      1  C   UNL     1      44.528   5.568  11.412  0.00  0.00    +0.000 A 
ATOM      2  C   UNL     1      45.517   5.105  12.278  0.00  0.00    +0.000 A 
ATOM      3  C   UNL     1      46.285   6.005  13.011  0.00  0.00    +0.000 A 
ATOM      4  N   UNL     1      46.061   7.341  12.956  0.00  0.00    +0.000 NA
ATOM      5  C   UNL     1      45.086   7.787  12.128  0.00  0.00    +0.000 A 
ATOM      6  C   UNL     1      44.336   6.944  11.313  0.00  0.00    +0.000 A 
ENDROOT
BRANCH   1   7
ATOM      7  C   UNL     1      43.684   4.575  10.653  0.00  0.00    +0.000 C 
BRANCH   7   8
ATOM      8  C   UNL     1      44.422   3.238  10.515  0.00  0.00    +0.000 C 
BRANCH   8  10
ATOM      9  C   UNL     1      45.068   3.943   8.199  0.00  0.00    +0.000 C 
ATOM     10  C   UNL     1      44.563   2.796   9.063  0.00  0.00    +0.000 C 
ENDBRANCH   8  10
ENDBRANCH   7   8
ENDBRANCH   1   7
BRANCH   3  11
ATOM     11  C   UNL     1      47.377   5.517  13.940  0.00  0.00    +0.000 C 
BRANCH  11  12
ATOM     12  C   UNL     1      46.959   4.319  14.808  0.00  0.00    +0.000 C 
BRANCH  12  13
ATOM     13  C   UNL     1      47.568   4.316  16.184  0.00  0.00    +0.000 A 
ATOM     14  C   UNL     1      48.022   5.511  16.753  0.00  0.00    +0.000 A 
ATOM     15  C   UNL     1      48.538   5.523  18.050  0.00  0.00    +0.000 A 
ATOM     16  C   UNL     1      48.592   4.341  18.793  0.00  0.00    +0.000 A 
ATOM     17  C   UNL     1      48.165   3.139  18.220  0.00  0.00    +0.000 A 
ATOM     18  C   UNL     1      47.654   3.126  16.917  0.00  0.00    +0.000 A 
BRANCH  16  19
ATOM     19  C   UNL     1      49.129   4.410  20.178  0.00  0.00    +0.000 C 
ATOM     20  N   UNL     1      50.477   4.590  20.328  0.00  0.00    +0.000 N 
ATOM     21  O   UNL     1      48.403   4.280  21.157  0.00  0.00    +0.000 OA
ATOM     22  H   UNL     1      51.130   4.454  19.572  0.00  0.00    +0.000 HD
ATOM     23  H   UNL     1      50.825   4.516  21.274  0.00  0.00    +0.000 HD
ENDBRANCH  16  19
ENDBRANCH  12  13
ENDBRANCH  11  12
ENDBRANCH   3  11
BRANCH   5  24
ATOM     24  S   UNL     1      44.846   9.551  11.998  0.00  0.00    +0.000 S 
BRANCH  24  25
ATOM     25  C   UNL     1      43.707   9.722  10.563  0.00  0.00    +0.000 C 
ATOM     26  C   UNL     1      44.057  10.807   9.555  0.00  0.00    +0.000 C 
ATOM     27  C   UNL     1      42.938  11.823   9.687  0.00  0.00    +0.000 C 
ATOM     28  N   UNL     1      41.746  11.044  10.044  0.00  0.00    +0.000 NA
ATOM     29  C   UNL     1      42.232   9.954  10.909  0.00  0.00    +0.000 C 
ATOM     30  H   UNL     1      41.350  10.645   9.193  0.00  0.00    +0.000 HD
ENDBRANCH  24  25
ENDBRANCH   5  24
TORSDOF 9
ENDMDL
