MODEL 1
REMARK VINA RESULT:    -7.926      0.000      0.000
REMARK INTER + INTRA:         -11.684
REMARK INTER:                 -10.706
REMARK INTRA:                  -0.977
REMARK UNBOUND:                -0.977
REMARK  Name = 
REMARK  6 active torsions:
REMARK  status: ('A' for Active; 'I' for Inactive)
REMARK    1  A    between atoms: C_2  and  C_4
REMARK    2  A    between atoms: C_7  and  O_8
REMARK    3  A    between atoms: O_8  and  C_9
REMARK    4  A    between atoms: C_9  and  C_10
REMARK    5  A    between atoms: C_10  and  C_11
REMARK    6  A    between atoms: C_15  and  C_16
REMARK                            x       y       z     vdW  Elec       q    Type
REMARK                         _______ _______ _______ _____ _____    ______ ____
ROOT
ATOM      1  C   UNL     1      43.247   5.065  12.312  0.00  0.00    +0.000 C 
ENDROOT
BRANCH   1   2
ATOM      2  C   UNL     1      44.683   5.121  12.767  0.00  0.00    +0.000 A 
ATOM      3  C   UNL     1      45.366   3.932  13.038  0.00  0.00    +0.000 A 
ATOM      4  C   UNL     1      46.682   3.967  13.478  0.00  0.00    +0.000 A 
ATOM      5  C   UNL     1      47.327   5.194  13.643  0.00  0.00    +0.000 A 
ATOM      6  C   UNL     1      46.682   6.409  13.373  0.00  0.00    +0.000 A 
ATOM      7  C   UNL     1      45.338   6.353  12.955  0.00  0.00    +0.000 A 
BRANCH   6   8
ATOM      8  C   UNL     1      47.381   7.764  13.535  0.00  0.00    +0.000 C 
ATOM      9  C   UNL     1      47.598   8.497  12.195  0.00  0.00    +0.000 C 
ATOM     10  C   UNL     1      48.713   7.847  11.376  0.00  0.00    +0.000 C 
ATOM     11  C   UNL     1      50.000   7.665  12.184  0.00  0.00    +0.000 C 
ATOM     12  N   UNL     1      49.788   7.047  13.490  0.00  0.00    +0.000 NA
ATOM     13  C   UNL     1      48.746   7.729  14.268  0.00  0.00    +0.000 C 
ATOM     14  H   UNL     1      50.662   7.032  14.013  0.00  0.00    +0.000 HD
ENDBRANCH   6   8
ENDBRANCH   1   2
BRANCH   1  15
ATOM     15  C   UNL     1      43.073   4.112  11.133  0.00  0.00    +0.000 C 
BRANCH  15  16
ATOM     16  O   UNL     1      43.652   4.707   9.969  0.00  0.00    +0.000 OA
BRANCH  16  20
ATOM     17  C   UNL     1      46.241   2.125   7.961  0.00  0.00    +0.000 A 
ATOM     18  C   UNL     1      46.303   3.491   7.668  0.00  0.00    +0.000 A 
ATOM     19  C   UNL     1      45.448   4.387   8.320  0.00  0.00    +0.000 A 
ATOM     20  C   UNL     1      44.528   3.926   9.263  0.00  0.00    +0.000 A 
ATOM     21  C   UNL     1      44.457   2.558   9.540  0.00  0.00    +0.000 A 
ATOM     22  C   UNL     1      45.304   1.657   8.886  0.00  0.00    +0.000 A 
BRANCH  17  24
ATOM     23  N   UNL     1      48.215   1.652   6.618  0.00  0.00    +0.000 N 
ATOM     24  C   UNL     1      47.136   1.147   7.292  0.00  0.00    +0.000 C 
ATOM     25  O   UNL     1      46.946  -0.059   7.369  0.00  0.00    +0.000 OA
ATOM     26  H   UNL     1      48.877   0.973   6.264  0.00  0.00    +0.000 HD
ATOM     27  H   UNL     1      48.542   2.597   6.757  0.00  0.00    +0.000 HD
ENDBRANCH  17  24
ENDBRANCH  16  20
ENDBRANCH  15  16
ENDBRANCH   1  15
TORSDOF 6
ENDMDL
MODEL 2
REMARK VINA RESULT:    -7.916      1.095      1.741
REMARK INTER + INTRA:         -11.670
REMARK INTER:                 -10.918
REMARK INTRA:                  -0.752
REMARK UNBOUND:                -0.977
REMARK  Name = 
REMARK  6 active torsions:
REMARK  status: ('A' for Active; 'I' for Inactive)
REMARK    1  A    between atoms: C_2  and  C_4
REMARK    2  A    between atoms: C_7  and  O_8
REMARK    3  A    between atoms: O_8  and  C_9
REMARK    4  A    between atoms: C_9  and  C_10
REMARK    5  A    between atoms: C_10  and  C_11
REMARK    6  A    between atoms: C_15  and  C_16
REMARK                            x       y       z     vdW  Elec       q    Type
REMARK                         _______ _______ _______ _____ _____    ______ ____
ROOT
ATOM      1  C   UNL     1      43.378   4.407  12.426  0.00  0.00    +0.000 C 
ENDROOT
BRANCH   1   2
ATOM      2  C   UNL     1      44.807   4.800  12.701  0.00  0.00    +0.000 A 
ATOM      3  C   UNL     1      45.653   3.903  13.361  0.00  0.00    +0.000 A 
ATOM      4  C   UNL     1      46.965   4.257  13.640  0.00  0.00    +0.000 A 
ATOM      5  C   UNL     1      47.444   5.511  13.255  0.00  0.00    +0.000 A 
ATOM      6  C   UNL     1      46.633   6.436  12.585  0.00  0.00    +0.000 A 
ATOM      7  C   UNL     1      45.296   6.068  12.335  0.00  0.00    +0.000 A 
BRANCH   6   8
ATOM      8  C   UNL     1      47.146   7.811  12.141  0.00  0.00    +0.000 C 
ATOM      9  C   UNL     1      48.677   7.952  12.258  0.00  0.00    +0.000 C 
ATOM     10  C   UNL     1      49.118   8.087  13.715  0.00  0.00    +0.000 C 
ATOM     11  C   UNL     1      48.350   9.181  14.459  0.00  0.00    +0.000 C 
ATOM     12  N   UNL     1      46.902   9.102  14.283  0.00  0.00    +0.000 NA
ATOM     13  C   UNL     1      46.515   9.025  12.869  0.00  0.00    +0.000 C 
ATOM     14  H   UNL     1      46.454   9.903  14.725  0.00  0.00    +0.000 HD
ENDBRANCH   6   8
ENDBRANCH   1   2
BRANCH   1  15
ATOM     15  C   UNL     1      43.284   3.438  11.251  0.00  0.00    +0.000 C 
BRANCH  15  16
ATOM     16  O   UNL     1      43.686   4.117  10.059  0.00  0.00    +0.000 OA
BRANCH  16  20
ATOM     17  C   UNL     1      46.540   2.382   7.560  0.00  0.00    +0.000 A 
ATOM     18  C   UNL     1      45.795   1.548   8.402  0.00  0.00    +0.000 A 
ATOM     19  C   UNL     1      44.831   2.095   9.255  0.00  0.00    +0.000 A 
ATOM     20  C   UNL     1      44.606   3.472   9.276  0.00  0.00    +0.000 A 
ATOM     21  C   UNL     1      45.364   4.304   8.448  0.00  0.00    +0.000 A 
ATOM     22  C   UNL     1      46.334   3.764   7.597  0.00  0.00    +0.000 A 
BRANCH  17  24
ATOM     23  N   UNL     1      48.633   2.643   6.347  0.00  0.00    +0.000 N 
ATOM     24  C   UNL     1      47.568   1.835   6.638  0.00  0.00    +0.000 C 
ATOM     25  O   UNL     1      47.493   0.701   6.187  0.00  0.00    +0.000 OA
ATOM     26  H   UNL     1      49.380   2.220   5.811  0.00  0.00    +0.000 HD
ATOM     27  H   UNL     1      48.856   3.460   6.898  0.00  0.00    +0.000 HD
ENDBRANCH  17  24
ENDBRANCH  16  20
ENDBRANCH  15  16
ENDBRANCH   1  15
TORSDOF 6
ENDMDL
MODEL 3
REMARK VINA RESULT:    -7.636      1.383      2.084
REMARK INTER + INTRA:         -11.291
REMARK INTER:                 -10.290
REMARK INTRA:                  -1.002
REMARK UNBOUND:                -0.977
REMARK  Name = 
REMARK  6 active torsions:
REMARK  status: ('A' for Active; 'I' for Inactive)
REMARK    1  A    between atoms: C_2  and  C_4
REMARK    2  A    between atoms: C_7  and  O_8
REMARK    3  A    between atoms: O_8  and  C_9
REMARK    4  A    between atoms: C_9  and  C_10
REMARK    5  A    between atoms: C_10  and  C_11
REMARK    6  A    between atoms: C_15  and  C_16
REMARK                            x       y       z     vdW  Elec       q    Type
REMARK                         _______ _______ _______ _____ _____    ______ ____
ROOT
ATOM      1  C   UNL     1      43.556   4.301  12.855  0.00  0.00    +0.000 C 
ENDROOT
BRANCH   1   2
ATOM      2  C   UNL     1      44.484   5.429  12.484  0.00  0.00    +0.000 A 
ATOM      3  C   UNL     1      43.994   6.511  11.747  0.00  0.00    +0.000 A 
ATOM      4  C   UNL     1      44.840   7.547  11.379  0.00  0.00    +0.000 A 
ATOM      5  C   UNL     1      46.185   7.511  11.753  0.00  0.00    +0.000 A 
ATOM      6  C   UNL     1      46.716   6.451  12.499  0.00  0.00    +0.000 A 
ATOM      7  C   UNL     1      45.846   5.395  12.838  0.00  0.00    +0.000 A 
BRANCH   6   8
ATOM      8  C   UNL     1      48.187   6.403  12.929  0.00  0.00    +0.000 C 
ATOM      9  C   UNL     1      48.390   6.714  14.426  0.00  0.00    +0.000 C 
ATOM     10  C   UNL     1      48.193   8.200  14.721  0.00  0.00    +0.000 C 
ATOM     11  C   UNL     1      49.023   9.094  13.798  0.00  0.00    +0.000 C 
ATOM     12  N   UNL     1      48.900   8.750  12.384  0.00  0.00    +0.000 NA
ATOM     13  C   UNL     1      49.146   7.323  12.133  0.00  0.00    +0.000 C 
ATOM     14  H   UNL     1      49.539   9.317  11.830  0.00  0.00    +0.000 HD
ENDBRANCH   6   8
ENDBRANCH   1   2
BRANCH   1  15
ATOM     15  C   UNL     1      43.832   3.055  12.020  0.00  0.00    +0.000 C 
BRANCH  15  16
ATOM     16  O   UNL     1      43.376   3.282  10.685  0.00  0.00    +0.000 OA
BRANCH  16  20
ATOM     17  C   UNL     1      46.290   2.810   7.738  0.00  0.00    +0.000 A 
ATOM     18  C   UNL     1      45.826   4.100   8.016  0.00  0.00    +0.000 A 
ATOM     19  C   UNL     1      44.848   4.297   8.996  0.00  0.00    +0.000 A 
ATOM     20  C   UNL     1      44.326   3.212   9.701  0.00  0.00    +0.000 A 
ATOM     21  C   UNL     1      44.778   1.922   9.407  0.00  0.00    +0.000 A 
ATOM     22  C   UNL     1      45.751   1.718   8.424  0.00  0.00    +0.000 A 
BRANCH  17  24
ATOM     23  N   UNL     1      47.226   3.269   5.538  0.00  0.00    +0.000 N 
ATOM     24  C   UNL     1      47.331   2.565   6.707  0.00  0.00    +0.000 C 
ATOM     25  O   UNL     1      48.265   1.801   6.903  0.00  0.00    +0.000 OA
ATOM     26  H   UNL     1      48.000   3.179   4.893  0.00  0.00    +0.000 HD
ATOM     27  H   UNL     1      46.636   4.085   5.452  0.00  0.00    +0.000 HD
ENDBRANCH  17  24
ENDBRANCH  16  20
ENDBRANCH  15  16
ENDBRANCH   1  15
TORSDOF 6
ENDMDL
MODEL 4
REMARK VINA RESULT:    -6.970      2.561      3.517
REMARK INTER + INTRA:         -10.392
REMARK INTER:                  -9.813
REMARK INTRA:                  -0.580
REMARK UNBOUND:                -0.977
REMARK  Name = 
REMARK  6 active torsions:
REMARK  status: ('A' for Active; 'I' for Inactive)
REMARK    1  A    between atoms: C_2  and  C_4
REMARK    2  A    between atoms: C_7  and  O_8
REMARK    3  A    between atoms: O_8  and  C_9
REMARK    4  A    between atoms: C_9  and  C_10
REMARK    5  A    between atoms: C_10  and  C_11
REMARK    6  A    between atoms: C_15  and  C_16
REMARK                            x       y       z     vdW  Elec       q    Type
REMARK                         _______ _______ _______ _____ _____    ______ ____
ROOT
ATOM      1  C   UNL     1      45.624   4.002  12.633  0.00  0.00    +0.000 C 
ENDROOT
BRANCH   1   2
ATOM      2  C   UNL     1      46.545   4.732  13.577  0.00  0.00    +0.000 A 
ATOM      3  C   UNL     1      47.210   5.881  13.139  0.00  0.00    +0.000 A 
ATOM      4  C   UNL     1      48.077   6.554  13.988  0.00  0.00    +0.000 A 
ATOM      5  C   UNL     1      48.281   6.083  15.287  0.00  0.00    +0.000 A 
ATOM      6  C   UNL     1      47.628   4.941  15.769  0.00  0.00    +0.000 A 
ATOM      7  C   UNL     1      46.774   4.257  14.882  0.00  0.00    +0.000 A 
BRANCH   6   8
ATOM      8  C   UNL     1      47.829   4.419  17.197  0.00  0.00    +0.000 C 
ATOM      9  C   UNL     1      48.981   5.123  17.942  0.00  0.00    +0.000 C 
ATOM     10  C   UNL     1      50.345   4.670  17.421  0.00  0.00    +0.000 C 
ATOM     11  C   UNL     1      50.482   3.146  17.392  0.00  0.00    +0.000 C 
ATOM     12  N   UNL     1      49.352   2.469  16.762  0.00  0.00    +0.000 NA
ATOM     13  C   UNL     1      48.063   2.893  17.323  0.00  0.00    +0.000 C 
ATOM     14  H   UNL     1      49.458   1.460  16.851  0.00  0.00    +0.000 HD
ENDBRANCH   6   8
ENDBRANCH   1   2
BRANCH   1  15
ATOM     15  C   UNL     1      44.634   4.956  11.972  0.00  0.00    +0.000 C 
BRANCH  15  16
ATOM     16  O   UNL     1      43.936   4.255  10.940  0.00  0.00    +0.000 OA
BRANCH  16  20
ATOM     17  C   UNL     1      46.196   2.711   7.791  0.00  0.00    +0.000 A 
ATOM     18  C   UNL     1      46.147   4.099   7.959  0.00  0.00    +0.000 A 
ATOM     19  C   UNL     1      45.397   4.653   9.002  0.00  0.00    +0.000 A 
ATOM     20  C   UNL     1      44.692   3.829   9.881  0.00  0.00    +0.000 A 
ATOM     21  C   UNL     1      44.728   2.444   9.699  0.00  0.00    +0.000 A 
ATOM     22  C   UNL     1      45.470   1.884   8.654  0.00  0.00    +0.000 A 
BRANCH  17  24
ATOM     23  N   UNL     1      47.412   2.914   5.693  0.00  0.00    +0.000 N 
ATOM     24  C   UNL     1      46.984   2.089   6.698  0.00  0.00    +0.000 C 
ATOM     25  O   UNL     1      47.277   0.901   6.708  0.00  0.00    +0.000 OA
ATOM     26  H   UNL     1      48.041   2.502   5.016  0.00  0.00    +0.000 HD
ATOM     27  H   UNL     1      47.417   3.919   5.788  0.00  0.00    +0.000 HD
ENDBRANCH  17  24
ENDBRANCH  16  20
ENDBRANCH  15  16
ENDBRANCH   1  15
TORSDOF 6
ENDMDL
MODEL 5
REMARK VINA RESULT:    -6.714      4.061      7.312
REMARK INTER + INTRA:         -10.046
REMARK INTER:                  -9.008
REMARK INTRA:                  -1.038
REMARK UNBOUND:                -0.977
REMARK  Name = 
REMARK  6 active torsions:
REMARK  status: ('A' for Active; 'I' for Inactive)
REMARK    1  A    between atoms: C_2  and  C_4
REMARK    2  A    between atoms: C_7  and  O_8
REMARK    3  A    between atoms: O_8  and  C_9
REMARK    4  A    between atoms: C_9  and  C_10
REMARK    5  A    between atoms: C_10  and  C_11
REMARK    6  A    between atoms: C_15  and  C_16
REMARK                            x       y       z     vdW  Elec       q    Type
REMARK                         _______ _______ _______ _____ _____    ______ ____
ROOT
ATOM      1  C   UNL     1      49.001   8.190  11.978  0.00  0.00    +0.000 C 
ENDROOT
BRANCH   1   2
ATOM      2  C   UNL     1      47.509   7.996  11.886  0.00  0.00    +0.000 A 
ATOM      3  C   UNL     1      46.656   9.061  12.192  0.00  0.00    +0.000 A 
ATOM      4  C   UNL     1      45.280   8.893  12.132  0.00  0.00    +0.000 A 
ATOM      5  C   UNL     1      44.746   7.658  11.760  0.00  0.00    +0.000 A 
ATOM      6  C   UNL     1      45.565   6.567  11.438  0.00  0.00    +0.000 A 
ATOM      7  C   UNL     1      46.958   6.750  11.531  0.00  0.00    +0.000 A 
BRANCH   6   8
ATOM      8  C   UNL     1      44.995   5.208  11.013  0.00  0.00    +0.000 C 
ATOM      9  C   UNL     1      43.468   5.231  10.803  0.00  0.00    +0.000 C 
ATOM     10  C   UNL     1      42.720   5.300  12.134  0.00  0.00    +0.000 C 
ATOM     11  C   UNL     1      43.182   4.224  13.119  0.00  0.00    +0.000 C 
ATOM     12  N   UNL     1      44.633   4.142  13.259  0.00  0.00    +0.000 NA
ATOM     13  C   UNL     1      45.313   4.025  11.962  0.00  0.00    +0.000 C 
ATOM     14  H   UNL     1      44.881   3.355  13.855  0.00  0.00    +0.000 HD
ENDBRANCH   6   8
ENDBRANCH   1   2
BRANCH   1  15
ATOM     15  C   UNL     1      49.618   7.274  13.030  0.00  0.00    +0.000 C 
BRANCH  15  16
ATOM     16  O   UNL     1      49.065   7.601  14.308  0.00  0.00    +0.000 OA
BRANCH  16  20
ATOM     17  C   UNL     1      47.905   4.460  16.796  0.00  0.00    +0.000 A 
ATOM     18  C   UNL     1      47.323   4.556  15.527  0.00  0.00    +0.000 A 
ATOM     19  C   UNL     1      47.686   5.598  14.666  0.00  0.00    +0.000 A 
ATOM     20  C   UNL     1      48.626   6.548  15.065  0.00  0.00    +0.000 A 
ATOM     21  C   UNL     1      49.192   6.460  16.340  0.00  0.00    +0.000 A 
ATOM     22  C   UNL     1      48.828   5.425  17.207  0.00  0.00    +0.000 A 
BRANCH  17  24
ATOM     23  N   UNL     1      48.349   3.199  18.829  0.00  0.00    +0.000 N 
ATOM     24  C   UNL     1      47.546   3.366  17.733  0.00  0.00    +0.000 C 
ATOM     25  O   UNL     1      46.557   2.667  17.561  0.00  0.00    +0.000 OA
ATOM     26  H   UNL     1      48.031   2.528  19.516  0.00  0.00    +0.000 HD
ATOM     27  H   UNL     1      48.998   3.910  19.134  0.00  0.00    +0.000 HD
ENDBRANCH  17  24
ENDBRANCH  16  20
ENDBRANCH  15  16
ENDBRANCH   1  15
TORSDOF 6
ENDMDL
MODEL 6
REMARK VINA RESULT:    -6.610      3.420      5.884
REMARK INTER + INTRA:          -9.906
REMARK INTER:                  -8.788
REMARK INTRA:                  -1.118
REMARK UNBOUND:                -0.977
REMARK  Name = 
REMARK  6 active torsions:
REMARK  status: ('A' for Active; 'I' for Inactive)
REMARK    1  A    between atoms: C_2  and  C_4
REMARK    2  A    between atoms: C_7  and  O_8
REMARK    3  A    between atoms: O_8  and  C_9
REMARK    4  A    between atoms: C_9  and  C_10
REMARK    5  A    between atoms: C_10  and  C_11
REMARK    6  A    between atoms: C_15  and  C_16
REMARK                            x       y       z     vdW  Elec       q    Type
REMARK                         _______ _______ _______ _____ _____    ______ ____
ROOT
ATOM      1  C   UNL     1      49.418   8.210  13.905  0.00  0.00    +0.000 C 
ENDROOT
BRANCH   1   2
ATOM      2  C   UNL     1      49.872   7.387  15.083  0.00  0.00    +0.000 A 
ATOM      3  C   UNL     1      51.207   7.449  15.492  0.00  0.00    +0.000 A 
ATOM      4  C   UNL     1      51.647   6.682  16.561  0.00  0.00    +0.000 A 
ATOM      5  C   UNL     1      50.750   5.850  17.234  0.00  0.00    +0.000 A 
ATOM      6  C   UNL     1      49.401   5.765  16.863  0.00  0.00    +0.000 A 
ATOM      7  C   UNL     1      48.982   6.530  15.757  0.00  0.00    +0.000 A 
BRANCH   6   8
ATOM      8  C   UNL     1      48.400   4.868  17.600  0.00  0.00    +0.000 C 
ATOM      9  C   UNL     1      49.074   3.720  18.379  0.00  0.00    +0.000 C 
ATOM     10  C   UNL     1      49.588   2.631  17.437  0.00  0.00    +0.000 C 
ATOM     11  C   UNL     1      48.516   2.152  16.457  0.00  0.00    +0.000 C 
ATOM     12  N   UNL     1      47.816   3.239  15.778  0.00  0.00    +0.000 NA
ATOM     13  C   UNL     1      47.292   4.239  16.718  0.00  0.00    +0.000 C 
ATOM     14  H   UNL     1      47.059   2.864  15.209  0.00  0.00    +0.000 HD
ENDBRANCH   6   8
ENDBRANCH   1   2
BRANCH   1  15
ATOM     15  C   UNL     1      48.992   7.324  12.737  0.00  0.00    +0.000 C 
BRANCH  15  16
ATOM     16  O   UNL     1      47.627   7.604  12.419  0.00  0.00    +0.000 OA
BRANCH  16  20
ATOM     17  C   UNL     1      45.043   4.382  11.829  0.00  0.00    +0.000 A 
ATOM     18  C   UNL     1      45.631   4.544  13.088  0.00  0.00    +0.000 A 
ATOM     19  C   UNL     1      46.505   5.611  13.322  0.00  0.00    +0.000 A 
ATOM     20  C   UNL     1      46.799   6.520  12.305  0.00  0.00    +0.000 A 
ATOM     21  C   UNL     1      46.224   6.345  11.043  0.00  0.00    +0.000 A 
ATOM     22  C   UNL     1      45.355   5.276  10.801  0.00  0.00    +0.000 A 
BRANCH  17  24
ATOM     23  N   UNL     1      43.831   2.411  12.580  0.00  0.00    +0.000 N 
ATOM     24  C   UNL     1      44.108   3.264  11.547  0.00  0.00    +0.000 C 
ATOM     25  O   UNL     1      43.574   3.129  10.455  0.00  0.00    +0.000 OA
ATOM     26  H   UNL     1      43.108   1.723  12.408  0.00  0.00    +0.000 HD
ATOM     27  H   UNL     1      44.039   2.642  13.541  0.00  0.00    +0.000 HD
ENDBRANCH  17  24
ENDBRANCH  16  20
ENDBRANCH  15  16
ENDBRANCH   1  15
TORSDOF 6
ENDMDL
MODEL 7
REMARK VINA RESULT:    -6.509      3.077      5.170
REMARK INTER + INTRA:          -9.769
REMARK INTER:                  -9.011
REMARK INTRA:                  -0.759
REMARK UNBOUND:                -0.977
REMARK  Name = 
REMARK  6 active torsions:
REMARK  status: ('A' for Active; 'I' for Inactive)
REMARK    1  A    between atoms: C_2  and  C_4
REMARK    2  A    between atoms: C_7  and  O_8
REMARK    3  A    between atoms: O_8  and  C_9
REMARK    4  A    between atoms: C_9  and  C_10
REMARK    5  A    between atoms: C_10  and  C_11
REMARK    6  A    between atoms: C_15  and  C_16
REMARK                            x       y       z     vdW  Elec       q    Type
REMARK                         _______ _______ _______ _____ _____    ______ ____
ROOT
ATOM      1  C   UNL     1      46.348   3.987   7.050  0.00  0.00    +0.000 C 
ENDROOT
BRANCH   1   2
ATOM      2  C   UNL     1      45.583   3.657   8.305  0.00  0.00    +0.000 A 
ATOM      3  C   UNL     1      45.152   2.345   8.525  0.00  0.00    +0.000 A 
ATOM      4  C   UNL     1      44.428   2.029   9.666  0.00  0.00    +0.000 A 
ATOM      5  C   UNL     1      44.135   3.024  10.600  0.00  0.00    +0.000 A 
ATOM      6  C   UNL     1      44.555   4.349  10.424  0.00  0.00    +0.000 A 
ATOM      7  C   UNL     1      45.265   4.655   9.246  0.00  0.00    +0.000 A 
BRANCH   6   8
ATOM      8  C   UNL     1      44.255   5.450  11.448  0.00  0.00    +0.000 C 
ATOM      9  C   UNL     1      45.330   6.556  11.481  0.00  0.00    +0.000 C 
ATOM     10  C   UNL     1      46.613   6.069  12.153  0.00  0.00    +0.000 C 
ATOM     11  C   UNL     1      46.352   5.435  13.521  0.00  0.00    +0.000 C 
ATOM     12  N   UNL     1      45.277   4.447  13.513  0.00  0.00    +0.000 NA
ATOM     13  C   UNL     1      44.045   4.967  12.906  0.00  0.00    +0.000 C 
ATOM     14  H   UNL     1      45.091   4.127  14.461  0.00  0.00    +0.000 HD
ENDBRANCH   6   8
ENDBRANCH   1   2
BRANCH   1  15
ATOM     15  C   UNL     1      47.300   2.858   6.665  0.00  0.00    +0.000 C 
BRANCH  15  16
ATOM     16  O   UNL     1      47.374   2.783   5.240  0.00  0.00    +0.000 OA
BRANCH  16  20
ATOM     17  C   UNL     1      46.554  -1.027   3.750  0.00  0.00    +0.000 A 
ATOM     18  C   UNL     1      46.275   0.080   2.941  0.00  0.00    +0.000 A 
ATOM     19  C   UNL     1      46.535   1.373   3.408  0.00  0.00    +0.000 A 
ATOM     20  C   UNL     1      47.070   1.570   4.682  0.00  0.00    +0.000 A 
ATOM     21  C   UNL     1      47.331   0.463   5.495  0.00  0.00    +0.000 A 
ATOM     22  C   UNL     1      47.067  -0.832   5.036  0.00  0.00    +0.000 A 
BRANCH  17  24
ATOM     23  N   UNL     1      45.415  -2.566   2.249  0.00  0.00    +0.000 N 
ATOM     24  C   UNL     1      46.296  -2.413   3.285  0.00  0.00    +0.000 C 
ATOM     25  O   UNL     1      46.871  -3.375   3.774  0.00  0.00    +0.000 OA
ATOM     26  H   UNL     1      45.334  -3.500   1.868  0.00  0.00    +0.000 HD
ATOM     27  H   UNL     1      45.135  -1.794   1.662  0.00  0.00    +0.000 HD
ENDBRANCH  17  24
ENDBRANCH  16  20
ENDBRANCH  15  16
ENDBRANCH   1  15
TORSDOF 6
ENDMDL
MODEL 8
REMARK VINA RESULT:    -6.385      4.003      6.356
REMARK INTER + INTRA:          -9.602
REMARK INTER:                  -8.249
REMARK INTRA:                  -1.353
REMARK UNBOUND:                -0.977
REMARK  Name = 
REMARK  6 active torsions:
REMARK  status: ('A' for Active; 'I' for Inactive)
REMARK    1  A    between atoms: C_2  and  C_4
REMARK    2  A    between atoms: C_7  and  O_8
REMARK    3  A    between atoms: O_8  and  C_9
REMARK    4  A    between atoms: C_9  and  C_10
REMARK    5  A    between atoms: C_10  and  C_11
REMARK    6  A    between atoms: C_15  and  C_16
REMARK                            x       y       z     vdW  Elec       q    Type
REMARK                         _______ _______ _______ _____ _____    ______ ____
ROOT
ATOM      1  C   UNL     1      49.934   8.265  13.874  0.00  0.00    +0.000 C 
ENDROOT
BRANCH   1   2
ATOM      2  C   UNL     1      49.325   8.242  15.252  0.00  0.00    +0.000 A 
ATOM      3  C   UNL     1      48.616   9.357  15.711  0.00  0.00    +0.000 A 
ATOM      4  C   UNL     1      48.067   9.360  16.985  0.00  0.00    +0.000 A 
ATOM      5  C   UNL     1      48.218   8.243  17.809  0.00  0.00    +0.000 A 
ATOM      6  C   UNL     1      48.912   7.102  17.386  0.00  0.00    +0.000 A 
ATOM      7  C   UNL     1      49.485   7.129  16.099  0.00  0.00    +0.000 A 
BRANCH   6   8
ATOM      8  C   UNL     1      49.073   5.860  18.272  0.00  0.00    +0.000 C 
ATOM      9  C   UNL     1      49.496   4.604  17.484  0.00  0.00    +0.000 C 
ATOM     10  C   UNL     1      48.339   4.049  16.654  0.00  0.00    +0.000 C 
ATOM     11  C   UNL     1      47.070   3.846  17.483  0.00  0.00    +0.000 C 
ATOM     12  N   UNL     1      46.711   5.005  18.296  0.00  0.00    +0.000 NA
ATOM     13  C   UNL     1      47.832   5.479  19.118  0.00  0.00    +0.000 C 
ATOM     14  H   UNL     1      45.913   4.781  18.888  0.00  0.00    +0.000 HD
ENDBRANCH   6   8
ENDBRANCH   1   2
BRANCH   1  15
ATOM     15  C   UNL     1      48.867   8.440  12.797  0.00  0.00    +0.000 C 
BRANCH  15  16
ATOM     16  O   UNL     1      48.692   7.196  12.115  0.00  0.00    +0.000 OA
BRANCH  16  20
ATOM     17  C   UNL     1      45.117   5.178  12.859  0.00  0.00    +0.000 A 
ATOM     18  C   UNL     1      46.199   4.957  13.718  0.00  0.00    +0.000 A 
ATOM     19  C   UNL     1      47.414   5.615  13.498  0.00  0.00    +0.000 A 
ATOM     20  C   UNL     1      47.559   6.491  12.422  0.00  0.00    +0.000 A 
ATOM     21  C   UNL     1      46.482   6.695  11.555  0.00  0.00    +0.000 A 
ATOM     22  C   UNL     1      45.267   6.035  11.765  0.00  0.00    +0.000 A 
BRANCH  17  24
ATOM     23  N   UNL     1      42.713   5.302  13.215  0.00  0.00    +0.000 N 
ATOM     24  C   UNL     1      43.812   4.500  13.065  0.00  0.00    +0.000 C 
ATOM     25  O   UNL     1      43.710   3.282  13.062  0.00  0.00    +0.000 OA
ATOM     26  H   UNL     1      41.818   4.831  13.241  0.00  0.00    +0.000 HD
ATOM     27  H   UNL     1      42.721   6.280  12.962  0.00  0.00    +0.000 HD
ENDBRANCH  17  24
ENDBRANCH  16  20
ENDBRANCH  15  16
ENDBRANCH   1  15
TORSDOF 6
ENDMDL
MODEL 9
REMARK VINA RESULT:    -6.302      4.254      6.629
REMARK INTER + INTRA:          -9.489
REMARK INTER:                  -8.479
REMARK INTRA:                  -1.010
REMARK UNBOUND:                -0.977
REMARK  Name = 
REMARK  6 active torsions:
REMARK  status: ('A' for Active; 'I' for Inactive)
REMARK    1  A    between atoms: C_2  and  C_4
REMARK    2  A    between atoms: C_7  and  O_8
REMARK    3  A    between atoms: O_8  and  C_9
REMARK    4  A    between atoms: C_9  and  C_10
REMARK    5  A    between atoms: C_10  and  C_11
REMARK    6  A    between atoms: C_15  and  C_16
REMARK                            x       y       z     vdW  Elec       q    Type
REMARK                         _______ _______ _______ _____ _____    ______ ____
ROOT
ATOM      1  C   UNL     1      48.973   8.081  14.745  0.00  0.00    +0.000 C 
ENDROOT
BRANCH   1   2
ATOM      2  C   UNL     1      49.834   7.215  15.628  0.00  0.00    +0.000 A 
ATOM      3  C   UNL     1      51.226   7.309  15.538  0.00  0.00    +0.000 A 
ATOM      4  C   UNL     1      52.033   6.504  16.329  0.00  0.00    +0.000 A 
ATOM      5  C   UNL     1      51.452   5.602  17.223  0.00  0.00    +0.000 A 
ATOM      6  C   UNL     1      50.062   5.483  17.351  0.00  0.00    +0.000 A 
ATOM      7  C   UNL     1      49.261   6.289  16.520  0.00  0.00    +0.000 A 
BRANCH   6   8
ATOM      8  C   UNL     1      49.408   4.508  18.339  0.00  0.00    +0.000 C 
ATOM      9  C   UNL     1      49.396   3.051  17.833  0.00  0.00    +0.000 C 
ATOM     10  C   UNL     1      48.368   2.854  16.720  0.00  0.00    +0.000 C 
ATOM     11  C   UNL     1      46.982   3.373  17.105  0.00  0.00    +0.000 C 
ATOM     12  N   UNL     1      46.997   4.723  17.663  0.00  0.00    +0.000 NA
ATOM     13  C   UNL     1      47.960   4.861  18.763  0.00  0.00    +0.000 C 
ATOM     14  H   UNL     1      46.064   4.979  17.980  0.00  0.00    +0.000 HD
ENDBRANCH   6   8
ENDBRANCH   1   2
BRANCH   1  15
ATOM     15  C   UNL     1      49.242   7.811  13.268  0.00  0.00    +0.000 C 
BRANCH  15  16
ATOM     16  O   UNL     1      48.923   6.447  12.982  0.00  0.00    +0.000 OA
BRANCH  16  20
ATOM     17  C   UNL     1      44.828   5.659  12.876  0.00  0.00    +0.000 A 
ATOM     18  C   UNL     1      45.638   4.869  13.698  0.00  0.00    +0.000 A 
ATOM     19  C   UNL     1      47.016   5.102  13.758  0.00  0.00    +0.000 A 
ATOM     20  C   UNL     1      47.594   6.120  12.998  0.00  0.00    +0.000 A 
ATOM     21  C   UNL     1      46.784   6.896  12.163  0.00  0.00    +0.000 A 
ATOM     22  C   UNL     1      45.407   6.663  12.094  0.00  0.00    +0.000 A 
BRANCH  17  24
ATOM     23  N   UNL     1      42.694   6.095  11.792  0.00  0.00    +0.000 N 
ATOM     24  C   UNL     1      43.362   5.442  12.792  0.00  0.00    +0.000 C 
ATOM     25  O   UNL     1      42.777   4.684  13.553  0.00  0.00    +0.000 OA
ATOM     26  H   UNL     1      41.718   5.851  11.675  0.00  0.00    +0.000 HD
ATOM     27  H   UNL     1      43.172   6.505  11.003  0.00  0.00    +0.000 HD
ENDBRANCH  17  24
ENDBRANCH  16  20
ENDBRANCH  15  16
ENDBRANCH   1  15
TORSDOF 6
ENDMDL
