MODEL 1
REMARK VINA RESULT:    -8.162      0.000      0.000
REMARK INTER + INTRA:         -11.329
REMARK INTER:                 -10.547
REMARK INTRA:                  -0.782
REMARK UNBOUND:                -0.782
REMARK  Name = 
REMARK  5 active torsions:
REMARK  status: ('A' for Active; 'I' for Inactive)
REMARK    1  A    between atoms: C_2  and  C_4
REMARK    2  A    between atoms: C_8  and  C_9
REMARK    3  A    between atoms: C_9  and  O_10
REMARK    4  A    between atoms: O_10  and  C_11
REMARK    5  A    between atoms: C_15  and  C_16
REMARK                            x       y       z     vdW  Elec       q    Type
REMARK                         _______ _______ _______ _____ _____    ______ ____
ROOT
ATOM      1  O   UNL     1      43.528   6.059  10.710  0.00  0.00    +0.000 OA
ENDROOT
BRANCH   1   2
ATOM      2  C   UNL     1      43.826   4.748  10.460  0.00  0.00    +0.000 A 
ATOM      3  C   UNL     1      43.209   3.811  11.284  0.00  0.00    +0.000 A 
ATOM      4  C   UNL     1      43.483   2.456  11.119  0.00  0.00    +0.000 A 
ATOM      5  C   UNL     1      44.356   2.035  10.110  0.00  0.00    +0.000 A 
ATOM      6  C   UNL     1      44.942   2.955   9.223  0.00  0.00    +0.000 A 
ATOM      7  C   UNL     1      44.660   4.317   9.426  0.00  0.00    +0.000 A 
BRANCH   6   8
ATOM      8  C   UNL     1      45.765   2.529   8.068  0.00  0.00    +0.000 A 
ATOM      9  C   UNL     1      46.027   3.406   7.001  0.00  0.00    +0.000 A 
ATOM     10  C   UNL     1      46.890   3.052   5.962  0.00  0.00    +0.000 A 
ATOM     11  C   UNL     1      47.520   1.811   5.967  0.00  0.00    +0.000 A 
ATOM     12  C   UNL     1      47.264   0.914   6.999  0.00  0.00    +0.000 A 
ATOM     13  C   UNL     1      46.386   1.264   8.028  0.00  0.00    +0.000 A 
ENDBRANCH   6   8
ENDBRANCH   1   2
BRANCH   1  14
ATOM     14  C   UNL     1      43.767   6.485  12.059  0.00  0.00    +0.000 C 
BRANCH  14  19
ATOM     15  C   UNL     1      46.863   5.366  13.736  0.00  0.00    +0.000 A 
ATOM     16  C   UNL     1      47.864   6.169  13.202  0.00  0.00    +0.000 A 
ATOM     17  C   UNL     1      47.508   7.106  12.244  0.00  0.00    +0.000 A 
ATOM     18  C   UNL     1      46.178   7.213  11.855  0.00  0.00    +0.000 A 
ATOM     19  C   UNL     1      45.228   6.358  12.420  0.00  0.00    +0.000 A 
ATOM     20  N   UNL     1      45.553   5.437  13.367  0.00  0.00    +0.000 NA
BRANCH  15  22
ATOM     21  N   UNL     1      47.323   4.850  16.063  0.00  0.00    +0.000 N 
ATOM     22  C   UNL     1      47.213   4.361  14.791  0.00  0.00    +0.000 C 
ATOM     23  O   UNL     1      47.391   3.174  14.542  0.00  0.00    +0.000 OA
ATOM     24  H   UNL     1      47.552   4.222  16.819  0.00  0.00    +0.000 HD
ATOM     25  H   UNL     1      47.159   5.836  16.238  0.00  0.00    +0.000 HD
ENDBRANCH  15  22
ENDBRANCH  14  19
ENDBRANCH   1  14
TORSDOF 5
ENDMDL
MODEL 2
REMARK VINA RESULT:    -7.544      1.852      2.782
REMARK INTER + INTRA:         -10.531
REMARK INTER:                  -9.803
REMARK INTRA:                  -0.727
REMARK UNBOUND:                -0.782
REMARK  Name = 
REMARK  5 active torsions:
REMARK  status: ('A' for Active; 'I' for Inactive)
REMARK    1  A    between atoms: C_2  and  C_4
REMARK    2  A    between atoms: C_8  and  C_9
REMARK    3  A    between atoms: C_9  and  O_10
REMARK    4  A    between atoms: O_10  and  C_11
REMARK    5  A    between atoms: C_15  and  C_16
REMARK                            x       y       z     vdW  Elec       q    Type
REMARK                         _______ _______ _______ _____ _____    ______ ____
ROOT
ATOM      1  O   UNL     1      45.805   6.607  13.267  0.00  0.00    +0.000 OA
ENDROOT
BRANCH   1   2
ATOM      2  C   UNL     1      45.045   5.826  12.440  0.00  0.00    +0.000 A 
ATOM      3  C   UNL     1      43.680   5.794  12.710  0.00  0.00    +0.000 A 
ATOM      4  C   UNL     1      42.839   4.998  11.937  0.00  0.00    +0.000 A 
ATOM      5  C   UNL     1      43.361   4.254  10.874  0.00  0.00    +0.000 A 
ATOM      6  C   UNL     1      44.725   4.319  10.539  0.00  0.00    +0.000 A 
ATOM      7  C   UNL     1      45.552   5.117  11.348  0.00  0.00    +0.000 A 
BRANCH   6   8
ATOM      8  C   UNL     1      45.281   3.645   9.342  0.00  0.00    +0.000 A 
ATOM      9  C   UNL     1      45.867   4.385   8.301  0.00  0.00    +0.000 A 
ATOM     10  C   UNL     1      46.491   3.756   7.221  0.00  0.00    +0.000 A 
ATOM     11  C   UNL     1      46.551   2.367   7.160  0.00  0.00    +0.000 A 
ATOM     12  C   UNL     1      45.962   1.608   8.167  0.00  0.00    +0.000 A 
ATOM     13  C   UNL     1      45.323   2.240   9.236  0.00  0.00    +0.000 A 
ENDBRANCH   6   8
ENDBRANCH   1   2
BRANCH   1  14
ATOM     14  C   UNL     1      47.222   6.454  13.106  0.00  0.00    +0.000 C 
BRANCH  14  19
ATOM     15  C   UNL     1      48.088   4.688  16.234  0.00  0.00    +0.000 A 
ATOM     16  C   UNL     1      48.982   5.531  16.879  0.00  0.00    +0.000 A 
ATOM     17  C   UNL     1      49.325   6.722  16.256  0.00  0.00    +0.000 A 
ATOM     18  C   UNL     1      48.766   7.031  15.021  0.00  0.00    +0.000 A 
ATOM     19  C   UNL     1      47.888   6.124  14.421  0.00  0.00    +0.000 A 
ATOM     20  N   UNL     1      47.531   4.955  15.018  0.00  0.00    +0.000 NA
BRANCH  15  22
ATOM     21  N   UNL     1      48.682   2.505  17.114  0.00  0.00    +0.000 N 
ATOM     22  C   UNL     1      47.679   3.406  16.894  0.00  0.00    +0.000 C 
ATOM     23  O   UNL     1      46.520   3.170  17.220  0.00  0.00    +0.000 OA
ATOM     24  H   UNL     1      48.470   1.624  17.560  0.00  0.00    +0.000 HD
ATOM     25  H   UNL     1      49.632   2.735  16.842  0.00  0.00    +0.000 HD
ENDBRANCH  15  22
ENDBRANCH  14  19
ENDBRANCH   1  14
TORSDOF 5
ENDMDL
MODEL 3
REMARK VINA RESULT:    -7.494      2.478      3.320
REMARK INTER + INTRA:         -10.466
REMARK INTER:                  -9.656
REMARK INTRA:                  -0.810
REMARK UNBOUND:                -0.782
REMARK  Name = 
REMARK  5 active torsions:
REMARK  status: ('A' for Active; 'I' for Inactive)
REMARK    1  A    between atoms: C_2  and  C_4
REMARK    2  A    between atoms: C_8  and  C_9
REMARK    3  A    between atoms: C_9  and  O_10
REMARK    4  A    between atoms: O_10  and  C_11
REMARK    5  A    between atoms: C_15  and  C_16
REMARK                            x       y       z     vdW  Elec       q    Type
REMARK                         _______ _______ _______ _____ _____    ______ ____
ROOT
ATOM      1  O   UNL     1      44.294   6.438  11.144  0.00  0.00    +0.000 OA
ENDROOT
BRANCH   1   2
ATOM      2  C   UNL     1      44.307   5.117  10.789  0.00  0.00    +0.000 A 
ATOM      3  C   UNL     1      43.493   4.273  11.537  0.00  0.00    +0.000 A 
ATOM      4  C   UNL     1      43.471   2.908  11.263  0.00  0.00    +0.000 A 
ATOM      5  C   UNL     1      44.246   2.390  10.220  0.00  0.00    +0.000 A 
ATOM      6  C   UNL     1      45.027   3.230   9.407  0.00  0.00    +0.000 A 
ATOM      7  C   UNL     1      45.042   4.600   9.719  0.00  0.00    +0.000 A 
BRANCH   6   8
ATOM      8  C   UNL     1      45.754   2.729   8.217  0.00  0.00    +0.000 A 
ATOM      9  C   UNL     1      46.012   3.568   7.119  0.00  0.00    +0.000 A 
ATOM     10  C   UNL     1      46.790   3.139   6.041  0.00  0.00    +0.000 A 
ATOM     11  C   UNL     1      47.337   1.860   6.039  0.00  0.00    +0.000 A 
ATOM     12  C   UNL     1      47.083   1.000   7.102  0.00  0.00    +0.000 A 
ATOM     13  C   UNL     1      46.289   1.426   8.170  0.00  0.00    +0.000 A 
ENDBRANCH   6   8
ENDBRANCH   1   2
BRANCH   1  14
ATOM     14  C   UNL     1      44.907   6.727  12.409  0.00  0.00    +0.000 C 
BRANCH  14  19
ATOM     15  C   UNL     1      47.146   9.648  12.082  0.00  0.00    +0.000 A 
ATOM     16  C   UNL     1      48.393   9.107  11.796  0.00  0.00    +0.000 A 
ATOM     17  C   UNL     1      48.504   7.727  11.721  0.00  0.00    +0.000 A 
ATOM     18  C   UNL     1      47.378   6.939  11.928  0.00  0.00    +0.000 A 
ATOM     19  C   UNL     1      46.160   7.552  12.232  0.00  0.00    +0.000 A 
ATOM     20  N   UNL     1      46.025   8.904  12.302  0.00  0.00    +0.000 NA
BRANCH  15  22
ATOM     21  N   UNL     1      45.703  11.595  12.217  0.00  0.00    +0.000 N 
ATOM     22  C   UNL     1      46.988  11.137  12.145  0.00  0.00    +0.000 C 
ATOM     23  O   UNL     1      47.944  11.905  12.132  0.00  0.00    +0.000 OA
ATOM     24  H   UNL     1      45.531  12.589  12.266  0.00  0.00    +0.000 HD
ATOM     25  H   UNL     1      44.933  10.934  12.236  0.00  0.00    +0.000 HD
ENDBRANCH  15  22
ENDBRANCH  14  19
ENDBRANCH   1  14
TORSDOF 5
ENDMDL
MODEL 4
REMARK VINA RESULT:    -7.353      2.098      2.476
REMARK INTER + INTRA:         -10.284
REMARK INTER:                  -9.551
REMARK INTRA:                  -0.733
REMARK UNBOUND:                -0.782
REMARK  Name = 
REMARK  5 active torsions:
REMARK  status: ('A' for Active; 'I' for Inactive)
REMARK    1  A    between atoms: C_2  and  C_4
REMARK    2  A    between atoms: C_8  and  C_9
REMARK    3  A    between atoms: C_9  and  O_10
REMARK    4  A    between atoms: O_10  and  C_11
REMARK    5  A    between atoms: C_15  and  C_16
REMARK                            x       y       z     vdW  Elec       q    Type
REMARK                         _______ _______ _______ _____ _____    ______ ____
ROOT
ATOM      1  O   UNL     1      44.267   6.539  11.106  0.00  0.00    +0.000 OA
ENDROOT
BRANCH   1   2
ATOM      2  C   UNL     1      44.292   5.208  10.792  0.00  0.00    +0.000 A 
ATOM      3  C   UNL     1      43.491   4.379  11.571  0.00  0.00    +0.000 A 
ATOM      4  C   UNL     1      43.482   3.006  11.339  0.00  0.00    +0.000 A 
ATOM      5  C   UNL     1      44.256   2.465  10.308  0.00  0.00    +0.000 A 
ATOM      6  C   UNL     1      45.024   3.287   9.464  0.00  0.00    +0.000 A 
ATOM      7  C   UNL     1      45.026   4.666   9.734  0.00  0.00    +0.000 A 
BRANCH   6   8
ATOM      8  C   UNL     1      45.749   2.757   8.286  0.00  0.00    +0.000 A 
ATOM      9  C   UNL     1      46.078   3.590   7.203  0.00  0.00    +0.000 A 
ATOM     10  C   UNL     1      46.855   3.128   6.138  0.00  0.00    +0.000 A 
ATOM     11  C   UNL     1      47.330   1.820   6.135  0.00  0.00    +0.000 A 
ATOM     12  C   UNL     1      47.005   0.967   7.184  0.00  0.00    +0.000 A 
ATOM     13  C   UNL     1      46.211   1.426   8.238  0.00  0.00    +0.000 A 
ENDBRANCH   6   8
ENDBRANCH   1   2
BRANCH   1  14
ATOM     14  C   UNL     1      44.855   6.870  12.373  0.00  0.00    +0.000 C 
BRANCH  14  19
ATOM     15  C   UNL     1      48.272   8.253  12.125  0.00  0.00    +0.000 A 
ATOM     16  C   UNL     1      48.090   9.627  12.033  0.00  0.00    +0.000 A 
ATOM     17  C   UNL     1      46.793  10.117  12.039  0.00  0.00    +0.000 A 
ATOM     18  C   UNL     1      45.729   9.229  12.139  0.00  0.00    +0.000 A 
ATOM     19  C   UNL     1      45.986   7.857  12.208  0.00  0.00    +0.000 A 
ATOM     20  N   UNL     1      47.250   7.354  12.212  0.00  0.00    +0.000 NA
BRANCH  15  22
ATOM     21  N   UNL     1      50.141   7.342  13.377  0.00  0.00    +0.000 N 
ATOM     22  C   UNL     1      49.662   7.695  12.147  0.00  0.00    +0.000 C 
ATOM     23  O   UNL     1      50.337   7.559  11.132  0.00  0.00    +0.000 OA
ATOM     24  H   UNL     1      51.071   6.956  13.456  0.00  0.00    +0.000 HD
ATOM     25  H   UNL     1      49.555   7.457  14.197  0.00  0.00    +0.000 HD
ENDBRANCH  15  22
ENDBRANCH  14  19
ENDBRANCH   1  14
TORSDOF 5
ENDMDL
MODEL 5
REMARK VINA RESULT:    -7.247      2.701      4.247
REMARK INTER + INTRA:         -10.147
REMARK INTER:                  -9.374
REMARK INTRA:                  -0.774
REMARK UNBOUND:                -0.782
REMARK  Name = 
REMARK  5 active torsions:
REMARK  status: ('A' for Active; 'I' for Inactive)
REMARK    1  A    between atoms: C_2  and  C_4
REMARK    2  A    between atoms: C_8  and  C_9
REMARK    3  A    between atoms: C_9  and  O_10
REMARK    4  A    between atoms: O_10  and  C_11
REMARK    5  A    between atoms: C_15  and  C_16
REMARK                            x       y       z     vdW  Elec       q    Type
REMARK                         _______ _______ _______ _____ _____    ______ ____
ROOT
ATOM      1  O   UNL     1      44.821   6.336  12.866  0.00  0.00    +0.000 OA
ENDROOT
BRANCH   1   2
ATOM      2  C   UNL     1      44.539   5.168  12.212  0.00  0.00    +0.000 A 
ATOM      3  C   UNL     1      43.543   4.375  12.775  0.00  0.00    +0.000 A 
ATOM      4  C   UNL     1      43.216   3.154  12.190  0.00  0.00    +0.000 A 
ATOM      5  C   UNL     1      43.868   2.738  11.025  0.00  0.00    +0.000 A 
ATOM      6  C   UNL     1      44.832   3.550  10.400  0.00  0.00    +0.000 A 
ATOM      7  C   UNL     1      45.153   4.768  11.023  0.00  0.00    +0.000 A 
BRANCH   6   8
ATOM      8  C   UNL     1      45.443   3.195   9.098  0.00  0.00    +0.000 A 
ATOM      9  C   UNL     1      45.821   4.190   8.180  0.00  0.00    +0.000 A 
ATOM     10  C   UNL     1      46.497   3.873   6.999  0.00  0.00    +0.000 A 
ATOM     11  C   UNL     1      46.819   2.550   6.711  0.00  0.00    +0.000 A 
ATOM     12  C   UNL     1      46.440   1.542   7.591  0.00  0.00    +0.000 A 
ATOM     13  C   UNL     1      45.748   1.860   8.762  0.00  0.00    +0.000 A 
ENDBRANCH   6   8
ENDBRANCH   1   2
BRANCH   1  14
ATOM     14  C   UNL     1      45.918   7.082  12.321  0.00  0.00    +0.000 C 
BRANCH  14  19
ATOM     15  C   UNL     1      43.926   9.917  11.036  0.00  0.00    +0.000 A 
ATOM     16  C   UNL     1      44.739  11.029  11.216  0.00  0.00    +0.000 A 
ATOM     17  C   UNL     1      45.985  10.841  11.794  0.00  0.00    +0.000 A 
ATOM     18  C   UNL     1      46.378   9.562  12.168  0.00  0.00    +0.000 A 
ATOM     19  C   UNL     1      45.500   8.492  11.975  0.00  0.00    +0.000 A 
ATOM     20  N   UNL     1      44.276   8.651  11.403  0.00  0.00    +0.000 NA
BRANCH  15  22
ATOM     21  N   UNL     1      41.539   9.477  11.029  0.00  0.00    +0.000 N 
ATOM     22  C   UNL     1      42.584  10.084  10.391  0.00  0.00    +0.000 C 
ATOM     23  O   UNL     1      42.422  10.722   9.357  0.00  0.00    +0.000 OA
ATOM     24  H   UNL     1      40.609   9.556  10.645  0.00  0.00    +0.000 HD
ATOM     25  H   UNL     1      41.705   8.964  11.888  0.00  0.00    +0.000 HD
ENDBRANCH  15  22
ENDBRANCH  14  19
ENDBRANCH   1  14
TORSDOF 5
ENDMDL
MODEL 6
REMARK VINA RESULT:    -7.153      2.348      3.633
REMARK INTER + INTRA:         -10.026
REMARK INTER:                  -9.440
REMARK INTRA:                  -0.586
REMARK UNBOUND:                -0.782
REMARK  Name = 
REMARK  5 active torsions:
REMARK  status: ('A' for Active; 'I' for Inactive)
REMARK    1  A    between atoms: C_2  and  C_4
REMARK    2  A    between atoms: C_8  and  C_9
REMARK    3  A    between atoms: C_9  and  O_10
REMARK    4  A    between atoms: O_10  and  C_11
REMARK    5  A    between atoms: C_15  and  C_16
REMARK                            x       y       z     vdW  Elec       q    Type
REMARK                         _______ _______ _______ _____ _____    ______ ____
ROOT
ATOM      1  O   UNL     1      45.397   4.488  14.186  0.00  0.00    +0.000 OA
ENDROOT
BRANCH   1   2
ATOM      2  C   UNL     1      44.769   4.508  12.971  0.00  0.00    +0.000 A 
ATOM      3  C   UNL     1      43.543   5.164  12.925  0.00  0.00    +0.000 A 
ATOM      4  C   UNL     1      42.821   5.203  11.735  0.00  0.00    +0.000 A 
ATOM      5  C   UNL     1      43.341   4.607  10.581  0.00  0.00    +0.000 A 
ATOM      6  C   UNL     1      44.606   3.994  10.584  0.00  0.00    +0.000 A 
ATOM      7  C   UNL     1      45.303   3.956  11.804  0.00  0.00    +0.000 A 
BRANCH   6   8
ATOM      8  C   UNL     1      45.236   3.471   9.350  0.00  0.00    +0.000 A 
ATOM      9  C   UNL     1      45.763   4.341   8.380  0.00  0.00    +0.000 A 
ATOM     10  C   UNL     1      46.455   3.858   7.267  0.00  0.00    +0.000 A 
ATOM     11  C   UNL     1      46.645   2.490   7.100  0.00  0.00    +0.000 A 
ATOM     12  C   UNL     1      46.119   1.603   8.034  0.00  0.00    +0.000 A 
ATOM     13  C   UNL     1      45.410   2.088   9.136  0.00  0.00    +0.000 A 
ENDBRANCH   6   8
ENDBRANCH   1   2
BRANCH   1  14
ATOM     14  C   UNL     1      46.811   4.729  14.137  0.00  0.00    +0.000 C 
BRANCH  14  19
ATOM     15  C   UNL     1      49.095   5.221  16.999  0.00  0.00    +0.000 A 
ATOM     16  C   UNL     1      48.687   4.285  17.941  0.00  0.00    +0.000 A 
ATOM     17  C   UNL     1      47.611   3.469  17.628  0.00  0.00    +0.000 A 
ATOM     18  C   UNL     1      46.984   3.609  16.396  0.00  0.00    +0.000 A 
ATOM     19  C   UNL     1      47.436   4.587  15.505  0.00  0.00    +0.000 A 
ATOM     20  N   UNL     1      48.494   5.392  15.787  0.00  0.00    +0.000 NA
BRANCH  15  22
ATOM     21  N   UNL     1      50.057   7.084  18.221  0.00  0.00    +0.000 N 
ATOM     22  C   UNL     1      50.272   6.100  17.298  0.00  0.00    +0.000 C 
ATOM     23  O   UNL     1      51.361   5.954  16.755  0.00  0.00    +0.000 OA
ATOM     24  H   UNL     1      50.813   7.707  18.468  0.00  0.00    +0.000 HD
ATOM     25  H   UNL     1      49.147   7.173  18.660  0.00  0.00    +0.000 HD
ENDBRANCH  15  22
ENDBRANCH  14  19
ENDBRANCH   1  14
TORSDOF 5
ENDMDL
MODEL 7
REMARK VINA RESULT:    -7.092      2.979      5.615
REMARK INTER + INTRA:          -9.947
REMARK INTER:                  -9.163
REMARK INTRA:                  -0.783
REMARK UNBOUND:                -0.782
REMARK  Name = 
REMARK  5 active torsions:
REMARK  status: ('A' for Active; 'I' for Inactive)
REMARK    1  A    between atoms: C_2  and  C_4
REMARK    2  A    between atoms: C_8  and  C_9
REMARK    3  A    between atoms: C_9  and  O_10
REMARK    4  A    between atoms: O_10  and  C_11
REMARK    5  A    between atoms: C_15  and  C_16
REMARK                            x       y       z     vdW  Elec       q    Type
REMARK                         _______ _______ _______ _____ _____    ______ ____
ROOT
ATOM      1  O   UNL     1      49.177   6.541  14.725  0.00  0.00    +0.000 OA
ENDROOT
BRANCH   1   2
ATOM      2  C   UNL     1      48.069   6.847  13.983  0.00  0.00    +0.000 A 
ATOM      3  C   UNL     1      47.680   8.183  13.985  0.00  0.00    +0.000 A 
ATOM      4  C   UNL     1      46.544   8.575  13.282  0.00  0.00    +0.000 A 
ATOM      5  C   UNL     1      45.811   7.633  12.553  0.00  0.00    +0.000 A 
ATOM      6  C   UNL     1      46.219   6.290  12.481  0.00  0.00    +0.000 A 
ATOM      7  C   UNL     1      47.360   5.921  13.215  0.00  0.00    +0.000 A 
BRANCH   6   8
ATOM      8  C   UNL     1      45.539   5.300  11.614  0.00  0.00    +0.000 A 
ATOM      9  C   UNL     1      45.513   5.456  10.218  0.00  0.00    +0.000 A 
ATOM     10  C   UNL     1      44.970   4.474   9.385  0.00  0.00    +0.000 A 
ATOM     11  C   UNL     1      44.446   3.306   9.930  0.00  0.00    +0.000 A 
ATOM     12  C   UNL     1      44.440   3.132  11.310  0.00  0.00    +0.000 A 
ATOM     13  C   UNL     1      44.966   4.124  12.141  0.00  0.00    +0.000 A 
ENDBRANCH   6   8
ENDBRANCH   1   2
BRANCH   1  14
ATOM     14  C   UNL     1      49.127   6.979  16.090  0.00  0.00    +0.000 C 
BRANCH  14  19
ATOM     15  C   UNL     1      49.362   3.560  17.471  0.00  0.00    +0.000 A 
ATOM     16  C   UNL     1      48.648   3.610  18.662  0.00  0.00    +0.000 A 
ATOM     17  C   UNL     1      48.077   4.819  19.031  0.00  0.00    +0.000 A 
ATOM     18  C   UNL     1      48.234   5.928  18.207  0.00  0.00    +0.000 A 
ATOM     19  C   UNL     1      48.983   5.808  17.034  0.00  0.00    +0.000 A 
ATOM     20  N   UNL     1      49.545   4.631  16.647  0.00  0.00    +0.000 NA
BRANCH  15  22
ATOM     21  N   UNL     1      50.989   1.791  17.810  0.00  0.00    +0.000 N 
ATOM     22  C   UNL     1      49.969   2.262  17.033  0.00  0.00    +0.000 C 
ATOM     23  O   UNL     1      49.583   1.653  16.041  0.00  0.00    +0.000 OA
ATOM     24  H   UNL     1      51.436   0.918  17.569  0.00  0.00    +0.000 HD
ATOM     25  H   UNL     1      51.278   2.313  18.631  0.00  0.00    +0.000 HD
ENDBRANCH  15  22
ENDBRANCH  14  19
ENDBRANCH   1  14
TORSDOF 5
ENDMDL
MODEL 8
REMARK VINA RESULT:    -6.928      1.604      2.278
REMARK INTER + INTRA:          -9.735
REMARK INTER:                  -9.084
REMARK INTRA:                  -0.651
REMARK UNBOUND:                -0.782
REMARK  Name = 
REMARK  5 active torsions:
REMARK  status: ('A' for Active; 'I' for Inactive)
REMARK    1  A    between atoms: C_2  and  C_4
REMARK    2  A    between atoms: C_8  and  C_9
REMARK    3  A    between atoms: C_9  and  O_10
REMARK    4  A    between atoms: O_10  and  C_11
REMARK    5  A    between atoms: C_15  and  C_16
REMARK                            x       y       z     vdW  Elec       q    Type
REMARK                         _______ _______ _______ _____ _____    ______ ____
ROOT
ATOM      1  O   UNL     1      45.058   3.394  13.004  0.00  0.00    +0.000 OA
ENDROOT
BRANCH   1   2
ATOM      2  C   UNL     1      44.787   3.683  11.695  0.00  0.00    +0.000 A 
ATOM      3  C   UNL     1      43.884   4.718  11.469  0.00  0.00    +0.000 A 
ATOM      4  C   UNL     1      43.527   5.056  10.166  0.00  0.00    +0.000 A 
ATOM      5  C   UNL     1      44.096   4.375   9.085  0.00  0.00    +0.000 A 
ATOM      6  C   UNL     1      45.059   3.370   9.283  0.00  0.00    +0.000 A 
ATOM      7  C   UNL     1      45.386   3.039  10.609  0.00  0.00    +0.000 A 
BRANCH   6   8
ATOM      8  C   UNL     1      45.772   2.723   8.157  0.00  0.00    +0.000 A 
ATOM      9  C   UNL     1      46.097   3.444   6.995  0.00  0.00    +0.000 A 
ATOM     10  C   UNL     1      46.864   2.874   5.976  0.00  0.00    +0.000 A 
ATOM     11  C   UNL     1      47.331   1.570   6.096  0.00  0.00    +0.000 A 
ATOM     12  C   UNL     1      47.009   0.825   7.226  0.00  0.00    +0.000 A 
ATOM     13  C   UNL     1      46.226   1.390   8.236  0.00  0.00    +0.000 A 
ENDBRANCH   6   8
ENDBRANCH   1   2
BRANCH   1  14
ATOM     14  C   UNL     1      46.448   3.200  13.302  0.00  0.00    +0.000 C 
BRANCH  14  19
ATOM     15  C   UNL     1      48.081   5.641  15.543  0.00  0.00    +0.000 A 
ATOM     16  C   UNL     1      48.141   6.815  14.802  0.00  0.00    +0.000 A 
ATOM     17  C   UNL     1      47.636   6.799  13.510  0.00  0.00    +0.000 A 
ATOM     18  C   UNL     1      47.090   5.625  13.006  0.00  0.00    +0.000 A 
ATOM     19  C   UNL     1      47.082   4.476  13.801  0.00  0.00    +0.000 A 
ATOM     20  N   UNL     1      47.564   4.470  15.073  0.00  0.00    +0.000 NA
BRANCH  15  22
ATOM     21  N   UNL     1      47.665   5.867  17.923  0.00  0.00    +0.000 N 
ATOM     22  C   UNL     1      48.595   5.634  16.950  0.00  0.00    +0.000 C 
ATOM     23  O   UNL     1      49.774   5.433  17.224  0.00  0.00    +0.000 OA
ATOM     24  H   UNL     1      47.949   5.871  18.892  0.00  0.00    +0.000 HD
ATOM     25  H   UNL     1      46.695   6.020  17.666  0.00  0.00    +0.000 HD
ENDBRANCH  15  22
ENDBRANCH  14  19
ENDBRANCH   1  14
TORSDOF 5
ENDMDL
MODEL 9
REMARK VINA RESULT:    -6.825      3.917      8.273
REMARK INTER + INTRA:          -9.602
REMARK INTER:                  -8.923
REMARK INTRA:                  -0.679
REMARK UNBOUND:                -0.782
REMARK  Name = 
REMARK  5 active torsions:
REMARK  status: ('A' for Active; 'I' for Inactive)
REMARK    1  A    between atoms: C_2  and  C_4
REMARK    2  A    between atoms: C_8  and  C_9
REMARK    3  A    between atoms: C_9  and  O_10
REMARK    4  A    between atoms: O_10  and  C_11
REMARK    5  A    between atoms: C_15  and  C_16
REMARK                            x       y       z     vdW  Elec       q    Type
REMARK                         _______ _______ _______ _____ _____    ______ ____
ROOT
ATOM      1  O   UNL     1      46.551   3.901  15.772  0.00  0.00    +0.000 OA
ENDROOT
BRANCH   1   2
ATOM      2  C   UNL     1      47.498   4.084  16.742  0.00  0.00    +0.000 A 
ATOM      3  C   UNL     1      47.136   4.906  17.805  0.00  0.00    +0.000 A 
ATOM      4  C   UNL     1      48.052   5.172  18.819  0.00  0.00    +0.000 A 
ATOM      5  C   UNL     1      49.325   4.593  18.783  0.00  0.00    +0.000 A 
ATOM      6  C   UNL     1      49.694   3.708  17.754  0.00  0.00    +0.000 A 
ATOM      7  C   UNL     1      48.754   3.473  16.736  0.00  0.00    +0.000 A 
BRANCH   6   8
ATOM      8  C   UNL     1      50.985   2.981  17.759  0.00  0.00    +0.000 A 
ATOM      9  C   UNL     1      52.138   3.555  18.322  0.00  0.00    +0.000 A 
ATOM     10  C   UNL     1      53.331   2.836  18.429  0.00  0.00    +0.000 A 
ATOM     11  C   UNL     1      53.398   1.521  17.982  0.00  0.00    +0.000 A 
ATOM     12  C   UNL     1      52.278   0.933  17.402  0.00  0.00    +0.000 A 
ATOM     13  C   UNL     1      51.092   1.660  17.279  0.00  0.00    +0.000 A 
ENDBRANCH   6   8
ENDBRANCH   1   2
BRANCH   1  14
ATOM     14  C   UNL     1      47.043   3.982  14.427  0.00  0.00    +0.000 C 
BRANCH  14  19
ATOM     15  C   UNL     1      44.384   5.484  12.348  0.00  0.00    +0.000 A 
ATOM     16  C   UNL     1      44.852   6.756  12.041  0.00  0.00    +0.000 A 
ATOM     17  C   UNL     1      46.085   7.138  12.548  0.00  0.00    +0.000 A 
ATOM     18  C   UNL     1      46.805   6.247  13.335  0.00  0.00    +0.000 A 
ATOM     19  C   UNL     1      46.262   4.992  13.620  0.00  0.00    +0.000 A 
ATOM     20  N   UNL     1      45.059   4.592  13.127  0.00  0.00    +0.000 NA
BRANCH  15  22
ATOM     21  N   UNL     1      42.082   5.980  11.756  0.00  0.00    +0.000 N 
ATOM     22  C   UNL     1      43.067   5.033  11.794  0.00  0.00    +0.000 C 
ATOM     23  O   UNL     1      42.873   3.889  11.396  0.00  0.00    +0.000 OA
ATOM     24  H   UNL     1      41.174   5.738  11.390  0.00  0.00    +0.000 HD
ATOM     25  H   UNL     1      42.277   6.920  12.083  0.00  0.00    +0.000 HD
ENDBRANCH  15  22
ENDBRANCH  14  19
ENDBRANCH   1  14
TORSDOF 5
ENDMDL
