MODEL 1
REMARK VINA RESULT:    -8.048      0.000      0.000
REMARK INTER + INTRA:         -13.316
REMARK INTER:                 -12.282
REMARK INTRA:                  -1.035
REMARK UNBOUND:                -1.035
REMARK  Name = 
REMARK  10 active torsions:
REMARK  status: ('A' for Active; 'I' for Inactive)
REMARK    1  A    between atoms: C_1  and  O_2
REMARK    2  A    between atoms: O_2  and  C_3
REMARK    3  A    between atoms: C_3  and  C_4
REMARK    4  A    between atoms: C_4  and  N_5
REMARK    5  A    between atoms: C_4  and  C_13
REMARK    6  A    between atoms: N_5  and  C_6
REMARK    7  A    between atoms: C_6  and  C_7
REMARK    8  A    between atoms: C_16  and  C_17
REMARK    9  A    between atoms: C_17  and  N_18
REMARK   10  A    between atoms: C_19  and  C_21
REMARK                            x       y       z     vdW  Elec       q    Type
REMARK                         _______ _______ _______ _____ _____    ______ ____
ROOT
ATOM      1  C   UNL     1      45.897   5.394  11.611  0.00  0.00    +0.000 A 
ATOM      2  C   UNL     1      46.227   4.861  12.871  0.00  0.00    +0.000 A 
ATOM      3  C   UNL     1      47.240   5.425  13.651  0.00  0.00    +0.000 A 
ATOM      4  C   UNL     1      47.907   6.579  13.224  0.00  0.00    +0.000 A 
ATOM      5  C   UNL     1      47.573   7.127  11.982  0.00  0.00    +0.000 A 
ATOM      6  C   UNL     1      46.588   6.538  11.184  0.00  0.00    +0.000 A 
ENDROOT
BRANCH   1   7
ATOM      7  C   UNL     1      44.896   4.652  10.715  0.00  0.00    +0.000 C 
BRANCH   7   8
ATOM      8  N   UNL     1      45.141   4.939   9.284  0.00  0.00    +0.000 NA
ATOM      9  H   UNL     1      46.135   5.092   9.132  0.00  0.00    +0.000 HD
BRANCH   8  10
ATOM     10  C   UNL     1      44.663   3.898   8.371  0.00  0.00    +0.000 C 
BRANCH  10  11
ATOM     11  C   UNL     1      45.795   3.029   7.889  0.00  0.00    +0.000 A 
ATOM     12  C   UNL     1      46.821   3.552   7.092  0.00  0.00    +0.000 A 
ATOM     13  C   UNL     1      47.821   2.698   6.655  0.00  0.00    +0.000 A 
ATOM     14  N   UNL     1      47.871   1.383   6.955  0.00  0.00    +0.000 NA
ATOM     15  C   UNL     1      46.879   0.905   7.739  0.00  0.00    +0.000 A 
ATOM     16  C   UNL     1      45.843   1.675   8.231  0.00  0.00    +0.000 A 
ENDBRANCH  10  11
ENDBRANCH   8  10
ENDBRANCH   7   8
BRANCH   7  17
ATOM     17  C   UNL     1      43.421   4.999  11.107  0.00  0.00    +0.000 C 
BRANCH  17  19
ATOM     18  C   UNL     1      43.313   2.759  11.825  0.00  0.00    +0.000 C 
ATOM     19  O   UNL     1      42.859   4.092  12.063  0.00  0.00    +0.000 OA
ENDBRANCH  17  19
ENDBRANCH   7  17
ENDBRANCH   1   7
BRANCH   4  20
ATOM     20  C   UNL     1      48.980   7.210  14.073  0.00  0.00    +0.000 C 
BRANCH  20  21
ATOM     21  N   UNL     1      48.568   7.316  15.447  0.00  0.00    +0.000 N 
ATOM     22  C   UNL     1      49.289   6.742  16.464  0.00  0.00    +0.000 C 
ATOM     23  O   UNL     1      50.352   6.164  16.270  0.00  0.00    +0.000 OA
ATOM     24  H   UNL     1      47.590   7.541  15.609  0.00  0.00    +0.000 HD
BRANCH  22  25
ATOM     25  C   UNL     1      48.751   6.926  17.817  0.00  0.00    +0.000 A 
ATOM     26  C   UNL     1      48.293   8.174  18.213  0.00  0.00    +0.000 A 
ATOM     27  S   UNL     1      47.662   8.200  19.797  0.00  0.00    +0.000 S 
ATOM     28  C   UNL     1      48.029   6.556  20.028  0.00  0.00    +0.000 A 
ATOM     29  N   UNL     1      47.765   5.939  21.211  0.00  0.00    +0.000 NA
ATOM     30  C   UNL     1      48.120   4.697  21.256  0.00  0.00    +0.000 A 
ATOM     31  N   UNL     1      48.705   4.015  20.224  0.00  0.00    +0.000 N 
ATOM     32  C   UNL     1      48.955   4.581  18.997  0.00  0.00    +0.000 A 
ATOM     33  O   UNL     1      49.416   3.925  18.072  0.00  0.00    +0.000 OA
ATOM     34  C   UNL     1      48.598   5.987  18.901  0.00  0.00    +0.000 A 
ATOM     35  H   UNL     1      48.939   3.038  20.318  0.00  0.00    +0.000 HD
ENDBRANCH  22  25
ENDBRANCH  20  21
ENDBRANCH   4  20
TORSDOF 9
ENDMDL
MODEL 2
REMARK VINA RESULT:    -7.890      1.435      2.205
REMARK INTER + INTRA:         -13.076
REMARK INTER:                 -11.777
REMARK INTRA:                  -1.298
REMARK UNBOUND:                -1.035
REMARK  Name = 
REMARK  10 active torsions:
REMARK  status: ('A' for Active; 'I' for Inactive)
REMARK    1  A    between atoms: C_1  and  O_2
REMARK    2  A    between atoms: O_2  and  C_3
REMARK    3  A    between atoms: C_3  and  C_4
REMARK    4  A    between atoms: C_4  and  N_5
REMARK    5  A    between atoms: C_4  and  C_13
REMARK    6  A    between atoms: N_5  and  C_6
REMARK    7  A    between atoms: C_6  and  C_7
REMARK    8  A    between atoms: C_16  and  C_17
REMARK    9  A    between atoms: C_17  and  N_18
REMARK   10  A    between atoms: C_19  and  C_21
REMARK                            x       y       z     vdW  Elec       q    Type
REMARK                         _______ _______ _______ _____ _____    ______ ____
ROOT
ATOM      1  C   UNL     1      45.900   5.387  11.677  0.00  0.00    +0.000 A 
ATOM      2  C   UNL     1      46.224   4.801  12.914  0.00  0.00    +0.000 A 
ATOM      3  C   UNL     1      47.213   5.348  13.736  0.00  0.00    +0.000 A 
ATOM      4  C   UNL     1      47.861   6.535  13.376  0.00  0.00    +0.000 A 
ATOM      5  C   UNL     1      47.533   7.135  12.156  0.00  0.00    +0.000 A 
ATOM      6  C   UNL     1      46.572   6.565  11.317  0.00  0.00    +0.000 A 
ENDROOT
BRANCH   1   7
ATOM      7  C   UNL     1      44.928   4.669  10.732  0.00  0.00    +0.000 C 
BRANCH   7   8
ATOM      8  N   UNL     1      45.260   4.938   9.315  0.00  0.00    +0.000 NA
ATOM      9  H   UNL     1      46.268   5.019   9.209  0.00  0.00    +0.000 HD
BRANCH   8  10
ATOM     10  C   UNL     1      44.750   3.935   8.376  0.00  0.00    +0.000 C 
BRANCH  10  11
ATOM     11  C   UNL     1      45.856   3.043   7.874  0.00  0.00    +0.000 A 
ATOM     12  C   UNL     1      46.859   3.538   7.030  0.00  0.00    +0.000 A 
ATOM     13  C   UNL     1      47.833   2.663   6.576  0.00  0.00    +0.000 A 
ATOM     14  N   UNL     1      47.880   1.355   6.904  0.00  0.00    +0.000 NA
ATOM     15  C   UNL     1      46.912   0.905   7.732  0.00  0.00    +0.000 A 
ATOM     16  C   UNL     1      45.902   1.696   8.243  0.00  0.00    +0.000 A 
ENDBRANCH  10  11
ENDBRANCH   8  10
ENDBRANCH   7   8
BRANCH   7  17
ATOM     17  C   UNL     1      43.445   5.061  11.040  0.00  0.00    +0.000 C 
BRANCH  17  19
ATOM     18  C   UNL     1      43.351   2.786  11.638  0.00  0.00    +0.000 C 
ATOM     19  O   UNL     1      42.738   4.066  11.791  0.00  0.00    +0.000 OA
ENDBRANCH  17  19
ENDBRANCH   7  17
ENDBRANCH   1   7
BRANCH   4  20
ATOM     20  C   UNL     1      48.908   7.147  14.269  0.00  0.00    +0.000 C 
BRANCH  20  21
ATOM     21  N   UNL     1      48.441   7.258  15.625  0.00  0.00    +0.000 N 
ATOM     22  C   UNL     1      49.056   6.596  16.658  0.00  0.00    +0.000 C 
ATOM     23  O   UNL     1      50.071   5.927  16.497  0.00  0.00    +0.000 OA
ATOM     24  H   UNL     1      47.481   7.568  15.748  0.00  0.00    +0.000 HD
BRANCH  22  25
ATOM     25  C   UNL     1      48.472   6.796  17.989  0.00  0.00    +0.000 A 
ATOM     26  C   UNL     1      48.150   5.697  18.772  0.00  0.00    +0.000 A 
ATOM     27  S   UNL     1      47.523   6.110  20.304  0.00  0.00    +0.000 S 
ATOM     28  C   UNL     1      47.611   7.771  19.952  0.00  0.00    +0.000 A 
ATOM     29  N   UNL     1      47.191   8.701  20.852  0.00  0.00    +0.000 NA
ATOM     30  C   UNL     1      47.290   9.922  20.443  0.00  0.00    +0.000 A 
ATOM     31  N   UNL     1      47.779  10.298  19.222  0.00  0.00    +0.000 N 
ATOM     32  C   UNL     1      48.252   9.402  18.294  0.00  0.00    +0.000 A 
ATOM     33  O   UNL     1      48.747   9.774  17.237  0.00  0.00    +0.000 OA
ATOM     34  C   UNL     1      48.139   8.009  18.695  0.00  0.00    +0.000 A 
ATOM     35  H   UNL     1      47.849  11.274  18.971  0.00  0.00    +0.000 HD
ENDBRANCH  22  25
ENDBRANCH  20  21
ENDBRANCH   4  20
TORSDOF 9
ENDMDL
MODEL 3
REMARK VINA RESULT:    -7.424      2.165      2.324
REMARK INTER + INTRA:         -12.365
REMARK INTER:                 -11.120
REMARK INTRA:                  -1.244
REMARK UNBOUND:                -1.035
REMARK  Name = 
REMARK  10 active torsions:
REMARK  status: ('A' for Active; 'I' for Inactive)
REMARK    1  A    between atoms: C_1  and  O_2
REMARK    2  A    between atoms: O_2  and  C_3
REMARK    3  A    between atoms: C_3  and  C_4
REMARK    4  A    between atoms: C_4  and  N_5
REMARK    5  A    between atoms: C_4  and  C_13
REMARK    6  A    between atoms: N_5  and  C_6
REMARK    7  A    between atoms: C_6  and  C_7
REMARK    8  A    between atoms: C_16  and  C_17
REMARK    9  A    between atoms: C_17  and  N_18
REMARK   10  A    between atoms: C_19  and  C_21
REMARK                            x       y       z     vdW  Elec       q    Type
REMARK                         _______ _______ _______ _____ _____    ______ ____
ROOT
ATOM      1  C   UNL     1      45.696   5.688  11.661  0.00  0.00    +0.000 A 
ATOM      2  C   UNL     1      46.468   5.127  12.695  0.00  0.00    +0.000 A 
ATOM      3  C   UNL     1      47.267   5.929  13.516  0.00  0.00    +0.000 A 
ATOM      4  C   UNL     1      47.265   7.321  13.370  0.00  0.00    +0.000 A 
ATOM      5  C   UNL     1      46.487   7.888  12.357  0.00  0.00    +0.000 A 
ATOM      6  C   UNL     1      45.720   7.083  11.511  0.00  0.00    +0.000 A 
ENDROOT
BRANCH   1   7
ATOM      7  C   UNL     1      44.963   4.764  10.680  0.00  0.00    +0.000 C 
BRANCH   7   8
ATOM      8  N   UNL     1      45.470   4.934   9.300  0.00  0.00    +0.000 NA
ATOM      9  H   UNL     1      46.480   4.818   9.291  0.00  0.00    +0.000 HD
BRANCH   8  10
ATOM     10  C   UNL     1      44.866   4.028   8.320  0.00  0.00    +0.000 C 
BRANCH  10  11
ATOM     11  C   UNL     1      45.888   3.080   7.749  0.00  0.00    +0.000 A 
ATOM     12  C   UNL     1      46.726   3.466   6.695  0.00  0.00    +0.000 A 
ATOM     13  C   UNL     1      47.627   2.542   6.192  0.00  0.00    +0.000 A 
ATOM     14  N   UNL     1      47.751   1.282   6.660  0.00  0.00    +0.000 NA
ATOM     15  C   UNL     1      46.944   0.938   7.687  0.00  0.00    +0.000 A 
ATOM     16  C   UNL     1      46.020   1.787   8.263  0.00  0.00    +0.000 A 
ENDBRANCH  10  11
ENDBRANCH   8  10
ENDBRANCH   7   8
BRANCH   7  17
ATOM     17  C   UNL     1      43.416   4.993  10.736  0.00  0.00    +0.000 C 
BRANCH  17  19
ATOM     18  C   UNL     1      43.393   2.845  11.699  0.00  0.00    +0.000 C 
ATOM     19  O   UNL     1      42.744   4.115  11.648  0.00  0.00    +0.000 OA
ENDBRANCH  17  19
ENDBRANCH   7  17
ENDBRANCH   1   7
BRANCH   4  20
ATOM     20  C   UNL     1      48.101   8.193  14.269  0.00  0.00    +0.000 C 
BRANCH  20  21
ATOM     21  N   UNL     1      49.113   7.429  14.948  0.00  0.00    +0.000 N 
ATOM     22  C   UNL     1      49.329   7.554  16.298  0.00  0.00    +0.000 C 
ATOM     23  O   UNL     1      48.636   8.272  17.010  0.00  0.00    +0.000 OA
ATOM     24  H   UNL     1      49.856   7.047  14.369  0.00  0.00    +0.000 HD
BRANCH  22  25
ATOM     25  C   UNL     1      50.395   6.716  16.859  0.00  0.00    +0.000 A 
ATOM     26  C   UNL     1      51.604   7.291  17.222  0.00  0.00    +0.000 A 
ATOM     27  S   UNL     1      52.713   6.184  17.896  0.00  0.00    +0.000 S 
ATOM     28  C   UNL     1      51.634   4.888  17.677  0.00  0.00    +0.000 A 
ATOM     29  N   UNL     1      51.981   3.620  18.028  0.00  0.00    +0.000 NA
ATOM     30  C   UNL     1      51.077   2.732  17.782  0.00  0.00    +0.000 A 
ATOM     31  N   UNL     1      49.855   2.996  17.226  0.00  0.00    +0.000 N 
ATOM     32  C   UNL     1      49.440   4.263  16.891  0.00  0.00    +0.000 A 
ATOM     33  O   UNL     1      48.315   4.475  16.460  0.00  0.00    +0.000 OA
ATOM     34  C   UNL     1      50.433   5.299  17.124  0.00  0.00    +0.000 A 
ATOM     35  H   UNL     1      49.184   2.256  17.078  0.00  0.00    +0.000 HD
ENDBRANCH  22  25
ENDBRANCH  20  21
ENDBRANCH   4  20
TORSDOF 9
ENDMDL
MODEL 4
REMARK VINA RESULT:    -7.210      3.410      8.623
REMARK INTER + INTRA:         -12.038
REMARK INTER:                 -10.282
REMARK INTRA:                  -1.756
REMARK UNBOUND:                -1.035
REMARK  Name = 
REMARK  10 active torsions:
REMARK  status: ('A' for Active; 'I' for Inactive)
REMARK    1  A    between atoms: C_1  and  O_2
REMARK    2  A    between atoms: O_2  and  C_3
REMARK    3  A    between atoms: C_3  and  C_4
REMARK    4  A    between atoms: C_4  and  N_5
REMARK    5  A    between atoms: C_4  and  C_13
REMARK    6  A    between atoms: N_5  and  C_6
REMARK    7  A    between atoms: C_6  and  C_7
REMARK    8  A    between atoms: C_16  and  C_17
REMARK    9  A    between atoms: C_17  and  N_18
REMARK   10  A    between atoms: C_19  and  C_21
REMARK                            x       y       z     vdW  Elec       q    Type
REMARK                         _______ _______ _______ _____ _____    ______ ____
ROOT
ATOM      1  C   UNL     1      48.711   7.486  16.430  0.00  0.00    +0.000 A 
ATOM      2  C   UNL     1      48.812   6.406  15.534  0.00  0.00    +0.000 A 
ATOM      3  C   UNL     1      48.624   6.586  14.161  0.00  0.00    +0.000 A 
ATOM      4  C   UNL     1      48.396   7.864  13.636  0.00  0.00    +0.000 A 
ATOM      5  C   UNL     1      48.312   8.946  14.517  0.00  0.00    +0.000 A 
ATOM      6  C   UNL     1      48.460   8.758  15.894  0.00  0.00    +0.000 A 
ENDROOT
BRANCH   1   7
ATOM      7  C   UNL     1      48.761   7.223  17.940  0.00  0.00    +0.000 C 
BRANCH   7   8
ATOM      8  N   UNL     1      47.729   6.243  18.349  0.00  0.00    +0.000 NA
ATOM      9  H   UNL     1      47.199   5.945  17.534  0.00  0.00    +0.000 HD
BRANCH   8  10
ATOM     10  C   UNL     1      48.258   5.066  19.044  0.00  0.00    +0.000 C 
BRANCH  10  11
ATOM     11  C   UNL     1      48.654   3.987  18.070  0.00  0.00    +0.000 A 
ATOM     12  C   UNL     1      47.714   3.408  17.209  0.00  0.00    +0.000 A 
ATOM     13  C   UNL     1      48.132   2.399  16.355  0.00  0.00    +0.000 A 
ATOM     14  N   UNL     1      49.399   1.940  16.298  0.00  0.00    +0.000 NA
ATOM     15  C   UNL     1      50.291   2.526  17.126  0.00  0.00    +0.000 A 
ATOM     16  C   UNL     1      49.977   3.542  18.008  0.00  0.00    +0.000 A 
ENDBRANCH  10  11
ENDBRANCH   8  10
ENDBRANCH   7   8
BRANCH   7  17
ATOM     17  C   UNL     1      48.618   8.553  18.752  0.00  0.00    +0.000 C 
BRANCH  17  19
ATOM     18  C   UNL     1      48.283   8.422  21.080  0.00  0.00    +0.000 C 
ATOM     19  O   UNL     1      47.646   8.475  19.803  0.00  0.00    +0.000 OA
ENDBRANCH  17  19
ENDBRANCH   7  17
ENDBRANCH   1   7
BRANCH   4  20
ATOM     20  C   UNL     1      48.220   8.070  12.154  0.00  0.00    +0.000 C 
BRANCH  20  21
ATOM     21  N   UNL     1      47.529   6.963  11.549  0.00  0.00    +0.000 N 
ATOM     22  C   UNL     1      46.163   6.951  11.414  0.00  0.00    +0.000 C 
ATOM     23  O   UNL     1      45.462   7.902  11.741  0.00  0.00    +0.000 OA
ATOM     24  H   UNL     1      48.030   6.079  11.520  0.00  0.00    +0.000 HD
BRANCH  22  25
ATOM     25  C   UNL     1      45.590   5.757  10.782  0.00  0.00    +0.000 A 
ATOM     26  C   UNL     1      45.763   5.547   9.422  0.00  0.00    +0.000 A 
ATOM     27  S   UNL     1      45.071   4.093   8.861  0.00  0.00    +0.000 S 
ATOM     28  C   UNL     1      44.469   3.720  10.407  0.00  0.00    +0.000 A 
ATOM     29  N   UNL     1      43.739   2.593  10.621  0.00  0.00    +0.000 NA
ATOM     30  C   UNL     1      43.323   2.449  11.836  0.00  0.00    +0.000 A 
ATOM     31  N   UNL     1      43.580   3.323  12.857  0.00  0.00    +0.000 N 
ATOM     32  C   UNL     1      44.345   4.454  12.702  0.00  0.00    +0.000 A 
ATOM     33  O   UNL     1      44.615   5.180  13.650  0.00  0.00    +0.000 OA
ATOM     34  C   UNL     1      44.817   4.677  11.345  0.00  0.00    +0.000 A 
ATOM     35  H   UNL     1      43.242   3.140  13.790  0.00  0.00    +0.000 HD
ENDBRANCH  22  25
ENDBRANCH  20  21
ENDBRANCH   4  20
TORSDOF 9
ENDMDL
MODEL 5
REMARK VINA RESULT:    -7.108      3.065      9.013
REMARK INTER + INTRA:         -11.883
REMARK INTER:                 -10.008
REMARK INTRA:                  -1.875
REMARK UNBOUND:                -1.035
REMARK  Name = 
REMARK  10 active torsions:
REMARK  status: ('A' for Active; 'I' for Inactive)
REMARK    1  A    between atoms: C_1  and  O_2
REMARK    2  A    between atoms: O_2  and  C_3
REMARK    3  A    between atoms: C_3  and  C_4
REMARK    4  A    between atoms: C_4  and  N_5
REMARK    5  A    between atoms: C_4  and  C_13
REMARK    6  A    between atoms: N_5  and  C_6
REMARK    7  A    between atoms: C_6  and  C_7
REMARK    8  A    between atoms: C_16  and  C_17
REMARK    9  A    between atoms: C_17  and  N_18
REMARK   10  A    between atoms: C_19  and  C_21
REMARK                            x       y       z     vdW  Elec       q    Type
REMARK                         _______ _______ _______ _____ _____    ______ ____
ROOT
ATOM      1  C   UNL     1      49.151   7.889  16.117  0.00  0.00    +0.000 A 
ATOM      2  C   UNL     1      49.691   6.974  15.194  0.00  0.00    +0.000 A 
ATOM      3  C   UNL     1      49.210   6.901  13.884  0.00  0.00    +0.000 A 
ATOM      4  C   UNL     1      48.221   7.785  13.439  0.00  0.00    +0.000 A 
ATOM      5  C   UNL     1      47.691   8.710  14.343  0.00  0.00    +0.000 A 
ATOM      6  C   UNL     1      48.145   8.756  15.664  0.00  0.00    +0.000 A 
ENDROOT
BRANCH   1   7
ATOM      7  C   UNL     1      49.590   7.830  17.585  0.00  0.00    +0.000 C 
BRANCH   7   8
ATOM      8  N   UNL     1      50.396   6.618  17.856  0.00  0.00    +0.000 NA
ATOM      9  H   UNL     1      51.244   6.876  18.356  0.00  0.00    +0.000 HD
BRANCH   8  10
ATOM     10  C   UNL     1      49.686   5.578  18.605  0.00  0.00    +0.000 C 
BRANCH  10  11
ATOM     11  C   UNL     1      49.549   4.316  17.794  0.00  0.00    +0.000 A 
ATOM     12  C   UNL     1      48.370   4.028  17.096  0.00  0.00    +0.000 A 
ATOM     13  C   UNL     1      48.291   2.838  16.390  0.00  0.00    +0.000 A 
ATOM     14  N   UNL     1      49.290   1.934  16.329  0.00  0.00    +0.000 NA
ATOM     15  C   UNL     1      50.424   2.241  16.997  0.00  0.00    +0.000 A 
ATOM     16  C   UNL     1      50.604   3.402  17.723  0.00  0.00    +0.000 A 
ENDBRANCH  10  11
ENDBRANCH   8  10
ENDBRANCH   7   8
BRANCH   7  17
ATOM     17  C   UNL     1      48.359   7.906  18.548  0.00  0.00    +0.000 C 
BRANCH  17  19
ATOM     18  C   UNL     1      48.227  10.181  19.138  0.00  0.00    +0.000 C 
ATOM     19  O   UNL     1      48.520   8.863  19.602  0.00  0.00    +0.000 OA
ENDBRANCH  17  19
ENDBRANCH   7  17
ENDBRANCH   1   7
BRANCH   4  20
ATOM     20  C   UNL     1      47.717   7.730  12.020  0.00  0.00    +0.000 C 
BRANCH  20  21
ATOM     21  N   UNL     1      46.981   6.519  11.772  0.00  0.00    +0.000 N 
ATOM     22  C   UNL     1      45.616   6.463  11.904  0.00  0.00    +0.000 C 
ATOM     23  O   UNL     1      44.942   7.450  12.178  0.00  0.00    +0.000 OA
ATOM     24  H   UNL     1      47.511   5.653  11.811  0.00  0.00    +0.000 HD
BRANCH  22  25
ATOM     25  C   UNL     1      44.995   5.164  11.623  0.00  0.00    +0.000 A 
ATOM     26  C   UNL     1      44.290   4.507  12.621  0.00  0.00    +0.000 A 
ATOM     27  S   UNL     1      43.598   3.033  12.112  0.00  0.00    +0.000 S 
ATOM     28  C   UNL     1      44.263   3.196  10.556  0.00  0.00    +0.000 A 
ATOM     29  N   UNL     1      44.072   2.239   9.609  0.00  0.00    +0.000 NA
ATOM     30  C   UNL     1      44.655   2.479   8.482  0.00  0.00    +0.000 A 
ATOM     31  N   UNL     1      45.403   3.593   8.213  0.00  0.00    +0.000 N 
ATOM     32  C   UNL     1      45.594   4.607   9.120  0.00  0.00    +0.000 A 
ATOM     33  O   UNL     1      46.211   5.622   8.826  0.00  0.00    +0.000 OA
ATOM     34  C   UNL     1      44.978   4.373  10.417  0.00  0.00    +0.000 A 
ATOM     35  H   UNL     1      45.817   3.730   7.301  0.00  0.00    +0.000 HD
ENDBRANCH  22  25
ENDBRANCH  20  21
ENDBRANCH   4  20
TORSDOF 9
ENDMDL
MODEL 6
REMARK VINA RESULT:    -6.879      3.534      5.465
REMARK INTER + INTRA:         -11.532
REMARK INTER:                 -10.160
REMARK INTRA:                  -1.372
REMARK UNBOUND:                -1.035
REMARK  Name = 
REMARK  10 active torsions:
REMARK  status: ('A' for Active; 'I' for Inactive)
REMARK    1  A    between atoms: C_1  and  O_2
REMARK    2  A    between atoms: O_2  and  C_3
REMARK    3  A    between atoms: C_3  and  C_4
REMARK    4  A    between atoms: C_4  and  N_5
REMARK    5  A    between atoms: C_4  and  C_13
REMARK    6  A    between atoms: N_5  and  C_6
REMARK    7  A    between atoms: C_6  and  C_7
REMARK    8  A    between atoms: C_16  and  C_17
REMARK    9  A    between atoms: C_17  and  N_18
REMARK   10  A    between atoms: C_19  and  C_21
REMARK                            x       y       z     vdW  Elec       q    Type
REMARK                         _______ _______ _______ _____ _____    ______ ____
ROOT
ATOM      1  C   UNL     1      47.620   6.172  13.828  0.00  0.00    +0.000 A 
ATOM      2  C   UNL     1      48.361   6.582  14.952  0.00  0.00    +0.000 A 
ATOM      3  C   UNL     1      48.434   5.786  16.099  0.00  0.00    +0.000 A 
ATOM      4  C   UNL     1      47.822   4.528  16.131  0.00  0.00    +0.000 A 
ATOM      5  C   UNL     1      47.098   4.104  15.012  0.00  0.00    +0.000 A 
ATOM      6  C   UNL     1      46.993   4.918  13.881  0.00  0.00    +0.000 A 
ENDROOT
BRANCH   1   7
ATOM      7  C   UNL     1      47.430   7.141  12.654  0.00  0.00    +0.000 C 
BRANCH   7   8
ATOM      8  N   UNL     1      46.868   6.449  11.472  0.00  0.00    +0.000 NA
ATOM      9  H   UNL     1      47.100   5.460  11.513  0.00  0.00    +0.000 HD
BRANCH   8  10
ATOM     10  C   UNL     1      45.420   6.605  11.316  0.00  0.00    +0.000 C 
BRANCH  10  11
ATOM     11  C   UNL     1      44.742   5.271  11.136  0.00  0.00    +0.000 A 
ATOM     12  C   UNL     1      43.812   4.799  12.071  0.00  0.00    +0.000 A 
ATOM     13  C   UNL     1      43.243   3.552  11.867  0.00  0.00    +0.000 A 
ATOM     14  N   UNL     1      43.528   2.759  10.813  0.00  0.00    +0.000 NA
ATOM     15  C   UNL     1      44.415   3.243   9.916  0.00  0.00    +0.000 A 
ATOM     16  C   UNL     1      45.031   4.475  10.025  0.00  0.00    +0.000 A 
ENDBRANCH  10  11
ENDBRANCH   8  10
ENDBRANCH   7   8
BRANCH   7  17
ATOM     17  C   UNL     1      48.772   7.860  12.291  0.00  0.00    +0.000 C 
BRANCH  17  19
ATOM     18  C   UNL     1      47.433   9.789  12.467  0.00  0.00    +0.000 C 
ATOM     19  O   UNL     1      48.757   9.266  12.572  0.00  0.00    +0.000 OA
ENDBRANCH  17  19
ENDBRANCH   7  17
ENDBRANCH   1   7
BRANCH   4  20
ATOM     20  C   UNL     1      47.918   3.652  17.353  0.00  0.00    +0.000 C 
BRANCH  20  21
ATOM     21  N   UNL     1      49.288   3.354  17.677  0.00  0.00    +0.000 N 
ATOM     22  C   UNL     1      49.994   2.385  17.009  0.00  0.00    +0.000 C 
ATOM     23  O   UNL     1      49.523   1.766  16.061  0.00  0.00    +0.000 OA
ATOM     24  H   UNL     1      49.607   3.642  18.598  0.00  0.00    +0.000 HD
BRANCH  22  25
ATOM     25  C   UNL     1      51.380   2.183  17.445  0.00  0.00    +0.000 A 
ATOM     26  C   UNL     1      51.862   0.897  17.635  0.00  0.00    +0.000 A 
ATOM     27  S   UNL     1      53.503   0.842  18.098  0.00  0.00    +0.000 S 
ATOM     28  C   UNL     1      53.610   2.539  18.114  0.00  0.00    +0.000 A 
ATOM     29  N   UNL     1      54.766   3.165  18.463  0.00  0.00    +0.000 NA
ATOM     30  C   UNL     1      54.698   4.455  18.457  0.00  0.00    +0.000 A 
ATOM     31  N   UNL     1      53.583   5.175  18.125  0.00  0.00    +0.000 N 
ATOM     32  C   UNL     1      52.404   4.592  17.727  0.00  0.00    +0.000 A 
ATOM     33  O   UNL     1      51.445   5.265  17.370  0.00  0.00    +0.000 OA
ATOM     34  C   UNL     1      52.419   3.139  17.741  0.00  0.00    +0.000 A 
ATOM     35  H   UNL     1      53.602   6.185  18.121  0.00  0.00    +0.000 HD
ENDBRANCH  22  25
ENDBRANCH  20  21
ENDBRANCH   4  20
TORSDOF 9
ENDMDL
MODEL 7
REMARK VINA RESULT:    -6.849      3.583      4.318
REMARK INTER + INTRA:         -11.487
REMARK INTER:                 -10.308
REMARK INTRA:                  -1.179
REMARK UNBOUND:                -1.035
REMARK  Name = 
REMARK  10 active torsions:
REMARK  status: ('A' for Active; 'I' for Inactive)
REMARK    1  A    between atoms: C_1  and  O_2
REMARK    2  A    between atoms: O_2  and  C_3
REMARK    3  A    between atoms: C_3  and  C_4
REMARK    4  A    between atoms: C_4  and  N_5
REMARK    5  A    between atoms: C_4  and  C_13
REMARK    6  A    between atoms: N_5  and  C_6
REMARK    7  A    between atoms: C_6  and  C_7
REMARK    8  A    between atoms: C_16  and  C_17
REMARK    9  A    between atoms: C_17  and  N_18
REMARK   10  A    between atoms: C_19  and  C_21
REMARK                            x       y       z     vdW  Elec       q    Type
REMARK                         _______ _______ _______ _____ _____    ______ ____
ROOT
ATOM      1  C   UNL     1      45.569   5.979  11.570  0.00  0.00    +0.000 A 
ATOM      2  C   UNL     1      46.606   5.631  12.454  0.00  0.00    +0.000 A 
ATOM      3  C   UNL     1      47.315   6.609  13.158  0.00  0.00    +0.000 A 
ATOM      4  C   UNL     1      46.963   7.959  13.048  0.00  0.00    +0.000 A 
ATOM      5  C   UNL     1      45.921   8.313  12.185  0.00  0.00    +0.000 A 
ATOM      6  C   UNL     1      45.240   7.338  11.452  0.00  0.00    +0.000 A 
ENDROOT
BRANCH   1   7
ATOM      7  C   UNL     1      44.925   4.895  10.695  0.00  0.00    +0.000 C 
BRANCH   7   8
ATOM      8  N   UNL     1      45.359   5.015   9.285  0.00  0.00    +0.000 NA
ATOM      9  H   UNL     1      46.375   4.998   9.238  0.00  0.00    +0.000 HD
BRANCH   8  10
ATOM     10  C   UNL     1      44.812   3.987   8.397  0.00  0.00    +0.000 C 
BRANCH  10  11
ATOM     11  C   UNL     1      45.894   3.069   7.890  0.00  0.00    +0.000 A 
ATOM     12  C   UNL     1      46.919   3.545   7.063  0.00  0.00    +0.000 A 
ATOM     13  C   UNL     1      47.870   2.647   6.604  0.00  0.00    +0.000 A 
ATOM     14  N   UNL     1      47.873   1.333   6.910  0.00  0.00    +0.000 NA
ATOM     15  C   UNL     1      46.884   0.901   7.723  0.00  0.00    +0.000 A 
ATOM     16  C   UNL     1      45.894   1.716   8.238  0.00  0.00    +0.000 A 
ENDBRANCH  10  11
ENDBRANCH   8  10
ENDBRANCH   7   8
BRANCH   7  17
ATOM     17  C   UNL     1      43.365   4.934  10.802  0.00  0.00    +0.000 C 
BRANCH  17  19
ATOM     18  C   UNL     1      43.386   2.800  11.795  0.00  0.00    +0.000 C 
ATOM     19  O   UNL     1      42.847   4.120  11.862  0.00  0.00    +0.000 OA
ENDBRANCH  17  19
ENDBRANCH   7  17
ENDBRANCH   1   7
BRANCH   4  20
ATOM     20  C   UNL     1      47.703   9.016  13.825  0.00  0.00    +0.000 C 
BRANCH  20  21
ATOM     21  N   UNL     1      49.127   8.830  13.737  0.00  0.00    +0.000 N 
ATOM     22  C   UNL     1      50.007   9.846  14.013  0.00  0.00    +0.000 C 
ATOM     23  O   UNL     1      49.637  10.946  14.409  0.00  0.00    +0.000 OA
ATOM     24  H   UNL     1      49.446   8.049  13.171  0.00  0.00    +0.000 HD
BRANCH  22  25
ATOM     25  C   UNL     1      51.431   9.518  13.880  0.00  0.00    +0.000 A 
ATOM     26  C   UNL     1      52.233  10.262  13.027  0.00  0.00    +0.000 A 
ATOM     27  S   UNL     1      53.867   9.774  13.027  0.00  0.00    +0.000 S 
ATOM     28  C   UNL     1      53.549   8.517  14.127  0.00  0.00    +0.000 A 
ATOM     29  N   UNL     1      54.537   7.677  14.535  0.00  0.00    +0.000 NA
ATOM     30  C   UNL     1      54.149   6.753  15.350  0.00  0.00    +0.000 A 
ATOM     31  N   UNL     1      52.866   6.600  15.801  0.00  0.00    +0.000 N 
ATOM     32  C   UNL     1      51.841   7.445  15.450  0.00  0.00    +0.000 A 
ATOM     33  O   UNL     1      50.719   7.322  15.925  0.00  0.00    +0.000 OA
ATOM     34  C   UNL     1      52.220   8.489  14.512  0.00  0.00    +0.000 A 
ATOM     35  H   UNL     1      52.633   5.866  16.455  0.00  0.00    +0.000 HD
ENDBRANCH  22  25
ENDBRANCH  20  21
ENDBRANCH   4  20
TORSDOF 9
ENDMDL
MODEL 8
REMARK VINA RESULT:    -6.594      3.945      9.423
REMARK INTER + INTRA:         -11.099
REMARK INTER:                  -9.124
REMARK INTRA:                  -1.975
REMARK UNBOUND:                -1.035
REMARK  Name = 
REMARK  10 active torsions:
REMARK  status: ('A' for Active; 'I' for Inactive)
REMARK    1  A    between atoms: C_1  and  O_2
REMARK    2  A    between atoms: O_2  and  C_3
REMARK    3  A    between atoms: C_3  and  C_4
REMARK    4  A    between atoms: C_4  and  N_5
REMARK    5  A    between atoms: C_4  and  C_13
REMARK    6  A    between atoms: N_5  and  C_6
REMARK    7  A    between atoms: C_6  and  C_7
REMARK    8  A    between atoms: C_16  and  C_17
REMARK    9  A    between atoms: C_17  and  N_18
REMARK   10  A    between atoms: C_19  and  C_21
REMARK                            x       y       z     vdW  Elec       q    Type
REMARK                         _______ _______ _______ _____ _____    ______ ____
ROOT
ATOM      1  C   UNL     1      51.095   4.267  18.561  0.00  0.00    +0.000 A 
ATOM      2  C   UNL     1      49.967   5.027  18.921  0.00  0.00    +0.000 A 
ATOM      3  C   UNL     1      48.710   4.760  18.369  0.00  0.00    +0.000 A 
ATOM      4  C   UNL     1      48.532   3.684  17.493  0.00  0.00    +0.000 A 
ATOM      5  C   UNL     1      49.644   2.912  17.143  0.00  0.00    +0.000 A 
ATOM      6  C   UNL     1      50.907   3.204  17.664  0.00  0.00    +0.000 A 
ENDROOT
BRANCH   1   7
ATOM      7  C   UNL     1      52.482   4.691  19.060  0.00  0.00    +0.000 C 
BRANCH   7   8
ATOM      8  N   UNL     1      52.561   6.158  19.244  0.00  0.00    +0.000 NA
ATOM      9  H   UNL     1      53.131   6.369  20.060  0.00  0.00    +0.000 HD
BRANCH   8  10
ATOM     10  C   UNL     1      53.084   6.883  18.083  0.00  0.00    +0.000 C 
BRANCH  10  11
ATOM     11  C   UNL     1      51.968   7.439  17.237  0.00  0.00    +0.000 A 
ATOM     12  C   UNL     1      51.639   6.863  16.003  0.00  0.00    +0.000 A 
ATOM     13  C   UNL     1      50.622   7.436  15.256  0.00  0.00    +0.000 A 
ATOM     14  N   UNL     1      49.920   8.519  15.648  0.00  0.00    +0.000 NA
ATOM     15  C   UNL     1      50.244   9.046  16.849  0.00  0.00    +0.000 A 
ATOM     16  C   UNL     1      51.235   8.546  17.671  0.00  0.00    +0.000 A 
ENDBRANCH  10  11
ENDBRANCH   8  10
ENDBRANCH   7   8
BRANCH   7  17
ATOM     17  C   UNL     1      53.608   4.190  18.096  0.00  0.00    +0.000 C 
BRANCH  17  19
ATOM     18  C   UNL     1      54.133   3.004  20.060  0.00  0.00    +0.000 C 
ATOM     19  O   UNL     1      54.469   3.209  18.688  0.00  0.00    +0.000 OA
ENDBRANCH  17  19
ENDBRANCH   7  17
ENDBRANCH   1   7
BRANCH   4  20
ATOM     20  C   UNL     1      47.176   3.373  16.916  0.00  0.00    +0.000 C 
BRANCH  20  21
ATOM     21  N   UNL     1      46.784   4.355  15.940  0.00  0.00    +0.000 N 
ATOM     22  C   UNL     1      46.914   4.127  14.593  0.00  0.00    +0.000 C 
ATOM     23  O   UNL     1      47.310   3.058  14.143  0.00  0.00    +0.000 OA
ATOM     24  H   UNL     1      46.713   5.314  16.268  0.00  0.00    +0.000 HD
BRANCH  22  25
ATOM     25  C   UNL     1      46.478   5.216  13.711  0.00  0.00    +0.000 A 
ATOM     26  C   UNL     1      47.296   6.321  13.525  0.00  0.00    +0.000 A 
ATOM     27  S   UNL     1      46.657   7.468  12.437  0.00  0.00    +0.000 S 
ATOM     28  C   UNL     1      45.240   6.554  12.219  0.00  0.00    +0.000 A 
ATOM     29  N   UNL     1      44.239   6.994  11.411  0.00  0.00    +0.000 NA
ATOM     30  C   UNL     1      43.212   6.212  11.360  0.00  0.00    +0.000 A 
ATOM     31  N   UNL     1      43.099   5.027  12.034  0.00  0.00    +0.000 N 
ATOM     32  C   UNL     1      44.097   4.519  12.830  0.00  0.00    +0.000 A 
ATOM     33  O   UNL     1      43.993   3.422  13.365  0.00  0.00    +0.000 OA
ATOM     34  C   UNL     1      45.267   5.374  12.944  0.00  0.00    +0.000 A 
ATOM     35  H   UNL     1      42.275   4.452  11.934  0.00  0.00    +0.000 HD
ENDBRANCH  22  25
ENDBRANCH  20  21
ENDBRANCH   4  20
TORSDOF 9
ENDMDL
MODEL 9
REMARK VINA RESULT:    -6.439      2.838      4.079
REMARK INTER + INTRA:         -10.861
REMARK INTER:                  -9.226
REMARK INTRA:                  -1.635
REMARK UNBOUND:                -1.035
REMARK  Name = 
REMARK  10 active torsions:
REMARK  status: ('A' for Active; 'I' for Inactive)
REMARK    1  A    between atoms: C_1  and  O_2
REMARK    2  A    between atoms: O_2  and  C_3
REMARK    3  A    between atoms: C_3  and  C_4
REMARK    4  A    between atoms: C_4  and  N_5
REMARK    5  A    between atoms: C_4  and  C_13
REMARK    6  A    between atoms: N_5  and  C_6
REMARK    7  A    between atoms: C_6  and  C_7
REMARK    8  A    between atoms: C_16  and  C_17
REMARK    9  A    between atoms: C_17  and  N_18
REMARK   10  A    between atoms: C_19  and  C_21
REMARK                            x       y       z     vdW  Elec       q    Type
REMARK                         _______ _______ _______ _____ _____    ______ ____
ROOT
ATOM      1  C   UNL     1      45.729   8.375  11.871  0.00  0.00    +0.000 A 
ATOM      2  C   UNL     1      46.429   9.450  12.449  0.00  0.00    +0.000 A 
ATOM      3  C   UNL     1      47.720   9.283  12.958  0.00  0.00    +0.000 A 
ATOM      4  C   UNL     1      48.375   8.051  12.844  0.00  0.00    +0.000 A 
ATOM      5  C   UNL     1      47.694   6.981  12.255  0.00  0.00    +0.000 A 
ATOM      6  C   UNL     1      46.389   7.139  11.782  0.00  0.00    +0.000 A 
ENDROOT
BRANCH   1   7
ATOM      7  C   UNL     1      44.259   8.556  11.473  0.00  0.00    +0.000 C 
BRANCH   7   8
ATOM      8  N   UNL     1      43.771   7.405  10.680  0.00  0.00    +0.000 NA
ATOM      9  H   UNL     1      44.562   6.903  10.285  0.00  0.00    +0.000 HD
BRANCH   8  10
ATOM     10  C   UNL     1      42.927   6.472  11.431  0.00  0.00    +0.000 C 
BRANCH  10  11
ATOM     11  C   UNL     1      43.281   5.041  11.118  0.00  0.00    +0.000 A 
ATOM     12  C   UNL     1      43.012   4.012  12.029  0.00  0.00    +0.000 A 
ATOM     13  C   UNL     1      43.386   2.720  11.699  0.00  0.00    +0.000 A 
ATOM     14  N   UNL     1      43.995   2.387  10.542  0.00  0.00    +0.000 NA
ATOM     15  C   UNL     1      44.229   3.393   9.672  0.00  0.00    +0.000 A 
ATOM     16  C   UNL     1      43.889   4.712   9.904  0.00  0.00    +0.000 A 
ENDBRANCH  10  11
ENDBRANCH   8  10
ENDBRANCH   7   8
BRANCH   7  17
ATOM     17  C   UNL     1      44.045   9.897  10.695  0.00  0.00    +0.000 C 
BRANCH  17  19
ATOM     18  C   UNL     1      42.212  11.375  10.702  0.00  0.00    +0.000 C 
ATOM     19  O   UNL     1      42.690  10.100  10.275  0.00  0.00    +0.000 OA
ENDBRANCH  17  19
ENDBRANCH   7  17
ENDBRANCH   1   7
BRANCH   4  20
ATOM     20  C   UNL     1      49.776   7.869  13.365  0.00  0.00    +0.000 C 
BRANCH  20  21
ATOM     21  N   UNL     1      49.814   6.927  14.451  0.00  0.00    +0.000 N 
ATOM     22  C   UNL     1      49.601   7.313  15.752  0.00  0.00    +0.000 C 
ATOM     23  O   UNL     1      49.306   8.464  16.054  0.00  0.00    +0.000 OA
ATOM     24  H   UNL     1      50.306   6.055  14.276  0.00  0.00    +0.000 HD
BRANCH  22  25
ATOM     25  C   UNL     1      49.671   6.249  16.759  0.00  0.00    +0.000 A 
ATOM     26  C   UNL     1      50.647   6.296  17.744  0.00  0.00    +0.000 A 
ATOM     27  S   UNL     1      50.558   5.006  18.856  0.00  0.00    +0.000 S 
ATOM     28  C   UNL     1      49.246   4.310  18.028  0.00  0.00    +0.000 A 
ATOM     29  N   UNL     1      48.691   3.143  18.449  0.00  0.00    +0.000 NA
ATOM     30  C   UNL     1      47.720   2.716  17.712  0.00  0.00    +0.000 A 
ATOM     31  N   UNL     1      47.249   3.355  16.597  0.00  0.00    +0.000 N 
ATOM     32  C   UNL     1      47.748   4.556  16.152  0.00  0.00    +0.000 A 
ATOM     33  O   UNL     1      47.259   5.136  15.192  0.00  0.00    +0.000 OA
ATOM     34  C   UNL     1      48.862   5.068  16.934  0.00  0.00    +0.000 A 
ATOM     35  H   UNL     1      46.471   2.977  16.075  0.00  0.00    +0.000 HD
ENDBRANCH  22  25
ENDBRANCH  20  21
ENDBRANCH   4  20
TORSDOF 9
ENDMDL
