MODEL 1
REMARK VINA RESULT:    -9.041      0.000      0.000
REMARK INTER + INTRA:         -12.588
REMARK INTER:                 -11.684
REMARK INTRA:                  -0.904
REMARK UNBOUND:                -0.904
REMARK  Name = 
REMARK  5 active torsions:
REMARK  status: ('A' for Active; 'I' for Inactive)
REMARK    1  A    between atoms: C_2  and  C_4
REMARK    2  A    between atoms: C_8  and  C_9
REMARK    3  A    between atoms: C_9  and  N_10
REMARK    4  A    between atoms: N_10  and  C_11
REMARK    5  A    between atoms: C_15  and  C_16
REMARK                            x       y       z     vdW  Elec       q    Type
REMARK                         _______ _______ _______ _____ _____    ______ ____
ROOT
ATOM      1  N   UNL     1      44.461   6.387  10.604  0.00  0.00    +0.000 N 
ATOM      2  H   UNL     1      45.234   6.867  10.143  0.00  0.00    +0.000 HD
ENDROOT
BRANCH   1   3
ATOM      3  C   UNL     1      44.418   5.035  10.216  0.00  0.00    +0.000 A 
ATOM      4  C   UNL     1      43.677   4.102  10.941  0.00  0.00    +0.000 A 
ATOM      5  N   UNL     1      43.609   2.779  10.664  0.00  0.00    +0.000 NA
ATOM      6  C   UNL     1      44.360   2.340   9.626  0.00  0.00    +0.000 A 
ATOM      7  C   UNL     1      45.200   3.142   8.855  0.00  0.00    +0.000 A 
ATOM      8  C   UNL     1      45.215   4.508   9.194  0.00  0.00    +0.000 A 
BRANCH   7   9
ATOM      9  C   UNL     1      46.059   2.608   7.776  0.00  0.00    +0.000 A 
ATOM     10  C   UNL     1      46.613   1.314   7.849  0.00  0.00    +0.000 A 
ATOM     11  C   UNL     1      47.366   0.779   6.800  0.00  0.00    +0.000 A 
ATOM     12  C   UNL     1      47.601   1.535   5.657  0.00  0.00    +0.000 A 
ATOM     13  C   UNL     1      47.088   2.825   5.567  0.00  0.00    +0.000 A 
ATOM     14  C   UNL     1      46.325   3.354   6.613  0.00  0.00    +0.000 A 
ENDBRANCH   7   9
ENDBRANCH   1   3
BRANCH   1  15
ATOM     15  C   UNL     1      44.460   6.652  12.043  0.00  0.00    +0.000 C 
BRANCH  15  20
ATOM     16  C   UNL     1      47.195   5.120  14.159  0.00  0.00    +0.000 A 
ATOM     17  N   UNL     1      48.321   5.812  13.799  0.00  0.00    +0.000 NA
ATOM     18  C   UNL     1      48.163   6.763  12.852  0.00  0.00    +0.000 A 
ATOM     19  C   UNL     1      46.950   7.055  12.247  0.00  0.00    +0.000 A 
ATOM     20  C   UNL     1      45.810   6.334  12.628  0.00  0.00    +0.000 A 
ATOM     21  C   UNL     1      45.941   5.353  13.609  0.00  0.00    +0.000 A 
ATOM     22  F   UNL     1      44.857   4.670  14.002  0.00  0.00    +0.000 F 
BRANCH  16  24
ATOM     23  N   UNL     1      47.108   4.466  16.491  0.00  0.00    +0.000 N 
ATOM     24  C   UNL     1      47.378   4.070  15.208  0.00  0.00    +0.000 C 
ATOM     25  O   UNL     1      47.745   2.926  14.970  0.00  0.00    +0.000 OA
ATOM     26  H   UNL     1      47.223   3.804  17.245  0.00  0.00    +0.000 HD
ATOM     27  H   UNL     1      46.810   5.417  16.678  0.00  0.00    +0.000 HD
ENDBRANCH  16  24
ENDBRANCH  15  20
ENDBRANCH   1  15
TORSDOF 5
ENDMDL
MODEL 2
REMARK VINA RESULT:    -8.198      1.611      2.496
REMARK INTER + INTRA:         -11.498
REMARK INTER:                 -10.815
REMARK INTRA:                  -0.683
REMARK UNBOUND:                -0.904
REMARK  Name = 
REMARK  5 active torsions:
REMARK  status: ('A' for Active; 'I' for Inactive)
REMARK    1  A    between atoms: C_2  and  C_4
REMARK    2  A    between atoms: C_8  and  C_9
REMARK    3  A    between atoms: C_9  and  N_10
REMARK    4  A    between atoms: N_10  and  C_11
REMARK    5  A    between atoms: C_15  and  C_16
REMARK                            x       y       z     vdW  Elec       q    Type
REMARK                         _______ _______ _______ _____ _____    ______ ____
ROOT
ATOM      1  N   UNL     1      44.552   6.251  10.756  0.00  0.00    +0.000 N 
ATOM      2  H   UNL     1      45.408   6.692  10.421  0.00  0.00    +0.000 HD
ENDROOT
BRANCH   1   3
ATOM      3  C   UNL     1      44.471   4.922  10.299  0.00  0.00    +0.000 A 
ATOM      4  C   UNL     1      43.712   3.971  10.984  0.00  0.00    +0.000 A 
ATOM      5  N   UNL     1      43.608   2.667  10.640  0.00  0.00    +0.000 NA
ATOM      6  C   UNL     1      44.339   2.263   9.573  0.00  0.00    +0.000 A 
ATOM      7  C   UNL     1      45.193   3.082   8.836  0.00  0.00    +0.000 A 
ATOM      8  C   UNL     1      45.246   4.428   9.244  0.00  0.00    +0.000 A 
BRANCH   7   9
ATOM      9  C   UNL     1      46.028   2.582   7.723  0.00  0.00    +0.000 A 
ATOM     10  C   UNL     1      46.291   3.375   6.588  0.00  0.00    +0.000 A 
ATOM     11  C   UNL     1      47.138   2.935   5.566  0.00  0.00    +0.000 A 
ATOM     12  C   UNL     1      47.726   1.678   5.645  0.00  0.00    +0.000 A 
ATOM     13  C   UNL     1      47.464   0.862   6.741  0.00  0.00    +0.000 A 
ATOM     14  C   UNL     1      46.627   1.310   7.768  0.00  0.00    +0.000 A 
ENDBRANCH   7   9
ENDBRANCH   1   3
BRANCH   1  15
ATOM     15  C   UNL     1      44.383   6.457  12.194  0.00  0.00    +0.000 C 
BRANCH  15  20
ATOM     16  C   UNL     1      47.957   6.561  13.428  0.00  0.00    +0.000 A 
ATOM     17  N   UNL     1      48.078   5.430  14.192  0.00  0.00    +0.000 NA
ATOM     18  C   UNL     1      46.974   4.658  14.300  0.00  0.00    +0.000 A 
ATOM     19  C   UNL     1      45.762   4.957  13.694  0.00  0.00    +0.000 A 
ATOM     20  C   UNL     1      45.658   6.119  12.919  0.00  0.00    +0.000 A 
ATOM     21  C   UNL     1      46.784   6.930  12.782  0.00  0.00    +0.000 A 
ATOM     22  F   UNL     1      46.709   8.034  12.025  0.00  0.00    +0.000 F 
BRANCH  16  24
ATOM     23  N   UNL     1      50.044   7.064  12.304  0.00  0.00    +0.000 N 
ATOM     24  C   UNL     1      49.184   7.408  13.313  0.00  0.00    +0.000 C 
ATOM     25  O   UNL     1      49.433   8.350  14.055  0.00  0.00    +0.000 OA
ATOM     26  H   UNL     1      50.895   7.594  12.182  0.00  0.00    +0.000 HD
ATOM     27  H   UNL     1      49.831   6.280  11.699  0.00  0.00    +0.000 HD
ENDBRANCH  16  24
ENDBRANCH  15  20
ENDBRANCH   1  15
TORSDOF 5
ENDMDL
MODEL 3
REMARK VINA RESULT:    -8.095      1.868      2.335
REMARK INTER + INTRA:         -11.365
REMARK INTER:                 -10.472
REMARK INTRA:                  -0.893
REMARK UNBOUND:                -0.904
REMARK  Name = 
REMARK  5 active torsions:
REMARK  status: ('A' for Active; 'I' for Inactive)
REMARK    1  A    between atoms: C_2  and  C_4
REMARK    2  A    between atoms: C_8  and  C_9
REMARK    3  A    between atoms: C_9  and  N_10
REMARK    4  A    between atoms: N_10  and  C_11
REMARK    5  A    between atoms: C_15  and  C_16
REMARK                            x       y       z     vdW  Elec       q    Type
REMARK                         _______ _______ _______ _____ _____    ______ ____
ROOT
ATOM      1  N   UNL     1      43.724   6.169  10.682  0.00  0.00    +0.000 N 
ATOM      2  H   UNL     1      44.269   6.759  10.055  0.00  0.00    +0.000 HD
ENDROOT
BRANCH   1   3
ATOM      3  C   UNL     1      43.903   4.810  10.361  0.00  0.00    +0.000 A 
ATOM      4  C   UNL     1      43.371   3.804  11.169  0.00  0.00    +0.000 A 
ATOM      5  N   UNL     1      43.526   2.476  10.959  0.00  0.00    +0.000 NA
ATOM      6  C   UNL     1      44.296   2.118   9.904  0.00  0.00    +0.000 A 
ATOM      7  C   UNL     1      44.947   3.009   9.052  0.00  0.00    +0.000 A 
ATOM      8  C   UNL     1      44.735   4.374   9.325  0.00  0.00    +0.000 A 
BRANCH   7   9
ATOM      9  C   UNL     1      45.838   2.573   7.955  0.00  0.00    +0.000 A 
ATOM     10  C   UNL     1      46.117   3.411   6.858  0.00  0.00    +0.000 A 
ATOM     11  C   UNL     1      47.014   3.032   5.855  0.00  0.00    +0.000 A 
ATOM     12  C   UNL     1      47.639   1.791   5.915  0.00  0.00    +0.000 A 
ATOM     13  C   UNL     1      47.363   0.931   6.973  0.00  0.00    +0.000 A 
ATOM     14  C   UNL     1      46.474   1.318   7.981  0.00  0.00    +0.000 A 
ENDBRANCH   7   9
ENDBRANCH   1   3
BRANCH   1  15
ATOM     15  C   UNL     1      43.944   6.543  12.079  0.00  0.00    +0.000 C 
BRANCH  15  20
ATOM     16  C   UNL     1      47.537   7.519  12.745  0.00  0.00    +0.000 A 
ATOM     17  N   UNL     1      47.556   8.875  12.546  0.00  0.00    +0.000 NA
ATOM     18  C   UNL     1      46.385   9.443  12.180  0.00  0.00    +0.000 A 
ATOM     19  C   UNL     1      45.206   8.734  12.000  0.00  0.00    +0.000 A 
ATOM     20  C   UNL     1      45.209   7.348  12.206  0.00  0.00    +0.000 A 
ATOM     21  C   UNL     1      46.400   6.736  12.593  0.00  0.00    +0.000 A 
ATOM     22  F   UNL     1      46.415   5.414  12.817  0.00  0.00    +0.000 F 
BRANCH  16  24
ATOM     23  N   UNL     1      49.882   7.114  12.294  0.00  0.00    +0.000 N 
ATOM     24  C   UNL     1      48.836   6.898  13.150  0.00  0.00    +0.000 C 
ATOM     25  O   UNL     1      48.986   6.237  14.170  0.00  0.00    +0.000 OA
ATOM     26  H   UNL     1      50.784   6.711  12.508  0.00  0.00    +0.000 HD
ATOM     27  H   UNL     1      49.746   7.658  11.450  0.00  0.00    +0.000 HD
ENDBRANCH  16  24
ENDBRANCH  15  20
ENDBRANCH   1  15
TORSDOF 5
ENDMDL
MODEL 4
REMARK VINA RESULT:    -7.741      1.734      2.710
REMARK INTER + INTRA:         -10.907
REMARK INTER:                 -10.101
REMARK INTRA:                  -0.807
REMARK UNBOUND:                -0.904
REMARK  Name = 
REMARK  5 active torsions:
REMARK  status: ('A' for Active; 'I' for Inactive)
REMARK    1  A    between atoms: C_2  and  C_4
REMARK    2  A    between atoms: C_8  and  C_9
REMARK    3  A    between atoms: C_9  and  N_10
REMARK    4  A    between atoms: N_10  and  C_11
REMARK    5  A    between atoms: C_15  and  C_16
REMARK                            x       y       z     vdW  Elec       q    Type
REMARK                         _______ _______ _______ _____ _____    ______ ____
ROOT
ATOM      1  N   UNL     1      45.790   6.885  13.214  0.00  0.00    +0.000 N 
ATOM      2  H   UNL     1      45.538   7.861  13.064  0.00  0.00    +0.000 HD
ENDROOT
BRANCH   1   3
ATOM      3  C   UNL     1      44.995   6.042  12.415  0.00  0.00    +0.000 A 
ATOM      4  C   UNL     1      43.678   5.747  12.768  0.00  0.00    +0.000 A 
ATOM      5  N   UNL     1      42.856   4.919  12.081  0.00  0.00    +0.000 NA
ATOM      6  C   UNL     1      43.387   4.306  10.997  0.00  0.00    +0.000 A 
ATOM      7  C   UNL     1      44.704   4.449  10.564  0.00  0.00    +0.000 A 
ATOM      8  C   UNL     1      45.499   5.331  11.320  0.00  0.00    +0.000 A 
BRANCH   7   9
ATOM      9  C   UNL     1      45.262   3.703   9.415  0.00  0.00    +0.000 A 
ATOM     10  C   UNL     1      45.838   4.369   8.316  0.00  0.00    +0.000 A 
ATOM     11  C   UNL     1      46.431   3.667   7.262  0.00  0.00    +0.000 A 
ATOM     12  C   UNL     1      46.442   2.277   7.272  0.00  0.00    +0.000 A 
ATOM     13  C   UNL     1      45.857   1.591   8.332  0.00  0.00    +0.000 A 
ATOM     14  C   UNL     1      45.276   2.296   9.391  0.00  0.00    +0.000 A 
ENDBRANCH   7   9
ENDBRANCH   1   3
BRANCH   1  15
ATOM     15  C   UNL     1      47.238   6.695  13.122  0.00  0.00    +0.000 C 
BRANCH  15  20
ATOM     16  C   UNL     1      47.946   4.657  16.228  0.00  0.00    +0.000 A 
ATOM     17  N   UNL     1      48.735   5.477  16.992  0.00  0.00    +0.000 NA
ATOM     18  C   UNL     1      49.033   6.685  16.462  0.00  0.00    +0.000 A 
ATOM     19  C   UNL     1      48.593   7.112  15.218  0.00  0.00    +0.000 A 
ATOM     20  C   UNL     1      47.788   6.257  14.452  0.00  0.00    +0.000 A 
ATOM     21  C   UNL     1      47.457   5.009  14.977  0.00  0.00    +0.000 A 
ATOM     22  F   UNL     1      46.669   4.187  14.268  0.00  0.00    +0.000 F 
BRANCH  16  24
ATOM     23  N   UNL     1      48.590   2.367  16.686  0.00  0.00    +0.000 N 
ATOM     24  C   UNL     1      47.620   3.324  16.822  0.00  0.00    +0.000 C 
ATOM     25  O   UNL     1      46.567   3.072  17.395  0.00  0.00    +0.000 OA
ATOM     26  H   UNL     1      48.425   1.442  17.059  0.00  0.00    +0.000 HD
ATOM     27  H   UNL     1      49.456   2.584  16.206  0.00  0.00    +0.000 HD
ENDBRANCH  16  24
ENDBRANCH  15  20
ENDBRANCH   1  15
TORSDOF 5
ENDMDL
MODEL 5
REMARK VINA RESULT:    -7.349      2.797      3.513
REMARK INTER + INTRA:         -10.401
REMARK INTER:                  -9.599
REMARK INTRA:                  -0.803
REMARK UNBOUND:                -0.904
REMARK  Name = 
REMARK  5 active torsions:
REMARK  status: ('A' for Active; 'I' for Inactive)
REMARK    1  A    between atoms: C_2  and  C_4
REMARK    2  A    between atoms: C_8  and  C_9
REMARK    3  A    between atoms: C_9  and  N_10
REMARK    4  A    between atoms: N_10  and  C_11
REMARK    5  A    between atoms: C_15  and  C_16
REMARK                            x       y       z     vdW  Elec       q    Type
REMARK                         _______ _______ _______ _____ _____    ______ ____
ROOT
ATOM      1  N   UNL     1      44.119   6.378  11.661  0.00  0.00    +0.000 N 
ATOM      2  H   UNL     1      44.374   7.053  10.940  0.00  0.00    +0.000 HD
ENDROOT
BRANCH   1   3
ATOM      3  C   UNL     1      44.061   5.079  11.123  0.00  0.00    +0.000 A 
ATOM      4  C   UNL     1      43.298   4.082  11.731  0.00  0.00    +0.000 A 
ATOM      5  N   UNL     1      43.215   2.800  11.307  0.00  0.00    +0.000 NA
ATOM      6  C   UNL     1      43.973   2.469  10.234  0.00  0.00    +0.000 A 
ATOM      7  C   UNL     1      44.834   3.338   9.568  0.00  0.00    +0.000 A 
ATOM      8  C   UNL     1      44.864   4.658  10.058  0.00  0.00    +0.000 A 
BRANCH   7   9
ATOM      9  C   UNL     1      45.698   2.915   8.445  0.00  0.00    +0.000 A 
ATOM     10  C   UNL     1      46.169   1.591   8.338  0.00  0.00    +0.000 A 
ATOM     11  C   UNL     1      46.927   1.169   7.241  0.00  0.00    +0.000 A 
ATOM     12  C   UNL     1      47.250   2.070   6.232  0.00  0.00    +0.000 A 
ATOM     13  C   UNL     1      46.821   3.390   6.323  0.00  0.00    +0.000 A 
ATOM     14  C   UNL     1      46.053   3.806   7.415  0.00  0.00    +0.000 A 
ENDBRANCH   7   9
ENDBRANCH   1   3
BRANCH   1  15
ATOM     15  C   UNL     1      44.942   6.552  12.858  0.00  0.00    +0.000 C 
BRANCH  15  20
ATOM     16  C   UNL     1      47.355   9.379  12.158  0.00  0.00    +0.000 A 
ATOM     17  N   UNL     1      48.510   8.745  11.783  0.00  0.00    +0.000 NA
ATOM     18  C   UNL     1      48.479   7.394  11.781  0.00  0.00    +0.000 A 
ATOM     19  C   UNL     1      47.365   6.647  12.137  0.00  0.00    +0.000 A 
ATOM     20  C   UNL     1      46.194   7.315  12.520  0.00  0.00    +0.000 A 
ATOM     21  C   UNL     1      46.194   8.708  12.522  0.00  0.00    +0.000 A 
ATOM     22  F   UNL     1      45.075   9.364  12.863  0.00  0.00    +0.000 F 
BRANCH  16  24
ATOM     23  N   UNL     1      46.619  11.483  11.209  0.00  0.00    +0.000 N 
ATOM     24  C   UNL     1      47.398  10.874  12.157  0.00  0.00    +0.000 C 
ATOM     25  O   UNL     1      48.073  11.537  12.934  0.00  0.00    +0.000 OA
ATOM     26  H   UNL     1      46.614  12.492  11.151  0.00  0.00    +0.000 HD
ATOM     27  H   UNL     1      46.069  10.925  10.567  0.00  0.00    +0.000 HD
ENDBRANCH  16  24
ENDBRANCH  15  20
ENDBRANCH   1  15
TORSDOF 5
ENDMDL
MODEL 6
REMARK VINA RESULT:    -7.124      1.858      2.844
REMARK INTER + INTRA:         -10.110
REMARK INTER:                  -9.266
REMARK INTRA:                  -0.844
REMARK UNBOUND:                -0.904
REMARK  Name = 
REMARK  5 active torsions:
REMARK  status: ('A' for Active; 'I' for Inactive)
REMARK    1  A    between atoms: C_2  and  C_4
REMARK    2  A    between atoms: C_8  and  C_9
REMARK    3  A    between atoms: C_9  and  N_10
REMARK    4  A    between atoms: N_10  and  C_11
REMARK    5  A    between atoms: C_15  and  C_16
REMARK                            x       y       z     vdW  Elec       q    Type
REMARK                         _______ _______ _______ _____ _____    ______ ____
ROOT
ATOM      1  N   UNL     1      45.272   3.217  12.558  0.00  0.00    +0.000 N 
ATOM      2  H   UNL     1      44.831   2.334  12.813  0.00  0.00    +0.000 HD
ENDROOT
BRANCH   1   3
ATOM      3  C   UNL     1      45.011   3.528  11.210  0.00  0.00    +0.000 A 
ATOM      4  C   UNL     1      43.950   4.363  10.857  0.00  0.00    +0.000 A 
ATOM      5  N   UNL     1      43.603   4.684   9.589  0.00  0.00    +0.000 NA
ATOM      6  C   UNL     1      44.327   4.106   8.601  0.00  0.00    +0.000 A 
ATOM      7  C   UNL     1      45.367   3.200   8.799  0.00  0.00    +0.000 A 
ATOM      8  C   UNL     1      45.679   2.918  10.143  0.00  0.00    +0.000 A 
BRANCH   7   9
ATOM      9  C   UNL     1      46.083   2.537   7.688  0.00  0.00    +0.000 A 
ATOM     10  C   UNL     1      46.350   3.210   6.479  0.00  0.00    +0.000 A 
ATOM     11  C   UNL     1      47.088   2.611   5.454  0.00  0.00    +0.000 A 
ATOM     12  C   UNL     1      47.561   1.312   5.606  0.00  0.00    +0.000 A 
ATOM     13  C   UNL     1      47.291   0.613   6.779  0.00  0.00    +0.000 A 
ATOM     14  C   UNL     1      46.563   1.219   7.807  0.00  0.00    +0.000 A 
ENDBRANCH   7   9
ENDBRANCH   1   3
BRANCH   1  15
ATOM     15  C   UNL     1      44.965   4.259  13.538  0.00  0.00    +0.000 C 
BRANCH  15  20
ATOM     16  C   UNL     1      48.063   6.418  13.754  0.00  0.00    +0.000 A 
ATOM     17  N   UNL     1      48.674   6.009  14.911  0.00  0.00    +0.000 NA
ATOM     18  C   UNL     1      48.045   5.037  15.609  0.00  0.00    +0.000 A 
ATOM     19  C   UNL     1      46.845   4.459  15.219  0.00  0.00    +0.000 A 
ATOM     20  C   UNL     1      46.236   4.894  14.034  0.00  0.00    +0.000 A 
ATOM     21  C   UNL     1      46.867   5.889  13.289  0.00  0.00    +0.000 A 
ATOM     22  F   UNL     1      46.310   6.300  12.141  0.00  0.00    +0.000 F 
BRANCH  16  24
ATOM     23  N   UNL     1      49.929   7.112  12.373  0.00  0.00    +0.000 N 
ATOM     24  C   UNL     1      48.766   7.493  12.988  0.00  0.00    +0.000 C 
ATOM     25  O   UNL     1      48.357   8.643  12.898  0.00  0.00    +0.000 OA
ATOM     26  H   UNL     1      50.455   7.796  11.848  0.00  0.00    +0.000 HD
ATOM     27  H   UNL     1      50.261   6.158  12.459  0.00  0.00    +0.000 HD
ENDBRANCH  16  24
ENDBRANCH  15  20
ENDBRANCH   1  15
TORSDOF 5
ENDMDL
MODEL 7
REMARK VINA RESULT:    -6.921      3.546      8.258
REMARK INTER + INTRA:          -9.848
REMARK INTER:                  -9.275
REMARK INTRA:                  -0.573
REMARK UNBOUND:                -0.904
REMARK  Name = 
REMARK  5 active torsions:
REMARK  status: ('A' for Active; 'I' for Inactive)
REMARK    1  A    between atoms: C_2  and  C_4
REMARK    2  A    between atoms: C_8  and  C_9
REMARK    3  A    between atoms: C_9  and  N_10
REMARK    4  A    between atoms: N_10  and  C_11
REMARK    5  A    between atoms: C_15  and  C_16
REMARK                            x       y       z     vdW  Elec       q    Type
REMARK                         _______ _______ _______ _____ _____    ______ ____
ROOT
ATOM      1  N   UNL     1      46.565   4.327  15.544  0.00  0.00    +0.000 N 
ATOM      2  H   UNL     1      46.076   3.441  15.419  0.00  0.00    +0.000 HD
ENDROOT
BRANCH   1   3
ATOM      3  C   UNL     1      47.413   4.269  16.667  0.00  0.00    +0.000 A 
ATOM      4  C   UNL     1      47.114   4.976  17.832  0.00  0.00    +0.000 A 
ATOM      5  N   UNL     1      47.888   5.008  18.941  0.00  0.00    +0.000 NA
ATOM      6  C   UNL     1      49.060   4.333  18.879  0.00  0.00    +0.000 A 
ATOM      7  C   UNL     1      49.524   3.640  17.762  0.00  0.00    +0.000 A 
ATOM      8  C   UNL     1      48.664   3.642  16.647  0.00  0.00    +0.000 A 
BRANCH   7   9
ATOM      9  C   UNL     1      50.844   2.976  17.713  0.00  0.00    +0.000 A 
ATOM     10  C   UNL     1      52.026   3.666  18.048  0.00  0.00    +0.000 A 
ATOM     11  C   UNL     1      53.268   3.024  18.072  0.00  0.00    +0.000 A 
ATOM     12  C   UNL     1      53.359   1.676  17.742  0.00  0.00    +0.000 A 
ATOM     13  C   UNL     1      52.213   0.975  17.382  0.00  0.00    +0.000 A 
ATOM     14  C   UNL     1      50.970   1.618  17.370  0.00  0.00    +0.000 A 
ENDBRANCH   7   9
ENDBRANCH   1   3
BRANCH   1  15
ATOM     15  C   UNL     1      47.174   4.773  14.291  0.00  0.00    +0.000 C 
BRANCH  15  20
ATOM     16  C   UNL     1      44.546   4.443  11.591  0.00  0.00    +0.000 A 
ATOM     17  N   UNL     1      44.176   5.736  11.327  0.00  0.00    +0.000 NA
ATOM     18  C   UNL     1      44.790   6.695  12.055  0.00  0.00    +0.000 A 
ATOM     19  C   UNL     1      45.743   6.434  13.029  0.00  0.00    +0.000 A 
ATOM     20  C   UNL     1      46.105   5.104  13.285  0.00  0.00    +0.000 A 
ATOM     21  C   UNL     1      45.495   4.095  12.544  0.00  0.00    +0.000 A 
ATOM     22  F   UNL     1      45.847   2.819  12.759  0.00  0.00    +0.000 F 
BRANCH  16  24
ATOM     23  N   UNL     1      44.076   3.454   9.430  0.00  0.00    +0.000 N 
ATOM     24  C   UNL     1      43.863   3.388  10.781  0.00  0.00    +0.000 C 
ATOM     25  O   UNL     1      43.154   2.512  11.261  0.00  0.00    +0.000 OA
ATOM     26  H   UNL     1      43.633   2.774   8.828  0.00  0.00    +0.000 HD
ATOM     27  H   UNL     1      44.660   4.186   9.042  0.00  0.00    +0.000 HD
ENDBRANCH  16  24
ENDBRANCH  15  20
ENDBRANCH   1  15
TORSDOF 5
ENDMDL
MODEL 8
REMARK VINA RESULT:    -6.811      4.082      5.436
REMARK INTER + INTRA:          -9.705
REMARK INTER:                  -9.101
REMARK INTRA:                  -0.605
REMARK UNBOUND:                -0.904
REMARK  Name = 
REMARK  5 active torsions:
REMARK  status: ('A' for Active; 'I' for Inactive)
REMARK    1  A    between atoms: C_2  and  C_4
REMARK    2  A    between atoms: C_8  and  C_9
REMARK    3  A    between atoms: C_9  and  N_10
REMARK    4  A    between atoms: N_10  and  C_11
REMARK    5  A    between atoms: C_15  and  C_16
REMARK                            x       y       z     vdW  Elec       q    Type
REMARK                         _______ _______ _______ _____ _____    ______ ____
ROOT
ATOM      1  N   UNL     1      44.348   7.219  12.334  0.00  0.00    +0.000 N 
ATOM      2  H   UNL     1      43.460   7.661  12.569  0.00  0.00    +0.000 HD
ENDROOT
BRANCH   1   3
ATOM      3  C   UNL     1      44.144   5.888  11.922  0.00  0.00    +0.000 A 
ATOM      4  C   UNL     1      43.409   4.997  12.706  0.00  0.00    +0.000 A 
ATOM      5  N   UNL     1      43.196   3.695  12.408  0.00  0.00    +0.000 NA
ATOM      6  C   UNL     1      43.787   3.229  11.281  0.00  0.00    +0.000 A 
ATOM      7  C   UNL     1      44.603   3.981  10.439  0.00  0.00    +0.000 A 
ATOM      8  C   UNL     1      44.775   5.330  10.805  0.00  0.00    +0.000 A 
BRANCH   7   9
ATOM      9  C   UNL     1      45.287   3.412   9.257  0.00  0.00    +0.000 A 
ATOM     10  C   UNL     1      45.833   4.238   8.255  0.00  0.00    +0.000 A 
ATOM     11  C   UNL     1      46.542   3.708   7.173  0.00  0.00    +0.000 A 
ATOM     12  C   UNL     1      46.704   2.332   7.057  0.00  0.00    +0.000 A 
ATOM     13  C   UNL     1      46.154   1.489   8.018  0.00  0.00    +0.000 A 
ATOM     14  C   UNL     1      45.455   2.024   9.105  0.00  0.00    +0.000 A 
ENDBRANCH   7   9
ENDBRANCH   1   3
BRANCH   1  15
ATOM     15  C   UNL     1      45.135   8.065  11.436  0.00  0.00    +0.000 C 
BRANCH  15  20
ATOM     16  C   UNL     1      42.852  11.053  11.030  0.00  0.00    +0.000 A 
ATOM     17  N   UNL     1      43.636  12.121  11.381  0.00  0.00    +0.000 NA
ATOM     18  C   UNL     1      44.902  11.836  11.760  0.00  0.00    +0.000 A 
ATOM     19  C   UNL     1      45.421  10.550  11.812  0.00  0.00    +0.000 A 
ATOM     20  C   UNL     1      44.602   9.472  11.451  0.00  0.00    +0.000 A 
ATOM     21  C   UNL     1      43.295   9.737  11.048  0.00  0.00    +0.000 A 
ATOM     22  F   UNL     1      42.504   8.719  10.677  0.00  0.00    +0.000 F 
BRANCH  16  24
ATOM     23  N   UNL     1      40.478  11.051  11.516  0.00  0.00    +0.000 N 
ATOM     24  C   UNL     1      41.453  11.377  10.611  0.00  0.00    +0.000 C 
ATOM     25  O   UNL     1      41.166  11.896   9.540  0.00  0.00    +0.000 OA
ATOM     26  H   UNL     1      39.512  11.237  11.286  0.00  0.00    +0.000 HD
ATOM     27  H   UNL     1      40.727  10.617  12.398  0.00  0.00    +0.000 HD
ENDBRANCH  16  24
ENDBRANCH  15  20
ENDBRANCH   1  15
TORSDOF 5
ENDMDL
MODEL 9
REMARK VINA RESULT:    -6.695      3.230      6.820
REMARK INTER + INTRA:          -9.555
REMARK INTER:                  -8.635
REMARK INTRA:                  -0.920
REMARK UNBOUND:                -0.904
REMARK  Name = 
REMARK  5 active torsions:
REMARK  status: ('A' for Active; 'I' for Inactive)
REMARK    1  A    between atoms: C_2  and  C_4
REMARK    2  A    between atoms: C_8  and  C_9
REMARK    3  A    between atoms: C_9  and  N_10
REMARK    4  A    between atoms: N_10  and  C_11
REMARK    5  A    between atoms: C_15  and  C_16
REMARK                            x       y       z     vdW  Elec       q    Type
REMARK                         _______ _______ _______ _____ _____    ______ ____
ROOT
ATOM      1  N   UNL     1      44.681   7.387  12.729  0.00  0.00    +0.000 N 
ATOM      2  H   UNL     1      43.984   7.658  13.422  0.00  0.00    +0.000 HD
ENDROOT
BRANCH   1   3
ATOM      3  C   UNL     1      45.526   8.471  12.427  0.00  0.00    +0.000 A 
ATOM      4  C   UNL     1      45.007   9.747  12.204  0.00  0.00    +0.000 A 
ATOM      5  N   UNL     1      45.738  10.836  11.871  0.00  0.00    +0.000 NA
ATOM      6  C   UNL     1      47.068  10.642  11.703  0.00  0.00    +0.000 A 
ATOM      7  C   UNL     1      47.716   9.414  11.824  0.00  0.00    +0.000 A 
ATOM      8  C   UNL     1      46.895   8.326  12.180  0.00  0.00    +0.000 A 
BRANCH   7   9
ATOM      9  C   UNL     1      49.160   9.233  11.561  0.00  0.00    +0.000 A 
ATOM     10  C   UNL     1      49.731   7.951  11.444  0.00  0.00    +0.000 A 
ATOM     11  C   UNL     1      51.081   7.776  11.124  0.00  0.00    +0.000 A 
ATOM     12  C   UNL     1      51.899   8.884  10.934  0.00  0.00    +0.000 A 
ATOM     13  C   UNL     1      51.369  10.163  11.069  0.00  0.00    +0.000 A 
ATOM     14  C   UNL     1      50.015  10.335  11.376  0.00  0.00    +0.000 A 
ENDBRANCH   7   9
ENDBRANCH   1   3
BRANCH   1  15
ATOM     15  C   UNL     1      45.338   6.135  13.108  0.00  0.00    +0.000 C 
BRANCH  15  20
ATOM     16  C   UNL     1      44.615   3.736  10.276  0.00  0.00    +0.000 A 
ATOM     17  N   UNL     1      43.640   2.913  10.777  0.00  0.00    +0.000 NA
ATOM     18  C   UNL     1      43.247   3.155  12.048  0.00  0.00    +0.000 A 
ATOM     19  C   UNL     1      43.776   4.163  12.841  0.00  0.00    +0.000 A 
ATOM     20  C   UNL     1      44.774   4.992  12.310  0.00  0.00    +0.000 A 
ATOM     21  C   UNL     1      45.192   4.772  10.998  0.00  0.00    +0.000 A 
ATOM     22  F   UNL     1      46.129   5.570  10.467  0.00  0.00    +0.000 F 
BRANCH  16  24
ATOM     23  N   UNL     1      45.540   2.207   8.640  0.00  0.00    +0.000 N 
ATOM     24  C   UNL     1      45.043   3.462   8.869  0.00  0.00    +0.000 C 
ATOM     25  O   UNL     1      44.968   4.282   7.963  0.00  0.00    +0.000 OA
ATOM     26  H   UNL     1      45.854   1.965   7.710  0.00  0.00    +0.000 HD
ATOM     27  H   UNL     1      45.602   1.537   9.398  0.00  0.00    +0.000 HD
ENDBRANCH  16  24
ENDBRANCH  15  20
ENDBRANCH   1  15
TORSDOF 5
ENDMDL
