MODEL 1
REMARK VINA RESULT:    -6.838      0.000      0.000
REMARK INTER + INTRA:         -10.394
REMARK INTER:                  -9.637
REMARK INTRA:                  -0.758
REMARK UNBOUND:                -0.758
REMARK  Name = 
REMARK  8 active torsions:
REMARK  status: ('A' for Active; 'I' for Inactive)
REMARK    1  A    between atoms: N_1  and  C_2
REMARK    2  A    between atoms: C_2  and  C_3
REMARK    3  A    between atoms: C_7  and  C_8
REMARK    4  A    between atoms: C_8  and  C_9
REMARK    5  A    between atoms: C_9  and  O_10
REMARK    6  A    between atoms: O_10  and  C_11
REMARK    7  A    between atoms: C_15  and  C_16
REMARK    8  A    between atoms: C_16  and  N_17
REMARK                            x       y       z     vdW  Elec       q    Type
REMARK                         _______ _______ _______ _____ _____    ______ ____
ROOT
ATOM      1  C   UNL     1      43.599   3.355  11.061  0.00  0.00    +0.000 C 
ENDROOT
BRANCH   1   2
ATOM      2  C   UNL     1      44.450   3.236  12.328  0.00  0.00    +0.000 C 
BRANCH   2   7
ATOM      3  C   UNL     1      45.543   6.904  12.279  0.00  0.00    +0.000 A 
ATOM      4  C   UNL     1      46.655   6.869  13.129  0.00  0.00    +0.000 A 
ATOM      5  C   UNL     1      47.088   5.661  13.676  0.00  0.00    +0.000 A 
ATOM      6  C   UNL     1      46.399   4.473  13.399  0.00  0.00    +0.000 A 
ATOM      7  C   UNL     1      45.275   4.484  12.566  0.00  0.00    +0.000 A 
ATOM      8  C   UNL     1      44.873   5.701  11.994  0.00  0.00    +0.000 A 
BRANCH   3   9
ATOM      9  C   UNL     1      45.075   8.200  11.656  0.00  0.00    +0.000 C 
BRANCH   9  10
ATOM     10  N   UNL     1      43.701   8.116  11.167  0.00  0.00    +0.000 NA
ATOM     11  H   UNL     1      43.528   7.171  10.826  0.00  0.00    +0.000 HD
ATOM     12  H   UNL     1      43.597   8.734  10.362  0.00  0.00    +0.000 HD
ENDBRANCH   9  10
ENDBRANCH   3   9
ENDBRANCH   2   7
ENDBRANCH   1   2
BRANCH   1  13
ATOM     13  O   UNL     1      43.979   2.373  10.083  0.00  0.00    +0.000 OA
BRANCH  13  14
ATOM     14  C   UNL     1      44.879   2.826   9.137  0.00  0.00    +0.000 A 
ATOM     15  C   UNL     1      45.084   4.170   8.815  0.00  0.00    +0.000 A 
ATOM     16  C   UNL     1      46.026   4.527   7.858  0.00  0.00    +0.000 A 
ATOM     17  C   UNL     1      46.791   3.542   7.227  0.00  0.00    +0.000 A 
ATOM     18  C   UNL     1      46.604   2.191   7.529  0.00  0.00    +0.000 A 
ATOM     19  C   UNL     1      45.627   1.843   8.483  0.00  0.00    +0.000 A 
BRANCH  18  20
ATOM     20  C   UNL     1      47.481   1.105   6.952  0.00  0.00    +0.000 C 
BRANCH  20  21
ATOM     21  N   UNL     1      48.413   1.572   5.930  0.00  0.00    +0.000 NA
ATOM     22  H   UNL     1      48.746   2.499   6.192  0.00  0.00    +0.000 HD
ATOM     23  H   UNL     1      47.904   1.690   5.055  0.00  0.00    +0.000 HD
ENDBRANCH  20  21
ENDBRANCH  18  20
ENDBRANCH  13  14
ENDBRANCH   1  13
TORSDOF 8
ENDMDL
MODEL 2
REMARK VINA RESULT:    -6.785      0.923      6.332
REMARK INTER + INTRA:         -10.319
REMARK INTER:                  -9.529
REMARK INTRA:                  -0.790
REMARK UNBOUND:                -0.758
REMARK  Name = 
REMARK  8 active torsions:
REMARK  status: ('A' for Active; 'I' for Inactive)
REMARK    1  A    between atoms: N_1  and  C_2
REMARK    2  A    between atoms: C_2  and  C_3
REMARK    3  A    between atoms: C_7  and  C_8
REMARK    4  A    between atoms: C_8  and  C_9
REMARK    5  A    between atoms: C_9  and  O_10
REMARK    6  A    between atoms: O_10  and  C_11
REMARK    7  A    between atoms: C_15  and  C_16
REMARK    8  A    between atoms: C_16  and  N_17
REMARK                            x       y       z     vdW  Elec       q    Type
REMARK                         _______ _______ _______ _____ _____    ______ ____
ROOT
ATOM      1  C   UNL     1      43.649   3.502  11.406  0.00  0.00    +0.000 C 
ENDROOT
BRANCH   1   2
ATOM      2  C   UNL     1      43.984   2.377  10.423  0.00  0.00    +0.000 C 
BRANCH   2   7
ATOM      3  C   UNL     1      46.581   2.240   7.614  0.00  0.00    +0.000 A 
ATOM      4  C   UNL     1      46.708   3.597   7.293  0.00  0.00    +0.000 A 
ATOM      5  C   UNL     1      46.002   4.562   8.013  0.00  0.00    +0.000 A 
ATOM      6  C   UNL     1      45.140   4.180   9.048  0.00  0.00    +0.000 A 
ATOM      7  C   UNL     1      44.983   2.829   9.377  0.00  0.00    +0.000 A 
ATOM      8  C   UNL     1      45.727   1.873   8.669  0.00  0.00    +0.000 A 
BRANCH   3   9
ATOM      9  C   UNL     1      47.359   1.182   6.864  0.00  0.00    +0.000 C 
BRANCH   9  10
ATOM     10  N   UNL     1      48.322   1.760   5.929  0.00  0.00    +0.000 NA
ATOM     11  H   UNL     1      49.178   1.986   6.435  0.00  0.00    +0.000 HD
ATOM     12  H   UNL     1      47.955   2.644   5.579  0.00  0.00    +0.000 HD
ENDBRANCH   9  10
ENDBRANCH   3   9
ENDBRANCH   2   7
ENDBRANCH   1   2
BRANCH   1  13
ATOM     13  O   UNL     1      44.427   3.394  12.609  0.00  0.00    +0.000 OA
BRANCH  13  14
ATOM     14  C   UNL     1      45.274   4.461  12.840  0.00  0.00    +0.000 A 
ATOM     15  C   UNL     1      46.520   4.365  13.465  0.00  0.00    +0.000 A 
ATOM     16  C   UNL     1      47.307   5.496  13.639  0.00  0.00    +0.000 A 
ATOM     17  C   UNL     1      46.865   6.737  13.168  0.00  0.00    +0.000 A 
ATOM     18  C   UNL     1      45.623   6.859  12.542  0.00  0.00    +0.000 A 
ATOM     19  C   UNL     1      44.824   5.707  12.396  0.00  0.00    +0.000 A 
BRANCH  18  20
ATOM     20  C   UNL     1      45.155   8.156  11.924  0.00  0.00    +0.000 C 
BRANCH  20  21
ATOM     21  N   UNL     1      45.041   9.261  12.871  0.00  0.00    +0.000 NA
ATOM     22  H   UNL     1      45.927   9.763  12.895  0.00  0.00    +0.000 HD
ATOM     23  H   UNL     1      44.906   8.876  13.805  0.00  0.00    +0.000 HD
ENDBRANCH  20  21
ENDBRANCH  18  20
ENDBRANCH  13  14
ENDBRANCH   1  13
TORSDOF 8
ENDMDL
MODEL 3
REMARK VINA RESULT:    -6.680      1.571      2.131
REMARK INTER + INTRA:         -10.171
REMARK INTER:                  -9.447
REMARK INTRA:                  -0.724
REMARK UNBOUND:                -0.758
REMARK  Name = 
REMARK  8 active torsions:
REMARK  status: ('A' for Active; 'I' for Inactive)
REMARK    1  A    between atoms: N_1  and  C_2
REMARK    2  A    between atoms: C_2  and  C_3
REMARK    3  A    between atoms: C_7  and  C_8
REMARK    4  A    between atoms: C_8  and  C_9
REMARK    5  A    between atoms: C_9  and  O_10
REMARK    6  A    between atoms: O_10  and  C_11
REMARK    7  A    between atoms: C_15  and  C_16
REMARK    8  A    between atoms: C_16  and  N_17
REMARK                            x       y       z     vdW  Elec       q    Type
REMARK                         _______ _______ _______ _____ _____    ______ ____
ROOT
ATOM      1  C   UNL     1      43.635   3.337  11.005  0.00  0.00    +0.000 C 
ENDROOT
BRANCH   1   2
ATOM      2  C   UNL     1      44.411   3.482  12.317  0.00  0.00    +0.000 C 
BRANCH   2   7
ATOM      3  C   UNL     1      46.763   6.330  13.320  0.00  0.00    +0.000 A 
ATOM      4  C   UNL     1      46.176   7.415  12.658  0.00  0.00    +0.000 A 
ATOM      5  C   UNL     1      44.995   7.246  11.934  0.00  0.00    +0.000 A 
ATOM      6  C   UNL     1      44.398   5.982  11.842  0.00  0.00    +0.000 A 
ATOM      7  C   UNL     1      44.975   4.879  12.480  0.00  0.00    +0.000 A 
ATOM      8  C   UNL     1      46.143   5.072  13.235  0.00  0.00    +0.000 A 
BRANCH   3   9
ATOM      9  C   UNL     1      48.028   6.500  14.131  0.00  0.00    +0.000 C 
BRANCH   9  10
ATOM     10  N   UNL     1      48.045   5.647  15.317  0.00  0.00    +0.000 NA
ATOM     11  H   UNL     1      47.389   6.020  16.002  0.00  0.00    +0.000 HD
ATOM     12  H   UNL     1      48.967   5.698  15.748  0.00  0.00    +0.000 HD
ENDBRANCH   9  10
ENDBRANCH   3   9
ENDBRANCH   2   7
ENDBRANCH   1   2
BRANCH   1  13
ATOM     13  O   UNL     1      44.203   2.313  10.174  0.00  0.00    +0.000 OA
BRANCH  13  14
ATOM     14  C   UNL     1      45.038   2.782   9.177  0.00  0.00    +0.000 A 
ATOM     15  C   UNL     1      45.215   4.132   8.860  0.00  0.00    +0.000 A 
ATOM     16  C   UNL     1      46.091   4.506   7.849  0.00  0.00    +0.000 A 
ATOM     17  C   UNL     1      46.819   3.533   7.157  0.00  0.00    +0.000 A 
ATOM     18  C   UNL     1      46.659   2.177   7.454  0.00  0.00    +0.000 A 
ATOM     19  C   UNL     1      45.747   1.812   8.464  0.00  0.00    +0.000 A 
BRANCH  18  20
ATOM     20  C   UNL     1      47.502   1.104   6.807  0.00  0.00    +0.000 C 
BRANCH  20  21
ATOM     21  N   UNL     1      48.432   1.603   5.798  0.00  0.00    +0.000 NA
ATOM     22  H   UNL     1      48.083   1.343   4.876  0.00  0.00    +0.000 HD
ATOM     23  H   UNL     1      49.323   1.124   5.911  0.00  0.00    +0.000 HD
ENDBRANCH  20  21
ENDBRANCH  18  20
ENDBRANCH  13  14
ENDBRANCH   1  13
TORSDOF 8
ENDMDL
MODEL 4
REMARK VINA RESULT:    -6.588      2.011      6.339
REMARK INTER + INTRA:         -10.042
REMARK INTER:                  -9.451
REMARK INTRA:                  -0.591
REMARK UNBOUND:                -0.758
REMARK  Name = 
REMARK  8 active torsions:
REMARK  status: ('A' for Active; 'I' for Inactive)
REMARK    1  A    between atoms: N_1  and  C_2
REMARK    2  A    between atoms: C_2  and  C_3
REMARK    3  A    between atoms: C_7  and  C_8
REMARK    4  A    between atoms: C_8  and  C_9
REMARK    5  A    between atoms: C_9  and  O_10
REMARK    6  A    between atoms: O_10  and  C_11
REMARK    7  A    between atoms: C_15  and  C_16
REMARK    8  A    between atoms: C_16  and  N_17
REMARK                            x       y       z     vdW  Elec       q    Type
REMARK                         _______ _______ _______ _____ _____    ______ ____
ROOT
ATOM      1  C   UNL     1      44.530   3.081  11.500  0.00  0.00    +0.000 C 
ENDROOT
BRANCH   1   2
ATOM      2  C   UNL     1      44.083   2.668  10.096  0.00  0.00    +0.000 C 
BRANCH   2   7
ATOM      3  C   UNL     1      46.757   2.121   7.413  0.00  0.00    +0.000 A 
ATOM      4  C   UNL     1      47.000   3.436   6.998  0.00  0.00    +0.000 A 
ATOM      5  C   UNL     1      46.347   4.505   7.614  0.00  0.00    +0.000 A 
ATOM      6  C   UNL     1      45.422   4.269   8.639  0.00  0.00    +0.000 A 
ATOM      7  C   UNL     1      45.149   2.963   9.061  0.00  0.00    +0.000 A 
ATOM      8  C   UNL     1      45.841   1.902   8.456  0.00  0.00    +0.000 A 
BRANCH   3   9
ATOM      9  C   UNL     1      47.476   0.954   6.775  0.00  0.00    +0.000 C 
BRANCH   9  10
ATOM     10  N   UNL     1      48.234   1.349   5.590  0.00  0.00    +0.000 NA
ATOM     11  H   UNL     1      47.637   1.919   4.991  0.00  0.00    +0.000 HD
ATOM     12  H   UNL     1      48.466   0.515   5.052  0.00  0.00    +0.000 HD
ENDBRANCH   9  10
ENDBRANCH   3   9
ENDBRANCH   2   7
ENDBRANCH   1   2
BRANCH   1  13
ATOM     13  O   UNL     1      44.352   4.491  11.712  0.00  0.00    +0.000 OA
BRANCH  13  14
ATOM     14  C   UNL     1      45.454   5.134  12.245  0.00  0.00    +0.000 A 
ATOM     15  C   UNL     1      46.070   6.253  11.679  0.00  0.00    +0.000 A 
ATOM     16  C   UNL     1      47.167   6.838  12.300  0.00  0.00    +0.000 A 
ATOM     17  C   UNL     1      47.645   6.323  13.509  0.00  0.00    +0.000 A 
ATOM     18  C   UNL     1      47.047   5.204  14.093  0.00  0.00    +0.000 A 
ATOM     19  C   UNL     1      45.952   4.606  13.438  0.00  0.00    +0.000 A 
BRANCH  18  20
ATOM     20  C   UNL     1      47.463   4.682  15.449  0.00  0.00    +0.000 C 
BRANCH  20  21
ATOM     21  N   UNL     1      47.648   3.235  15.499  0.00  0.00    +0.000 NA
ATOM     22  H   UNL     1      48.072   2.930  14.623  0.00  0.00    +0.000 HD
ATOM     23  H   UNL     1      46.733   2.791  15.542  0.00  0.00    +0.000 HD
ENDBRANCH  20  21
ENDBRANCH  18  20
ENDBRANCH  13  14
ENDBRANCH   1  13
TORSDOF 8
ENDMDL
MODEL 5
REMARK VINA RESULT:    -6.198      5.177      6.982
REMARK INTER + INTRA:          -9.492
REMARK INTER:                  -9.144
REMARK INTRA:                  -0.348
REMARK UNBOUND:                -0.758
REMARK  Name = 
REMARK  8 active torsions:
REMARK  status: ('A' for Active; 'I' for Inactive)
REMARK    1  A    between atoms: N_1  and  C_2
REMARK    2  A    between atoms: C_2  and  C_3
REMARK    3  A    between atoms: C_7  and  C_8
REMARK    4  A    between atoms: C_8  and  C_9
REMARK    5  A    between atoms: C_9  and  O_10
REMARK    6  A    between atoms: O_10  and  C_11
REMARK    7  A    between atoms: C_15  and  C_16
REMARK    8  A    between atoms: C_16  and  N_17
REMARK                            x       y       z     vdW  Elec       q    Type
REMARK                         _______ _______ _______ _____ _____    ______ ____
ROOT
ATOM      1  C   UNL     1      47.316   4.102  15.556  0.00  0.00    +0.000 C 
ENDROOT
BRANCH   1   2
ATOM      2  C   UNL     1      47.694   3.175  16.715  0.00  0.00    +0.000 C 
BRANCH   2   7
ATOM      3  C   UNL     1      51.371   2.418  17.463  0.00  0.00    +0.000 A 
ATOM      4  C   UNL     1      51.865   3.700  17.729  0.00  0.00    +0.000 A 
ATOM      5  C   UNL     1      51.009   4.803  17.723  0.00  0.00    +0.000 A 
ATOM      6  C   UNL     1      49.650   4.640  17.425  0.00  0.00    +0.000 A 
ATOM      7  C   UNL     1      49.135   3.371  17.139  0.00  0.00    +0.000 A 
ATOM      8  C   UNL     1      50.001   2.267  17.185  0.00  0.00    +0.000 A 
BRANCH   3   9
ATOM      9  C   UNL     1      52.277   1.208  17.492  0.00  0.00    +0.000 C 
BRANCH   9  10
ATOM     10  N   UNL     1      51.674   0.080  18.198  0.00  0.00    +0.000 NA
ATOM     11  H   UNL     1      52.239  -0.136  19.019  0.00  0.00    +0.000 HD
ATOM     12  H   UNL     1      51.713  -0.745  17.600  0.00  0.00    +0.000 HD
ENDBRANCH   9  10
ENDBRANCH   3   9
ENDBRANCH   2   7
ENDBRANCH   1   2
BRANCH   1  13
ATOM     13  O   UNL     1      47.194   3.374  14.324  0.00  0.00    +0.000 OA
BRANCH  13  14
ATOM     14  C   UNL     1      46.542   4.060  13.316  0.00  0.00    +0.000 A 
ATOM     15  C   UNL     1      46.836   5.370  12.929  0.00  0.00    +0.000 A 
ATOM     16  C   UNL     1      46.133   5.969  11.891  0.00  0.00    +0.000 A 
ATOM     17  C   UNL     1      45.141   5.255  11.212  0.00  0.00    +0.000 A 
ATOM     18  C   UNL     1      44.828   3.945  11.582  0.00  0.00    +0.000 A 
ATOM     19  C   UNL     1      45.531   3.359  12.653  0.00  0.00    +0.000 A 
BRANCH  18  20
ATOM     20  C   UNL     1      43.841   3.102  10.808  0.00  0.00    +0.000 C 
BRANCH  20  21
ATOM     21  N   UNL     1      43.030   2.218  11.640  0.00  0.00    +0.000 NA
ATOM     22  H   UNL     1      43.649   1.687  12.251  0.00  0.00    +0.000 HD
ATOM     23  H   UNL     1      42.570   1.537  11.039  0.00  0.00    +0.000 HD
ENDBRANCH  20  21
ENDBRANCH  18  20
ENDBRANCH  13  14
ENDBRANCH   1  13
TORSDOF 8
ENDMDL
MODEL 6
REMARK VINA RESULT:    -6.070      2.211      3.088
REMARK INTER + INTRA:          -9.311
REMARK INTER:                  -8.884
REMARK INTRA:                  -0.427
REMARK UNBOUND:                -0.758
REMARK  Name = 
REMARK  8 active torsions:
REMARK  status: ('A' for Active; 'I' for Inactive)
REMARK    1  A    between atoms: N_1  and  C_2
REMARK    2  A    between atoms: C_2  and  C_3
REMARK    3  A    between atoms: C_7  and  C_8
REMARK    4  A    between atoms: C_8  and  C_9
REMARK    5  A    between atoms: C_9  and  O_10
REMARK    6  A    between atoms: O_10  and  C_11
REMARK    7  A    between atoms: C_15  and  C_16
REMARK    8  A    between atoms: C_16  and  N_17
REMARK                            x       y       z     vdW  Elec       q    Type
REMARK                         _______ _______ _______ _____ _____    ______ ____
ROOT
ATOM      1  C   UNL     1      45.836   5.634   9.685  0.00  0.00    +0.000 C 
ENDROOT
BRANCH   1   2
ATOM      2  C   UNL     1      45.133   6.042  10.982  0.00  0.00    +0.000 C 
BRANCH   2   7
ATOM      3  C   UNL     1      47.222   5.489  14.141  0.00  0.00    +0.000 A 
ATOM      4  C   UNL     1      48.078   6.596  14.100  0.00  0.00    +0.000 A 
ATOM      5  C   UNL     1      47.951   7.550  13.089  0.00  0.00    +0.000 A 
ATOM      6  C   UNL     1      46.980   7.396  12.091  0.00  0.00    +0.000 A 
ATOM      7  C   UNL     1      46.124   6.289  12.101  0.00  0.00    +0.000 A 
ATOM      8  C   UNL     1      46.240   5.357  13.144  0.00  0.00    +0.000 A 
BRANCH   3   9
ATOM      9  C   UNL     1      47.327   4.459  15.244  0.00  0.00    +0.000 C 
BRANCH   9  10
ATOM     10  N   UNL     1      47.513   3.107  14.724  0.00  0.00    +0.000 NA
ATOM     11  H   UNL     1      46.608   2.638  14.691  0.00  0.00    +0.000 HD
ATOM     12  H   UNL     1      48.086   2.576  15.380  0.00  0.00    +0.000 HD
ENDBRANCH   9  10
ENDBRANCH   3   9
ENDBRANCH   2   7
ENDBRANCH   1   2
BRANCH   1  13
ATOM     13  O   UNL     1      44.966   4.866   8.838  0.00  0.00    +0.000 OA
BRANCH  13  14
ATOM     14  C   UNL     1      45.481   3.645   8.446  0.00  0.00    +0.000 A 
ATOM     15  C   UNL     1      45.165   2.422   9.044  0.00  0.00    +0.000 A 
ATOM     16  C   UNL     1      45.725   1.243   8.566  0.00  0.00    +0.000 A 
ATOM     17  C   UNL     1      46.590   1.271   7.468  0.00  0.00    +0.000 A 
ATOM     18  C   UNL     1      46.922   2.481   6.855  0.00  0.00    +0.000 A 
ATOM     19  C   UNL     1      46.368   3.672   7.366  0.00  0.00    +0.000 A 
BRANCH  18  20
ATOM     20  C   UNL     1      47.766   2.547   5.603  0.00  0.00    +0.000 C 
BRANCH  20  21
ATOM     21  N   UNL     1      48.184   1.243   5.097  0.00  0.00    +0.000 NA
ATOM     22  H   UNL     1      49.001   1.371   4.502  0.00  0.00    +0.000 HD
ATOM     23  H   UNL     1      47.449   0.876   4.495  0.00  0.00    +0.000 HD
ENDBRANCH  20  21
ENDBRANCH  18  20
ENDBRANCH  13  14
ENDBRANCH   1  13
TORSDOF 8
ENDMDL
MODEL 7
REMARK VINA RESULT:    -5.665      2.016      2.525
REMARK INTER + INTRA:          -8.741
REMARK INTER:                  -8.081
REMARK INTRA:                  -0.660
REMARK UNBOUND:                -0.758
REMARK  Name = 
REMARK  8 active torsions:
REMARK  status: ('A' for Active; 'I' for Inactive)
REMARK    1  A    between atoms: N_1  and  C_2
REMARK    2  A    between atoms: C_2  and  C_3
REMARK    3  A    between atoms: C_7  and  C_8
REMARK    4  A    between atoms: C_8  and  C_9
REMARK    5  A    between atoms: C_9  and  O_10
REMARK    6  A    between atoms: O_10  and  C_11
REMARK    7  A    between atoms: C_15  and  C_16
REMARK    8  A    between atoms: C_16  and  N_17
REMARK                            x       y       z     vdW  Elec       q    Type
REMARK                         _______ _______ _______ _____ _____    ______ ____
ROOT
ATOM      1  C   UNL     1      44.501   5.432  10.559  0.00  0.00    +0.000 C 
ENDROOT
BRANCH   1   2
ATOM      2  C   UNL     1      44.600   4.857  11.974  0.00  0.00    +0.000 C 
BRANCH   2   7
ATOM      3  C   UNL     1      47.903   6.666  12.661  0.00  0.00    +0.000 A 
ATOM      4  C   UNL     1      48.206   6.203  13.947  0.00  0.00    +0.000 A 
ATOM      5  C   UNL     1      47.380   5.268  14.574  0.00  0.00    +0.000 A 
ATOM      6  C   UNL     1      46.225   4.803  13.932  0.00  0.00    +0.000 A 
ATOM      7  C   UNL     1      45.892   5.264  12.653  0.00  0.00    +0.000 A 
ATOM      8  C   UNL     1      46.751   6.176  12.021  0.00  0.00    +0.000 A 
BRANCH   3   9
ATOM      9  C   UNL     1      48.800   7.657  11.955  0.00  0.00    +0.000 C 
BRANCH   9  10
ATOM     10  N   UNL     1      50.213   7.299  12.059  0.00  0.00    +0.000 NA
ATOM     11  H   UNL     1      50.775   8.144  11.971  0.00  0.00    +0.000 HD
ATOM     12  H   UNL     1      50.463   6.706  11.268  0.00  0.00    +0.000 HD
ENDBRANCH   9  10
ENDBRANCH   3   9
ENDBRANCH   2   7
ENDBRANCH   1   2
BRANCH   1  13
ATOM     13  O   UNL     1      43.800   4.539   9.680  0.00  0.00    +0.000 OA
BRANCH  13  14
ATOM     14  C   UNL     1      44.585   3.542   9.132  0.00  0.00    +0.000 A 
ATOM     15  C   UNL     1      44.454   2.180   9.418  0.00  0.00    +0.000 A 
ATOM     16  C   UNL     1      45.284   1.251   8.802  0.00  0.00    +0.000 A 
ATOM     17  C   UNL     1      46.241   1.673   7.874  0.00  0.00    +0.000 A 
ATOM     18  C   UNL     1      46.393   3.028   7.573  0.00  0.00    +0.000 A 
ATOM     19  C   UNL     1      45.562   3.961   8.224  0.00  0.00    +0.000 A 
BRANCH  18  20
ATOM     20  C   UNL     1      47.338   3.515   6.500  0.00  0.00    +0.000 C 
BRANCH  20  21
ATOM     21  N   UNL     1      48.520   2.677   6.321  0.00  0.00    +0.000 NA
ATOM     22  H   UNL     1      48.648   2.503   5.325  0.00  0.00    +0.000 HD
ATOM     23  H   UNL     1      48.342   1.769   6.747  0.00  0.00    +0.000 HD
ENDBRANCH  20  21
ENDBRANCH  18  20
ENDBRANCH  13  14
ENDBRANCH   1  13
TORSDOF 8
ENDMDL
MODEL 8
REMARK VINA RESULT:    -5.523      1.826      2.765
REMARK INTER + INTRA:          -8.541
REMARK INTER:                  -8.023
REMARK INTRA:                  -0.519
REMARK UNBOUND:                -0.758
REMARK  Name = 
REMARK  8 active torsions:
REMARK  status: ('A' for Active; 'I' for Inactive)
REMARK    1  A    between atoms: N_1  and  C_2
REMARK    2  A    between atoms: C_2  and  C_3
REMARK    3  A    between atoms: C_7  and  C_8
REMARK    4  A    between atoms: C_8  and  C_9
REMARK    5  A    between atoms: C_9  and  O_10
REMARK    6  A    between atoms: O_10  and  C_11
REMARK    7  A    between atoms: C_15  and  C_16
REMARK    8  A    between atoms: C_16  and  N_17
REMARK                            x       y       z     vdW  Elec       q    Type
REMARK                         _______ _______ _______ _____ _____    ______ ____
ROOT
ATOM      1  C   UNL     1      44.290   5.544  12.378  0.00  0.00    +0.000 C 
ENDROOT
BRANCH   1   2
ATOM      2  C   UNL     1      45.753   5.488  12.826  0.00  0.00    +0.000 C 
BRANCH   2   7
ATOM      3  C   UNL     1      46.426   9.188  12.113  0.00  0.00    +0.000 A 
ATOM      4  C   UNL     1      47.824   9.201  12.032  0.00  0.00    +0.000 A 
ATOM      5  C   UNL     1      48.550   8.014  12.152  0.00  0.00    +0.000 A 
ATOM      6  C   UNL     1      47.887   6.802  12.380  0.00  0.00    +0.000 A 
ATOM      7  C   UNL     1      46.491   6.765  12.481  0.00  0.00    +0.000 A 
ATOM      8  C   UNL     1      45.773   7.961  12.322  0.00  0.00    +0.000 A 
BRANCH   3   9
ATOM      9  C   UNL     1      45.622  10.459  11.958  0.00  0.00    +0.000 C 
BRANCH   9  10
ATOM     10  N   UNL     1      44.245  10.304  12.420  0.00  0.00    +0.000 NA
ATOM     11  H   UNL     1      44.195   9.505  13.050  0.00  0.00    +0.000 HD
ATOM     12  H   UNL     1      43.652  10.077  11.622  0.00  0.00    +0.000 HD
ENDBRANCH   9  10
ENDBRANCH   3   9
ENDBRANCH   2   7
ENDBRANCH   1   2
BRANCH   1  13
ATOM     13  O   UNL     1      44.184   5.590  10.946  0.00  0.00    +0.000 OA
BRANCH  13  14
ATOM     14  C   UNL     1      44.380   4.373  10.318  0.00  0.00    +0.000 A 
ATOM     15  C   UNL     1      43.861   3.156  10.767  0.00  0.00    +0.000 A 
ATOM     16  C   UNL     1      44.101   1.987  10.056  0.00  0.00    +0.000 A 
ATOM     17  C   UNL     1      44.846   2.025   8.874  0.00  0.00    +0.000 A 
ATOM     18  C   UNL     1      45.378   3.229   8.406  0.00  0.00    +0.000 A 
ATOM     19  C   UNL     1      45.147   4.403   9.151  0.00  0.00    +0.000 A 
BRANCH  18  20
ATOM     20  C   UNL     1      46.095   3.334   7.080  0.00  0.00    +0.000 C 
BRANCH  20  21
ATOM     21  N   UNL     1      47.093   4.399   7.025  0.00  0.00    +0.000 NA
ATOM     22  H   UNL     1      47.784   4.236   7.756  0.00  0.00    +0.000 HD
ATOM     23  H   UNL     1      46.639   5.281   7.254  0.00  0.00    +0.000 HD
ENDBRANCH  20  21
ENDBRANCH  18  20
ENDBRANCH  13  14
ENDBRANCH   1  13
TORSDOF 8
ENDMDL
MODEL 9
REMARK VINA RESULT:    -5.435      3.133      4.235
REMARK INTER + INTRA:          -8.416
REMARK INTER:                  -7.822
REMARK INTRA:                  -0.594
REMARK UNBOUND:                -0.758
REMARK  Name = 
REMARK  8 active torsions:
REMARK  status: ('A' for Active; 'I' for Inactive)
REMARK    1  A    between atoms: N_1  and  C_2
REMARK    2  A    between atoms: C_2  and  C_3
REMARK    3  A    between atoms: C_7  and  C_8
REMARK    4  A    between atoms: C_8  and  C_9
REMARK    5  A    between atoms: C_9  and  O_10
REMARK    6  A    between atoms: O_10  and  C_11
REMARK    7  A    between atoms: C_15  and  C_16
REMARK    8  A    between atoms: C_16  and  N_17
REMARK                            x       y       z     vdW  Elec       q    Type
REMARK                         _______ _______ _______ _____ _____    ______ ____
ROOT
ATOM      1  C   UNL     1      45.453   6.461  12.277  0.00  0.00    +0.000 C 
ENDROOT
BRANCH   1   2
ATOM      2  C   UNL     1      46.952   6.162  12.357  0.00  0.00    +0.000 C 
BRANCH   2   7
ATOM      3  C   UNL     1      49.952   8.432  11.650  0.00  0.00    +0.000 A 
ATOM      4  C   UNL     1      49.341   9.692  11.628  0.00  0.00    +0.000 A 
ATOM      5  C   UNL     1      47.977   9.821  11.893  0.00  0.00    +0.000 A 
ATOM      6  C   UNL     1      47.199   8.687  12.160  0.00  0.00    +0.000 A 
ATOM      7  C   UNL     1      47.783   7.415  12.172  0.00  0.00    +0.000 A 
ATOM      8  C   UNL     1      49.163   7.305  11.938  0.00  0.00    +0.000 A 
BRANCH   3   9
ATOM      9  C   UNL     1      51.433   8.276  11.391  0.00  0.00    +0.000 C 
BRANCH   9  10
ATOM     10  N   UNL     1      51.736   7.085  10.602  0.00  0.00    +0.000 NA
ATOM     11  H   UNL     1      51.386   7.219   9.654  0.00  0.00    +0.000 HD
ATOM     12  H   UNL     1      51.223   6.293  10.987  0.00  0.00    +0.000 HD
ENDBRANCH   9  10
ENDBRANCH   3   9
ENDBRANCH   2   7
ENDBRANCH   1   2
BRANCH   1  13
ATOM     13  O   UNL     1      44.973   6.364  10.927  0.00  0.00    +0.000 OA
BRANCH  13  14
ATOM     14  C   UNL     1      44.808   5.070  10.470  0.00  0.00    +0.000 A 
ATOM     15  C   UNL     1      44.059   4.087  11.123  0.00  0.00    +0.000 A 
ATOM     16  C   UNL     1      43.940   2.816  10.575  0.00  0.00    +0.000 A 
ATOM     17  C   UNL     1      44.550   2.520   9.353  0.00  0.00    +0.000 A 
ATOM     18  C   UNL     1      45.305   3.484   8.681  0.00  0.00    +0.000 A 
ATOM     19  C   UNL     1      45.439   4.761   9.262  0.00  0.00    +0.000 A 
BRANCH  18  20
ATOM     20  C   UNL     1      45.891   3.240   7.310  0.00  0.00    +0.000 C 
BRANCH  20  21
ATOM     21  N   UNL     1      46.788   4.295   6.848  0.00  0.00    +0.000 NA
ATOM     22  H   UNL     1      46.265   5.168   6.796  0.00  0.00    +0.000 HD
ATOM     23  H   UNL     1      47.079   4.081   5.896  0.00  0.00    +0.000 HD
ENDBRANCH  20  21
ENDBRANCH  18  20
ENDBRANCH  13  14
ENDBRANCH   1  13
TORSDOF 8
ENDMDL
