MODEL 1
REMARK VINA RESULT:    -8.184      0.000      0.000
REMARK INTER + INTRA:         -12.619
REMARK INTER:                 -11.533
REMARK INTRA:                  -1.086
REMARK UNBOUND:                -1.086
REMARK  Name = 
REMARK  7 active torsions:
REMARK  status: ('A' for Active; 'I' for Inactive)
REMARK    1  A    between atoms: C_2  and  C_4
REMARK    2  A    between atoms: C_7  and  O_8
REMARK    3  A    between atoms: O_8  and  C_9
REMARK    4  A    between atoms: C_9  and  C_10
REMARK    5  A    between atoms: C_10  and  C_11
REMARK    6  A    between atoms: C_15  and  O_16
REMARK    7  A    between atoms: O_16  and  C_17
REMARK                            x       y       z     vdW  Elec       q    Type
REMARK                         _______ _______ _______ _____ _____    ______ ____
ROOT
ATOM      1  C   UNL     1      43.912   3.217  11.548  0.00  0.00    +0.000 C 
ENDROOT
BRANCH   1   2
ATOM      2  O   UNL     1      43.601   3.518  10.185  0.00  0.00    +0.000 OA
BRANCH   2   6
ATOM      3  C   UNL     1      46.550   2.360   7.464  0.00  0.00    +0.000 A 
ATOM      4  C   UNL     1      46.163   3.702   7.500  0.00  0.00    +0.000 A 
ATOM      5  C   UNL     1      45.177   4.127   8.398  0.00  0.00    +0.000 A 
ATOM      6  C   UNL     1      44.569   3.216   9.264  0.00  0.00    +0.000 A 
ATOM      7  C   UNL     1      44.947   1.870   9.215  0.00  0.00    +0.000 A 
ATOM      8  C   UNL     1      45.929   1.440   8.316  0.00  0.00    +0.000 A 
BRANCH   3  10
ATOM      9  N   UNL     1      48.714   2.649   6.387  0.00  0.00    +0.000 N 
ATOM     10  C   UNL     1      47.594   1.876   6.525  0.00  0.00    +0.000 C 
ATOM     11  O   UNL     1      47.483   0.814   5.927  0.00  0.00    +0.000 OA
ATOM     12  H   UNL     1      49.463   2.255   5.830  0.00  0.00    +0.000 HD
ATOM     13  H   UNL     1      48.953   3.381   7.040  0.00  0.00    +0.000 HD
ENDBRANCH   3  10
ENDBRANCH   2   6
ENDBRANCH   1   2
BRANCH   1  14
ATOM     14  C   UNL     1      43.856   4.499  12.376  0.00  0.00    +0.000 C 
BRANCH  14  15
ATOM     15  C   UNL     1      45.229   5.098  12.555  0.00  0.00    +0.000 A 
ATOM     16  C   UNL     1      45.724   6.028  11.633  0.00  0.00    +0.000 A 
ATOM     17  C   UNL     1      46.979   6.611  11.826  0.00  0.00    +0.000 A 
ATOM     18  C   UNL     1      47.753   6.273  12.939  0.00  0.00    +0.000 A 
ATOM     19  C   UNL     1      47.268   5.350  13.861  0.00  0.00    +0.000 A 
ATOM     20  C   UNL     1      46.008   4.774  13.675  0.00  0.00    +0.000 A 
BRANCH  19  21
ATOM     21  O   UNL     1      47.923   4.974  15.007  0.00  0.00    +0.000 OA
BRANCH  21  22
ATOM     22  C   UNL     1      47.272   4.066  15.924  0.00  0.00    +0.000 C 
ATOM     23  C   UNL     1      47.248   4.471  17.416  0.00  0.00    +0.000 C 
ATOM     24  C   UNL     1      47.756   3.074  17.788  0.00  0.00    +0.000 C 
ATOM     25  C   UNL     1      48.140   2.848  16.321  0.00  0.00    +0.000 C 
ENDBRANCH  21  22
ENDBRANCH  19  21
ENDBRANCH  14  15
ENDBRANCH   1  14
TORSDOF 7
ENDMDL
MODEL 2
REMARK VINA RESULT:    -7.289      2.269      2.930
REMARK INTER + INTRA:         -11.357
REMARK INTER:                 -10.184
REMARK INTRA:                  -1.173
REMARK UNBOUND:                -1.086
REMARK  Name = 
REMARK  7 active torsions:
REMARK  status: ('A' for Active; 'I' for Inactive)
REMARK    1  A    between atoms: C_2  and  C_4
REMARK    2  A    between atoms: C_7  and  O_8
REMARK    3  A    between atoms: O_8  and  C_9
REMARK    4  A    between atoms: C_9  and  C_10
REMARK    5  A    between atoms: C_10  and  C_11
REMARK    6  A    between atoms: C_15  and  O_16
REMARK    7  A    between atoms: O_16  and  C_17
REMARK                            x       y       z     vdW  Elec       q    Type
REMARK                         _______ _______ _______ _____ _____    ______ ____
ROOT
ATOM      1  C   UNL     1      43.815   2.813  11.853  0.00  0.00    +0.000 C 
ENDROOT
BRANCH   1   2
ATOM      2  O   UNL     1      43.429   3.239  10.545  0.00  0.00    +0.000 OA
BRANCH   2   6
ATOM      3  C   UNL     1      46.395   2.803   7.637  0.00  0.00    +0.000 A 
ATOM      4  C   UNL     1      45.945   4.089   7.946  0.00  0.00    +0.000 A 
ATOM      5  C   UNL     1      44.952   4.274   8.914  0.00  0.00    +0.000 A 
ATOM      6  C   UNL     1      44.398   3.178   9.579  0.00  0.00    +0.000 A 
ATOM      7  C   UNL     1      44.839   1.890   9.256  0.00  0.00    +0.000 A 
ATOM      8  C   UNL     1      45.829   1.700   8.285  0.00  0.00    +0.000 A 
BRANCH   3  10
ATOM      9  N   UNL     1      47.297   3.199   5.411  0.00  0.00    +0.000 N 
ATOM     10  C   UNL     1      47.449   2.571   6.616  0.00  0.00    +0.000 C 
ATOM     11  O   UNL     1      48.433   1.883   6.849  0.00  0.00    +0.000 OA
ATOM     12  H   UNL     1      48.074   3.122   4.766  0.00  0.00    +0.000 HD
ATOM     13  H   UNL     1      46.649   3.962   5.274  0.00  0.00    +0.000 HD
ENDBRANCH   3  10
ENDBRANCH   2   6
ENDBRANCH   1   2
BRANCH   1  14
ATOM     14  C   UNL     1      43.610   3.960  12.841  0.00  0.00    +0.000 C 
BRANCH  14  15
ATOM     15  C   UNL     1      44.432   5.166  12.461  0.00  0.00    +0.000 A 
ATOM     16  C   UNL     1      43.838   6.258  11.817  0.00  0.00    +0.000 A 
ATOM     17  C   UNL     1      44.595   7.389  11.505  0.00  0.00    +0.000 A 
ATOM     18  C   UNL     1      45.952   7.445  11.831  0.00  0.00    +0.000 A 
ATOM     19  C   UNL     1      46.552   6.365  12.472  0.00  0.00    +0.000 A 
ATOM     20  C   UNL     1      45.793   5.236  12.795  0.00  0.00    +0.000 A 
BRANCH  19  21
ATOM     21  O   UNL     1      47.864   6.326  12.874  0.00  0.00    +0.000 OA
BRANCH  21  22
ATOM     22  C   UNL     1      48.637   7.547  12.869  0.00  0.00    +0.000 C 
ATOM     23  C   UNL     1      49.711   7.695  11.766  0.00  0.00    +0.000 C 
ATOM     24  C   UNL     1      50.732   8.100  12.834  0.00  0.00    +0.000 C 
ATOM     25  C   UNL     1      49.781   7.568  13.912  0.00  0.00    +0.000 C 
ENDBRANCH  21  22
ENDBRANCH  19  21
ENDBRANCH  14  15
ENDBRANCH   1  14
TORSDOF 7
ENDMDL
MODEL 3
REMARK VINA RESULT:    -7.127      1.935      3.943
REMARK INTER + INTRA:         -11.130
REMARK INTER:                 -10.187
REMARK INTRA:                  -0.943
REMARK UNBOUND:                -1.086
REMARK  Name = 
REMARK  7 active torsions:
REMARK  status: ('A' for Active; 'I' for Inactive)
REMARK    1  A    between atoms: C_2  and  C_4
REMARK    2  A    between atoms: C_7  and  O_8
REMARK    3  A    between atoms: O_8  and  C_9
REMARK    4  A    between atoms: C_9  and  C_10
REMARK    5  A    between atoms: C_10  and  C_11
REMARK    6  A    between atoms: C_15  and  O_16
REMARK    7  A    between atoms: O_16  and  C_17
REMARK                            x       y       z     vdW  Elec       q    Type
REMARK                         _______ _______ _______ _____ _____    ______ ____
ROOT
ATOM      1  C   UNL     1      43.794   4.077  11.341  0.00  0.00    +0.000 C 
ENDROOT
BRANCH   1   2
ATOM      2  O   UNL     1      43.526   3.984   9.940  0.00  0.00    +0.000 OA
BRANCH   2   6
ATOM      3  C   UNL     1      46.521   2.385   7.508  0.00  0.00    +0.000 A 
ATOM      4  C   UNL     1      45.821   1.526   8.359  0.00  0.00    +0.000 A 
ATOM      5  C   UNL     1      44.812   2.026   9.189  0.00  0.00    +0.000 A 
ATOM      6  C   UNL     1      44.495   3.386   9.179  0.00  0.00    +0.000 A 
ATOM      7  C   UNL     1      45.208   4.246   8.337  0.00  0.00    +0.000 A 
ATOM      8  C   UNL     1      46.222   3.751   7.508  0.00  0.00    +0.000 A 
BRANCH   3  10
ATOM      9  N   UNL     1      48.690   2.692   6.445  0.00  0.00    +0.000 N 
ATOM     10  C   UNL     1      47.597   1.887   6.613  0.00  0.00    +0.000 C 
ATOM     11  O   UNL     1      47.535   0.788   6.079  0.00  0.00    +0.000 OA
ATOM     12  H   UNL     1      49.461   2.294   5.923  0.00  0.00    +0.000 HD
ATOM     13  H   UNL     1      48.890   3.470   7.057  0.00  0.00    +0.000 HD
ENDBRANCH   3  10
ENDBRANCH   2   6
ENDBRANCH   1   2
BRANCH   1  14
ATOM     14  C   UNL     1      43.997   5.542  11.724  0.00  0.00    +0.000 C 
BRANCH  14  15
ATOM     15  C   UNL     1      45.371   5.773  12.303  0.00  0.00    +0.000 A 
ATOM     16  C   UNL     1      45.812   5.029  13.403  0.00  0.00    +0.000 A 
ATOM     17  C   UNL     1      47.100   5.217  13.910  0.00  0.00    +0.000 A 
ATOM     18  C   UNL     1      47.962   6.147  13.325  0.00  0.00    +0.000 A 
ATOM     19  C   UNL     1      47.532   6.892  12.229  0.00  0.00    +0.000 A 
ATOM     20  C   UNL     1      46.247   6.696  11.715  0.00  0.00    +0.000 A 
BRANCH  19  21
ATOM     21  O   UNL     1      48.305   7.803  11.553  0.00  0.00    +0.000 OA
BRANCH  21  22
ATOM     22  C   UNL     1      48.494   9.120  12.118  0.00  0.00    +0.000 C 
ATOM     23  C   UNL     1      47.294  10.093  12.046  0.00  0.00    +0.000 C 
ATOM     24  C   UNL     1      48.223  11.173  11.482  0.00  0.00    +0.000 C 
ATOM     25  C   UNL     1      49.270  10.090  11.195  0.00  0.00    +0.000 C 
ENDBRANCH  21  22
ENDBRANCH  19  21
ENDBRANCH  14  15
ENDBRANCH   1  14
TORSDOF 7
ENDMDL
MODEL 4
REMARK VINA RESULT:    -7.042      1.716      2.230
REMARK INTER + INTRA:         -11.009
REMARK INTER:                 -10.001
REMARK INTRA:                  -1.008
REMARK UNBOUND:                -1.086
REMARK  Name = 
REMARK  7 active torsions:
REMARK  status: ('A' for Active; 'I' for Inactive)
REMARK    1  A    between atoms: C_2  and  C_4
REMARK    2  A    between atoms: C_7  and  O_8
REMARK    3  A    between atoms: O_8  and  C_9
REMARK    4  A    between atoms: C_9  and  C_10
REMARK    5  A    between atoms: C_10  and  C_11
REMARK    6  A    between atoms: C_15  and  O_16
REMARK    7  A    between atoms: O_16  and  C_17
REMARK                            x       y       z     vdW  Elec       q    Type
REMARK                         _______ _______ _______ _____ _____    ______ ____
ROOT
ATOM      1  C   UNL     1      43.501   4.393  11.005  0.00  0.00    +0.000 C 
ENDROOT
BRANCH   1   2
ATOM      2  O   UNL     1      43.567   3.075  10.457  0.00  0.00    +0.000 OA
BRANCH   2   6
ATOM      3  C   UNL     1      46.356   2.718   7.368  0.00  0.00    +0.000 A 
ATOM      4  C   UNL     1      46.062   1.589   8.137  0.00  0.00    +0.000 A 
ATOM      5  C   UNL     1      45.133   1.671   9.181  0.00  0.00    +0.000 A 
ATOM      6  C   UNL     1      44.494   2.879   9.467  0.00  0.00    +0.000 A 
ATOM      7  C   UNL     1      44.803   4.011   8.706  0.00  0.00    +0.000 A 
ATOM      8  C   UNL     1      45.734   3.936   7.664  0.00  0.00    +0.000 A 
BRANCH   3  10
ATOM      9  N   UNL     1      48.567   2.139   6.528  0.00  0.00    +0.000 N 
ATOM     10  C   UNL     1      47.335   2.665   6.252  0.00  0.00    +0.000 C 
ATOM     11  O   UNL     1      47.046   3.037   5.122  0.00  0.00    +0.000 OA
ATOM     12  H   UNL     1      49.184   2.008   5.736  0.00  0.00    +0.000 HD
ATOM     13  H   UNL     1      48.752   1.598   7.361  0.00  0.00    +0.000 HD
ENDBRANCH   3  10
ENDBRANCH   2   6
ENDBRANCH   1   2
BRANCH   1  14
ATOM     14  C   UNL     1      44.127   4.395  12.399  0.00  0.00    +0.000 C 
BRANCH  14  15
ATOM     15  C   UNL     1      45.420   5.172  12.419  0.00  0.00    +0.000 A 
ATOM     16  C   UNL     1      45.755   6.022  11.359  0.00  0.00    +0.000 A 
ATOM     17  C   UNL     1      46.933   6.771  11.402  0.00  0.00    +0.000 A 
ATOM     18  C   UNL     1      47.789   6.682  12.501  0.00  0.00    +0.000 A 
ATOM     19  C   UNL     1      47.464   5.839  13.562  0.00  0.00    +0.000 A 
ATOM     20  C   UNL     1      46.280   5.098  13.525  0.00  0.00    +0.000 A 
BRANCH  19  21
ATOM     21  O   UNL     1      48.209   5.702  14.706  0.00  0.00    +0.000 OA
BRANCH  21  22
ATOM     22  C   UNL     1      49.164   6.731  15.051  0.00  0.00    +0.000 C 
ATOM     23  C   UNL     1      49.942   6.551  16.375  0.00  0.00    +0.000 C 
ATOM     24  C   UNL     1      49.592   7.993  16.759  0.00  0.00    +0.000 C 
ATOM     25  C   UNL     1      48.524   8.002  15.659  0.00  0.00    +0.000 C 
ENDBRANCH  21  22
ENDBRANCH  19  21
ENDBRANCH  14  15
ENDBRANCH   1  14
TORSDOF 7
ENDMDL
MODEL 5
REMARK VINA RESULT:    -6.605      3.376      8.371
REMARK INTER + INTRA:         -10.394
REMARK INTER:                  -9.808
REMARK INTRA:                  -0.586
REMARK UNBOUND:                -1.086
REMARK  Name = 
REMARK  7 active torsions:
REMARK  status: ('A' for Active; 'I' for Inactive)
REMARK    1  A    between atoms: C_2  and  C_4
REMARK    2  A    between atoms: C_7  and  O_8
REMARK    3  A    between atoms: O_8  and  C_9
REMARK    4  A    between atoms: C_9  and  C_10
REMARK    5  A    between atoms: C_10  and  C_11
REMARK    6  A    between atoms: C_15  and  O_16
REMARK    7  A    between atoms: O_16  and  C_17
REMARK                            x       y       z     vdW  Elec       q    Type
REMARK                         _______ _______ _______ _____ _____    ______ ____
ROOT
ATOM      1  C   UNL     1      46.881   4.628  15.062  0.00  0.00    +0.000 C 
ENDROOT
BRANCH   1   2
ATOM      2  O   UNL     1      46.988   3.707  16.150  0.00  0.00    +0.000 OA
BRANCH   2   6
ATOM      3  C   UNL     1      50.878   3.183  17.578  0.00  0.00    +0.000 A 
ATOM      4  C   UNL     1      50.192   2.071  17.082  0.00  0.00    +0.000 A 
ATOM      5  C   UNL     1      48.887   2.208  16.595  0.00  0.00    +0.000 A 
ATOM      6  C   UNL     1      48.256   3.453  16.604  0.00  0.00    +0.000 A 
ATOM      7  C   UNL     1      48.939   4.562  17.116  0.00  0.00    +0.000 A 
ATOM      8  C   UNL     1      50.242   4.428  17.608  0.00  0.00    +0.000 A 
BRANCH   3  10
ATOM      9  N   UNL     1      52.685   1.832  18.494  0.00  0.00    +0.000 N 
ATOM     10  C   UNL     1      52.265   3.072  18.100  0.00  0.00    +0.000 C 
ATOM     11  O   UNL     1      53.017   4.036  18.140  0.00  0.00    +0.000 OA
ATOM     12  H   UNL     1      53.663   1.750  18.743  0.00  0.00    +0.000 HD
ATOM     13  H   UNL     1      52.194   0.986  18.241  0.00  0.00    +0.000 HD
ENDBRANCH   3  10
ENDBRANCH   2   6
ENDBRANCH   1   2
BRANCH   1  14
ATOM     14  C   UNL     1      46.915   3.860  13.742  0.00  0.00    +0.000 C 
BRANCH  14  15
ATOM     15  C   UNL     1      45.648   4.072  12.951  0.00  0.00    +0.000 A 
ATOM     16  C   UNL     1      44.837   5.187  13.192  0.00  0.00    +0.000 A 
ATOM     17  C   UNL     1      43.688   5.401  12.428  0.00  0.00    +0.000 A 
ATOM     18  C   UNL     1      43.334   4.506  11.416  0.00  0.00    +0.000 A 
ATOM     19  C   UNL     1      44.135   3.394  11.167  0.00  0.00    +0.000 A 
ATOM     20  C   UNL     1      45.292   3.185  11.924  0.00  0.00    +0.000 A 
BRANCH  19  21
ATOM     21  O   UNL     1      43.906   2.474  10.175  0.00  0.00    +0.000 OA
BRANCH  21  22
ATOM     22  C   UNL     1      44.367   2.756   8.834  0.00  0.00    +0.000 C 
ATOM     23  C   UNL     1      45.749   2.190   8.433  0.00  0.00    +0.000 C 
ATOM     24  C   UNL     1      46.146   3.573   7.906  0.00  0.00    +0.000 C 
ATOM     25  C   UNL     1      44.956   4.177   8.661  0.00  0.00    +0.000 C 
ENDBRANCH  21  22
ENDBRANCH  19  21
ENDBRANCH  14  15
ENDBRANCH   1  14
TORSDOF 7
ENDMDL
MODEL 6
REMARK VINA RESULT:    -6.588      2.877      7.616
REMARK INTER + INTRA:         -10.370
REMARK INTER:                  -9.179
REMARK INTRA:                  -1.191
REMARK UNBOUND:                -1.086
REMARK  Name = 
REMARK  7 active torsions:
REMARK  status: ('A' for Active; 'I' for Inactive)
REMARK    1  A    between atoms: C_2  and  C_4
REMARK    2  A    between atoms: C_7  and  O_8
REMARK    3  A    between atoms: O_8  and  C_9
REMARK    4  A    between atoms: C_9  and  C_10
REMARK    5  A    between atoms: C_10  and  C_11
REMARK    6  A    between atoms: C_15  and  O_16
REMARK    7  A    between atoms: O_16  and  C_17
REMARK                            x       y       z     vdW  Elec       q    Type
REMARK                         _______ _______ _______ _____ _____    ______ ____
ROOT
ATOM      1  C   UNL     1      46.192   7.637  12.873  0.00  0.00    +0.000 C 
ENDROOT
BRANCH   1   2
ATOM      2  O   UNL     1      47.314   6.750  12.873  0.00  0.00    +0.000 OA
BRANCH   2   6
ATOM      3  C   UNL     1      47.852   4.483  16.339  0.00  0.00    +0.000 A 
ATOM      4  C   UNL     1      48.487   5.724  16.247  0.00  0.00    +0.000 A 
ATOM      5  C   UNL     1      48.329   6.511  15.100  0.00  0.00    +0.000 A 
ATOM      6  C   UNL     1      47.543   6.065  14.037  0.00  0.00    +0.000 A 
ATOM      7  C   UNL     1      46.921   4.815  14.125  0.00  0.00    +0.000 A 
ATOM      8  C   UNL     1      47.079   4.022  15.267  0.00  0.00    +0.000 A 
BRANCH   3  10
ATOM      9  N   UNL     1      47.013   2.698  17.766  0.00  0.00    +0.000 N 
ATOM     10  C   UNL     1      47.995   3.623  17.541  0.00  0.00    +0.000 C 
ATOM     11  O   UNL     1      48.967   3.704  18.280  0.00  0.00    +0.000 OA
ATOM     12  H   UNL     1      47.179   2.047  18.524  0.00  0.00    +0.000 HD
ATOM     13  H   UNL     1      46.346   2.431  17.057  0.00  0.00    +0.000 HD
ENDBRANCH   3  10
ENDBRANCH   2   6
ENDBRANCH   1   2
BRANCH   1  14
ATOM     14  C   UNL     1      45.401   7.454  11.579  0.00  0.00    +0.000 C 
BRANCH  14  15
ATOM     15  C   UNL     1      44.675   6.132  11.562  0.00  0.00    +0.000 A 
ATOM     16  C   UNL     1      43.809   5.783  12.605  0.00  0.00    +0.000 A 
ATOM     17  C   UNL     1      43.107   4.576  12.563  0.00  0.00    +0.000 A 
ATOM     18  C   UNL     1      43.260   3.705  11.483  0.00  0.00    +0.000 A 
ATOM     19  C   UNL     1      44.118   4.043  10.440  0.00  0.00    +0.000 A 
ATOM     20  C   UNL     1      44.813   5.256  10.475  0.00  0.00    +0.000 A 
BRANCH  19  21
ATOM     21  O   UNL     1      44.316   3.285   9.314  0.00  0.00    +0.000 OA
BRANCH  21  22
ATOM     22  C   UNL     1      45.665   3.059   8.846  0.00  0.00    +0.000 C 
ATOM     23  C   UNL     1      45.985   3.484   7.394  0.00  0.00    +0.000 C 
ATOM     24  C   UNL     1      46.618   2.111   7.147  0.00  0.00    +0.000 C 
ATOM     25  C   UNL     1      45.945   1.596   8.425  0.00  0.00    +0.000 C 
ENDBRANCH  21  22
ENDBRANCH  19  21
ENDBRANCH  14  15
ENDBRANCH   1  14
TORSDOF 7
ENDMDL
MODEL 7
REMARK VINA RESULT:    -6.235      3.604      8.859
REMARK INTER + INTRA:          -9.872
REMARK INTER:                  -9.207
REMARK INTRA:                  -0.666
REMARK UNBOUND:                -1.086
REMARK  Name = 
REMARK  7 active torsions:
REMARK  status: ('A' for Active; 'I' for Inactive)
REMARK    1  A    between atoms: C_2  and  C_4
REMARK    2  A    between atoms: C_7  and  O_8
REMARK    3  A    between atoms: O_8  and  C_9
REMARK    4  A    between atoms: C_9  and  C_10
REMARK    5  A    between atoms: C_10  and  C_11
REMARK    6  A    between atoms: C_15  and  O_16
REMARK    7  A    between atoms: O_16  and  C_17
REMARK                            x       y       z     vdW  Elec       q    Type
REMARK                         _______ _______ _______ _____ _____    ______ ____
ROOT
ATOM      1  C   UNL     1      46.725   4.836  14.123  0.00  0.00    +0.000 C 
ENDROOT
BRANCH   1   2
ATOM      2  O   UNL     1      48.011   5.241  14.596  0.00  0.00    +0.000 OA
BRANCH   2   6
ATOM      3  C   UNL     1      48.292   5.307  18.763  0.00  0.00    +0.000 A 
ATOM      4  C   UNL     1      48.943   6.305  18.033  0.00  0.00    +0.000 A 
ATOM      5  C   UNL     1      48.871   6.315  16.635  0.00  0.00    +0.000 A 
ATOM      6  C   UNL     1      48.154   5.328  15.956  0.00  0.00    +0.000 A 
ATOM      7  C   UNL     1      47.517   4.321  16.689  0.00  0.00    +0.000 A 
ATOM      8  C   UNL     1      47.590   4.304  18.086  0.00  0.00    +0.000 A 
BRANCH   3  10
ATOM      9  N   UNL     1      48.658   4.070  20.828  0.00  0.00    +0.000 N 
ATOM     10  C   UNL     1      48.346   5.269  20.247  0.00  0.00    +0.000 C 
ATOM     11  O   UNL     1      48.161   6.270  20.926  0.00  0.00    +0.000 OA
ATOM     12  H   UNL     1      48.799   4.084  21.831  0.00  0.00    +0.000 HD
ATOM     13  H   UNL     1      49.061   3.303  20.308  0.00  0.00    +0.000 HD
ENDBRANCH   3  10
ENDBRANCH   2   6
ENDBRANCH   1   2
BRANCH   1  14
ATOM     14  C   UNL     1      46.139   5.937  13.241  0.00  0.00    +0.000 C 
BRANCH  14  15
ATOM     15  C   UNL     1      45.263   5.363  12.156  0.00  0.00    +0.000 A 
ATOM     16  C   UNL     1      43.956   4.950  12.441  0.00  0.00    +0.000 A 
ATOM     17  C   UNL     1      43.135   4.458  11.424  0.00  0.00    +0.000 A 
ATOM     18  C   UNL     1      43.606   4.373  10.112  0.00  0.00    +0.000 A 
ATOM     19  C   UNL     1      44.904   4.782   9.818  0.00  0.00    +0.000 A 
ATOM     20  C   UNL     1      45.723   5.285  10.833  0.00  0.00    +0.000 A 
BRANCH  19  21
ATOM     21  O   UNL     1      45.457   4.780   8.562  0.00  0.00    +0.000 OA
BRANCH  21  22
ATOM     22  C   UNL     1      45.481   3.548   7.806  0.00  0.00    +0.000 C 
ATOM     23  C   UNL     1      45.840   2.258   8.580  0.00  0.00    +0.000 C 
ATOM     24  C   UNL     1      46.859   1.906   7.491  0.00  0.00    +0.000 C 
ATOM     25  C   UNL     1      46.772   3.348   6.976  0.00  0.00    +0.000 C 
ENDBRANCH  21  22
ENDBRANCH  19  21
ENDBRANCH  14  15
ENDBRANCH   1  14
TORSDOF 7
ENDMDL
MODEL 8
REMARK VINA RESULT:    -6.138      3.006      7.842
REMARK INTER + INTRA:          -9.735
REMARK INTER:                  -8.739
REMARK INTRA:                  -0.996
REMARK UNBOUND:                -1.086
REMARK  Name = 
REMARK  7 active torsions:
REMARK  status: ('A' for Active; 'I' for Inactive)
REMARK    1  A    between atoms: C_2  and  C_4
REMARK    2  A    between atoms: C_7  and  O_8
REMARK    3  A    between atoms: O_8  and  C_9
REMARK    4  A    between atoms: C_9  and  C_10
REMARK    5  A    between atoms: C_10  and  C_11
REMARK    6  A    between atoms: C_15  and  O_16
REMARK    7  A    between atoms: O_16  and  C_17
REMARK                            x       y       z     vdW  Elec       q    Type
REMARK                         _______ _______ _______ _____ _____    ______ ____
ROOT
ATOM      1  C   UNL     1      45.320   6.927  12.485  0.00  0.00    +0.000 C 
ENDROOT
BRANCH   1   2
ATOM      2  O   UNL     1      46.659   6.426  12.473  0.00  0.00    +0.000 OA
BRANCH   2   6
ATOM      3  C   UNL     1      47.979   4.383  15.868  0.00  0.00    +0.000 A 
ATOM      4  C   UNL     1      47.063   3.753  15.022  0.00  0.00    +0.000 A 
ATOM      5  C   UNL     1      46.598   4.407  13.875  0.00  0.00    +0.000 A 
ATOM      6  C   UNL     1      47.040   5.694  13.567  0.00  0.00    +0.000 A 
ATOM      7  C   UNL     1      47.945   6.330  14.424  0.00  0.00    +0.000 A 
ATOM      8  C   UNL     1      48.409   5.682  15.574  0.00  0.00    +0.000 A 
BRANCH   3  10
ATOM      9  N   UNL     1      47.705   3.769  18.208  0.00  0.00    +0.000 N 
ATOM     10  C   UNL     1      48.494   3.717  17.092  0.00  0.00    +0.000 C 
ATOM     11  O   UNL     1      49.557   3.111  17.098  0.00  0.00    +0.000 OA
ATOM     12  H   UNL     1      48.015   3.219  19.000  0.00  0.00    +0.000 HD
ATOM     13  H   UNL     1      46.730   4.029  18.172  0.00  0.00    +0.000 HD
ENDBRANCH   3  10
ENDBRANCH   2   6
ENDBRANCH   1   2
BRANCH   1  14
ATOM     14  C   UNL     1      44.751   6.886  11.068  0.00  0.00    +0.000 C 
BRANCH  14  15
ATOM     15  C   UNL     1      44.846   5.501  10.477  0.00  0.00    +0.000 A 
ATOM     16  C   UNL     1      44.081   4.452  10.999  0.00  0.00    +0.000 A 
ATOM     17  C   UNL     1      44.141   3.181  10.422  0.00  0.00    +0.000 A 
ATOM     18  C   UNL     1      44.965   2.943   9.320  0.00  0.00    +0.000 A 
ATOM     19  C   UNL     1      45.729   3.980   8.793  0.00  0.00    +0.000 A 
ATOM     20  C   UNL     1      45.661   5.255   9.363  0.00  0.00    +0.000 A 
BRANCH  19  21
ATOM     21  O   UNL     1      46.541   3.870   7.692  0.00  0.00    +0.000 OA
BRANCH  21  22
ATOM     22  C   UNL     1      46.465   2.678   6.878  0.00  0.00    +0.000 C 
ATOM     23  C   UNL     1      47.624   1.663   7.010  0.00  0.00    +0.000 C 
ATOM     24  C   UNL     1      47.744   1.624   5.482  0.00  0.00    +0.000 C 
ATOM     25  C   UNL     1      46.891   2.896   5.407  0.00  0.00    +0.000 C 
ENDBRANCH  21  22
ENDBRANCH  19  21
ENDBRANCH  14  15
ENDBRANCH   1  14
TORSDOF 7
ENDMDL
MODEL 9
REMARK VINA RESULT:    -5.950      3.843      5.626
REMARK INTER + INTRA:          -9.471
REMARK INTER:                  -8.421
REMARK INTRA:                  -1.050
REMARK UNBOUND:                -1.086
REMARK  Name = 
REMARK  7 active torsions:
REMARK  status: ('A' for Active; 'I' for Inactive)
REMARK    1  A    between atoms: C_2  and  C_4
REMARK    2  A    between atoms: C_7  and  O_8
REMARK    3  A    between atoms: O_8  and  C_9
REMARK    4  A    between atoms: C_9  and  C_10
REMARK    5  A    between atoms: C_10  and  C_11
REMARK    6  A    between atoms: C_15  and  O_16
REMARK    7  A    between atoms: O_16  and  C_17
REMARK                            x       y       z     vdW  Elec       q    Type
REMARK                         _______ _______ _______ _____ _____    ______ ____
ROOT
ATOM      1  C   UNL     1      48.839   7.399  13.148  0.00  0.00    +0.000 C 
ENDROOT
BRANCH   1   2
ATOM      2  O   UNL     1      48.485   6.014  13.137  0.00  0.00    +0.000 OA
BRANCH   2   6
ATOM      3  C   UNL     1      44.506   5.312  12.081  0.00  0.00    +0.000 A 
ATOM      4  C   UNL     1      45.038   4.628  13.177  0.00  0.00    +0.000 A 
ATOM      5  C   UNL     1      46.367   4.837  13.561  0.00  0.00    +0.000 A 
ATOM      6  C   UNL     1      47.177   5.727  12.851  0.00  0.00    +0.000 A 
ATOM      7  C   UNL     1      46.647   6.398  11.745  0.00  0.00    +0.000 A 
ATOM      8  C   UNL     1      45.319   6.189  11.355  0.00  0.00    +0.000 A 
BRANCH   3  10
ATOM      9  N   UNL     1      42.291   6.218  11.636  0.00  0.00    +0.000 N 
ATOM     10  C   UNL     1      43.098   5.115  11.649  0.00  0.00    +0.000 C 
ATOM     11  O   UNL     1      42.683   4.024  11.281  0.00  0.00    +0.000 OA
ATOM     12  H   UNL     1      41.369   6.092  11.235  0.00  0.00    +0.000 HD
ATOM     13  H   UNL     1      42.655   7.159  11.683  0.00  0.00    +0.000 HD
ENDBRANCH   3  10
ENDBRANCH   2   6
ENDBRANCH   1   2
BRANCH   1  14
ATOM     14  C   UNL     1      48.673   7.955  14.561  0.00  0.00    +0.000 C 
BRANCH  14  15
ATOM     15  C   UNL     1      49.483   7.165  15.559  0.00  0.00    +0.000 A 
ATOM     16  C   UNL     1      50.882   7.228  15.549  0.00  0.00    +0.000 A 
ATOM     17  C   UNL     1      51.625   6.528  16.501  0.00  0.00    +0.000 A 
ATOM     18  C   UNL     1      50.984   5.759  17.475  0.00  0.00    +0.000 A 
ATOM     19  C   UNL     1      49.594   5.691  17.495  0.00  0.00    +0.000 A 
ATOM     20  C   UNL     1      48.848   6.400  16.548  0.00  0.00    +0.000 A 
BRANCH  19  21
ATOM     21  O   UNL     1      48.859   5.001  18.426  0.00  0.00    +0.000 OA
BRANCH  21  22
ATOM     22  C   UNL     1      48.610   3.592  18.221  0.00  0.00    +0.000 C 
ATOM     23  C   UNL     1      49.605   2.828  17.316  0.00  0.00    +0.000 C 
ATOM     24  C   UNL     1      48.423   2.242  16.536  0.00  0.00    +0.000 C 
ATOM     25  C   UNL     1      47.510   3.297  17.172  0.00  0.00    +0.000 C 
ENDBRANCH  21  22
ENDBRANCH  19  21
ENDBRANCH  14  15
ENDBRANCH   1  14
TORSDOF 7
ENDMDL
