MODEL 1
REMARK VINA RESULT:    -7.706      0.000      0.000
REMARK INTER + INTRA:         -10.343
REMARK INTER:                  -9.508
REMARK INTRA:                  -0.835
REMARK UNBOUND:                -0.835
REMARK  Name = 
REMARK  5 active torsions:
REMARK  status: ('A' for Active; 'I' for Inactive)
REMARK    1  A    between atoms: C_1  and  C_2
REMARK    2  A    between atoms: C_8  and  N_9
REMARK    3  A    between atoms: N_9  and  C_10
REMARK    4  A    between atoms: C_10  and  C_11
REMARK    5  A    between atoms: C_15  and  C_16
REMARK                            x       y       z     vdW  Elec       q    Type
REMARK                         _______ _______ _______ _____ _____    ______ ____
ROOT
ATOM      1  C   UNL     1      46.242   7.264  12.364  0.00  0.00    +0.000 C 
ATOM      2  C   UNL     1      46.501   8.679  11.823  0.00  0.00    +0.000 C 
ATOM      3  C   UNL     1      45.609   8.489  12.998  0.00  0.00    +0.000 C 
ENDROOT
BRANCH   1   4
ATOM      4  C   UNL     1      45.320   6.376  11.525  0.00  0.00    +0.000 A 
ATOM      5  C   UNL     1      43.935   6.337  11.706  0.00  0.00    +0.000 A 
ATOM      6  C   UNL     1      43.178   5.445  10.961  0.00  0.00    +0.000 A 
ATOM      7  N   UNL     1      43.693   4.595  10.052  0.00  0.00    +0.000 NA
ATOM      8  C   UNL     1      45.034   4.625   9.855  0.00  0.00    +0.000 A 
ATOM      9  C   UNL     1      45.853   5.511  10.560  0.00  0.00    +0.000 A 
BRANCH   8  10
ATOM     10  C   UNL     1      45.576   3.678   8.861  0.00  0.00    +0.000 A 
ATOM     11  C   UNL     1      46.224   4.135   7.701  0.00  0.00    +0.000 A 
ATOM     12  C   UNL     1      46.791   3.243   6.784  0.00  0.00    +0.000 A 
ATOM     13  C   UNL     1      46.713   1.870   7.003  0.00  0.00    +0.000 A 
ATOM     14  C   UNL     1      46.052   1.388   8.127  0.00  0.00    +0.000 A 
ATOM     15  C   UNL     1      45.484   2.283   9.040  0.00  0.00    +0.000 A 
ENDBRANCH   8  10
ENDBRANCH   1   4
BRANCH   1  16
ATOM     16  N   UNL     1      47.479   6.611  12.824  0.00  0.00    +0.000 N 
ATOM     17  H   UNL     1      47.899   6.024  12.102  0.00  0.00    +0.000 HD
BRANCH  16  25
ATOM     18  C   UNL     1      46.319   3.798  13.375  0.00  0.00    +0.000 C 
ATOM     19  C   UNL     1      47.149   4.620  14.307  0.00  0.00    +0.000 A 
ATOM     20  C   UNL     1      47.308   4.144  15.625  0.00  0.00    +0.000 A 
ATOM     21  C   UNL     1      48.028   4.876  16.557  0.00  0.00    +0.000 A 
ATOM     22 CL   UNL     1      48.186   4.336  18.176  0.00  0.00    +0.000 Cl
ATOM     23  C   UNL     1      48.587   6.064  16.142  0.00  0.00    +0.000 A 
ATOM     24  N   UNL     1      48.433   6.562  14.891  0.00  0.00    +0.000 NA
ATOM     25  C   UNL     1      47.709   5.860  13.980  0.00  0.00    +0.000 A 
ENDBRANCH  16  25
ENDBRANCH   1  16
TORSDOF 4
ENDMDL
MODEL 2
REMARK VINA RESULT:    -7.633      2.979      6.641
REMARK INTER + INTRA:         -10.253
REMARK INTER:                  -9.899
REMARK INTRA:                  -0.354
REMARK UNBOUND:                -0.835
REMARK  Name = 
REMARK  5 active torsions:
REMARK  status: ('A' for Active; 'I' for Inactive)
REMARK    1  A    between atoms: C_1  and  C_2
REMARK    2  A    between atoms: C_8  and  N_9
REMARK    3  A    between atoms: N_9  and  C_10
REMARK    4  A    between atoms: C_10  and  C_11
REMARK    5  A    between atoms: C_15  and  C_16
REMARK                            x       y       z     vdW  Elec       q    Type
REMARK                         _______ _______ _______ _____ _____    ______ ____
ROOT
ATOM      1  C   UNL     1      43.931   5.221  11.032  0.00  0.00    +0.000 C 
ATOM      2  C   UNL     1      42.853   4.367  11.717  0.00  0.00    +0.000 C 
ATOM      3  C   UNL     1      42.750   5.850  11.749  0.00  0.00    +0.000 C 
ENDROOT
BRANCH   1   4
ATOM      4  C   UNL     1      45.284   5.303  11.743  0.00  0.00    +0.000 A 
ATOM      5  C   UNL     1      45.698   4.366  12.694  0.00  0.00    +0.000 A 
ATOM      6  C   UNL     1      46.903   4.556  13.353  0.00  0.00    +0.000 A 
ATOM      7  N   UNL     1      47.725   5.602  13.137  0.00  0.00    +0.000 NA
ATOM      8  C   UNL     1      47.344   6.516  12.211  0.00  0.00    +0.000 A 
ATOM      9  C   UNL     1      46.150   6.376  11.498  0.00  0.00    +0.000 A 
BRANCH   8  10
ATOM     10  C   UNL     1      48.255   7.658  11.999  0.00  0.00    +0.000 A 
ATOM     11  C   UNL     1      49.620   7.458  11.730  0.00  0.00    +0.000 A 
ATOM     12  C   UNL     1      50.476   8.534  11.471  0.00  0.00    +0.000 A 
ATOM     13  C   UNL     1      49.987   9.837  11.486  0.00  0.00    +0.000 A 
ATOM     14  C   UNL     1      48.648  10.067  11.778  0.00  0.00    +0.000 A 
ATOM     15  C   UNL     1      47.795   8.990  12.039  0.00  0.00    +0.000 A 
ENDBRANCH   8  10
ENDBRANCH   1   4
BRANCH   1  16
ATOM     16  N   UNL     1      44.008   4.961   9.584  0.00  0.00    +0.000 N 
ATOM     17  H   UNL     1      43.086   4.826   9.166  0.00  0.00    +0.000 HD
BRANCH  16  25
ATOM     18  C   UNL     1      43.987   1.910  10.083  0.00  0.00    +0.000 C 
ATOM     19  C   UNL     1      44.863   2.653   9.128  0.00  0.00    +0.000 A 
ATOM     20  C   UNL     1      45.888   1.925   8.487  0.00  0.00    +0.000 A 
ATOM     21  C   UNL     1      46.768   2.558   7.623  0.00  0.00    +0.000 A 
ATOM     22 CL   UNL     1      48.049   1.698   6.878  0.00  0.00    +0.000 Cl
ATOM     23  C   UNL     1      46.591   3.907   7.405  0.00  0.00    +0.000 A 
ATOM     24  N   UNL     1      45.633   4.640   8.023  0.00  0.00    +0.000 NA
ATOM     25  C   UNL     1      44.782   4.029   8.889  0.00  0.00    +0.000 A 
ENDBRANCH  16  25
ENDBRANCH   1  16
TORSDOF 4
ENDMDL
MODEL 3
REMARK VINA RESULT:    -7.282      3.727      5.671
REMARK INTER + INTRA:          -9.820
REMARK INTER:                  -8.931
REMARK INTRA:                  -0.889
REMARK UNBOUND:                -0.835
REMARK  Name = 
REMARK  5 active torsions:
REMARK  status: ('A' for Active; 'I' for Inactive)
REMARK    1  A    between atoms: C_1  and  C_2
REMARK    2  A    between atoms: C_8  and  N_9
REMARK    3  A    between atoms: N_9  and  C_10
REMARK    4  A    between atoms: C_10  and  C_11
REMARK    5  A    between atoms: C_15  and  C_16
REMARK                            x       y       z     vdW  Elec       q    Type
REMARK                         _______ _______ _______ _____ _____    ______ ____
ROOT
ATOM      1  C   UNL     1      45.549   7.732  12.057  0.00  0.00    +0.000 C 
ATOM      2  C   UNL     1      46.424   7.464  13.292  0.00  0.00    +0.000 C 
ATOM      3  C   UNL     1      47.065   7.724  11.975  0.00  0.00    +0.000 C 
ENDROOT
BRANCH   1   4
ATOM      4  C   UNL     1      44.827   6.520  11.462  0.00  0.00    +0.000 A 
ATOM      5  C   UNL     1      43.556   6.116  11.879  0.00  0.00    +0.000 A 
ATOM      6  C   UNL     1      43.005   4.959  11.349  0.00  0.00    +0.000 A 
ATOM      7  N   UNL     1      43.618   4.180  10.437  0.00  0.00    +0.000 NA
ATOM      8  C   UNL     1      44.848   4.562  10.013  0.00  0.00    +0.000 A 
ATOM      9  C   UNL     1      45.455   5.725  10.494  0.00  0.00    +0.000 A 
BRANCH   8  10
ATOM     10  C   UNL     1      45.506   3.687   9.022  0.00  0.00    +0.000 A 
ATOM     11  C   UNL     1      45.461   2.288   9.146  0.00  0.00    +0.000 A 
ATOM     12  C   UNL     1      46.033   1.453   8.180  0.00  0.00    +0.000 A 
ATOM     13  C   UNL     1      46.672   2.001   7.071  0.00  0.00    +0.000 A 
ATOM     14  C   UNL     1      46.758   3.382   6.938  0.00  0.00    +0.000 A 
ATOM     15  C   UNL     1      46.188   4.214   7.907  0.00  0.00    +0.000 A 
ENDBRANCH   8  10
ENDBRANCH   1   4
BRANCH   1  16
ATOM     16  N   UNL     1      44.711   8.933  12.220  0.00  0.00    +0.000 N 
ATOM     17  H   UNL     1      43.815   8.722  12.662  0.00  0.00    +0.000 HD
BRANCH  16  25
ATOM     18  C   UNL     1      46.182  11.616  11.777  0.00  0.00    +0.000 C 
ATOM     19  C   UNL     1      44.938  11.155  11.090  0.00  0.00    +0.000 A 
ATOM     20  C   UNL     1      44.274  12.083  10.260  0.00  0.00    +0.000 A 
ATOM     21  C   UNL     1      43.089  11.741   9.627  0.00  0.00    +0.000 A 
ATOM     22 CL   UNL     1      42.244  12.874   8.658  0.00  0.00    +0.000 Cl
ATOM     23  C   UNL     1      42.603  10.467   9.826  0.00  0.00    +0.000 A 
ATOM     24  N   UNL     1      43.203   9.560  10.635  0.00  0.00    +0.000 NA
ATOM     25  C   UNL     1      44.352   9.899  11.277  0.00  0.00    +0.000 A 
ENDBRANCH  16  25
ENDBRANCH   1  16
TORSDOF 4
ENDMDL
MODEL 4
REMARK VINA RESULT:    -7.114      1.815      2.536
REMARK INTER + INTRA:          -9.612
REMARK INTER:                  -8.796
REMARK INTRA:                  -0.816
REMARK UNBOUND:                -0.835
REMARK  Name = 
REMARK  5 active torsions:
REMARK  status: ('A' for Active; 'I' for Inactive)
REMARK    1  A    between atoms: C_1  and  C_2
REMARK    2  A    between atoms: C_8  and  N_9
REMARK    3  A    between atoms: N_9  and  C_10
REMARK    4  A    between atoms: C_10  and  C_11
REMARK    5  A    between atoms: C_15  and  C_16
REMARK                            x       y       z     vdW  Elec       q    Type
REMARK                         _______ _______ _______ _____ _____    ______ ____
ROOT
ATOM      1  C   UNL     1      45.313   6.213  11.476  0.00  0.00    +0.000 C 
ATOM      2  C   UNL     1      44.447   7.430  11.115  0.00  0.00    +0.000 C 
ATOM      3  C   UNL     1      44.317   6.804  12.458  0.00  0.00    +0.000 C 
ENDROOT
BRANCH   1   4
ATOM      4  C   UNL     1      44.923   4.885  10.823  0.00  0.00    +0.000 A 
ATOM      5  C   UNL     1      43.936   4.045  11.346  0.00  0.00    +0.000 A 
ATOM      6  C   UNL     1      43.697   2.820  10.741  0.00  0.00    +0.000 A 
ATOM      7  N   UNL     1      44.362   2.371   9.659  0.00  0.00    +0.000 NA
ATOM      8  C   UNL     1      45.316   3.176   9.132  0.00  0.00    +0.000 A 
ATOM      9  C   UNL     1      45.596   4.430   9.681  0.00  0.00    +0.000 A 
BRANCH   8  10
ATOM     10  C   UNL     1      46.039   2.659   7.952  0.00  0.00    +0.000 A 
ATOM     11  C   UNL     1      46.531   1.343   7.922  0.00  0.00    +0.000 A 
ATOM     12  C   UNL     1      47.166   0.829   6.787  0.00  0.00    +0.000 A 
ATOM     13  C   UNL     1      47.331   1.625   5.657  0.00  0.00    +0.000 A 
ATOM     14  C   UNL     1      46.881   2.940   5.668  0.00  0.00    +0.000 A 
ATOM     15  C   UNL     1      46.250   3.452   6.806  0.00  0.00    +0.000 A 
ENDBRANCH   8  10
ENDBRANCH   1   4
BRANCH   1  16
ATOM     16  N   UNL     1      46.753   6.523  11.434  0.00  0.00    +0.000 N 
ATOM     17  H   UNL     1      47.274   5.864  10.854  0.00  0.00    +0.000 HD
BRANCH  16  25
ATOM     18  C   UNL     1      46.995   4.770  13.970  0.00  0.00    +0.000 C 
ATOM     19  C   UNL     1      47.738   6.035  13.683  0.00  0.00    +0.000 A 
ATOM     20  C   UNL     1      48.524   6.575  14.723  0.00  0.00    +0.000 A 
ATOM     21  C   UNL     1      49.205   7.769  14.545  0.00  0.00    +0.000 A 
ATOM     22 CL   UNL     1      50.122   8.464  15.815  0.00  0.00    +0.000 Cl
ATOM     23  C   UNL     1      49.097   8.390  13.319  0.00  0.00    +0.000 A 
ATOM     24  N   UNL     1      48.331   7.911  12.308  0.00  0.00    +0.000 NA
ATOM     25  C   UNL     1      47.643   6.753  12.486  0.00  0.00    +0.000 A 
ENDBRANCH  16  25
ENDBRANCH   1  16
TORSDOF 4
ENDMDL
MODEL 5
REMARK VINA RESULT:    -6.911      3.187      7.184
REMARK INTER + INTRA:          -9.362
REMARK INTER:                  -8.982
REMARK INTRA:                  -0.379
REMARK UNBOUND:                -0.835
REMARK  Name = 
REMARK  5 active torsions:
REMARK  status: ('A' for Active; 'I' for Inactive)
REMARK    1  A    between atoms: C_1  and  C_2
REMARK    2  A    between atoms: C_8  and  N_9
REMARK    3  A    between atoms: N_9  and  C_10
REMARK    4  A    between atoms: C_10  and  C_11
REMARK    5  A    between atoms: C_15  and  C_16
REMARK                            x       y       z     vdW  Elec       q    Type
REMARK                         _______ _______ _______ _____ _____    ______ ____
ROOT
ATOM      1  C   UNL     1      44.397   3.646  11.210  0.00  0.00    +0.000 C 
ATOM      2  C   UNL     1      43.039   3.410  11.888  0.00  0.00    +0.000 C 
ATOM      3  C   UNL     1      43.253   4.635  11.071  0.00  0.00    +0.000 C 
ENDROOT
BRANCH   1   4
ATOM      4  C   UNL     1      45.550   4.061  12.127  0.00  0.00    +0.000 A 
ATOM      5  C   UNL     1      46.155   3.181  13.028  0.00  0.00    +0.000 A 
ATOM      6  C   UNL     1      47.139   3.656  13.883  0.00  0.00    +0.000 A 
ATOM      7  N   UNL     1      47.566   4.933  13.906  0.00  0.00    +0.000 NA
ATOM      8  C   UNL     1      46.997   5.799  13.032  0.00  0.00    +0.000 A 
ATOM      9  C   UNL     1      46.012   5.384  12.132  0.00  0.00    +0.000 A 
BRANCH   8  10
ATOM     10  C   UNL     1      47.474   7.196  13.083  0.00  0.00    +0.000 A 
ATOM     11  C   UNL     1      47.027   8.149  12.152  0.00  0.00    +0.000 A 
ATOM     12  C   UNL     1      47.430   9.487  12.229  0.00  0.00    +0.000 A 
ATOM     13  C   UNL     1      48.298   9.899  13.236  0.00  0.00    +0.000 A 
ATOM     14  C   UNL     1      48.780   8.972  14.154  0.00  0.00    +0.000 A 
ATOM     15  C   UNL     1      48.378   7.635  14.071  0.00  0.00    +0.000 A 
ENDBRANCH   8  10
ENDBRANCH   1   4
BRANCH   1  16
ATOM     16  N   UNL     1      44.726   2.585  10.243  0.00  0.00    +0.000 N 
ATOM     17  H   UNL     1      44.999   1.715  10.702  0.00  0.00    +0.000 HD
BRANCH  16  25
ATOM     18  C   UNL     1      45.619   5.151   8.766  0.00  0.00    +0.000 C 
ATOM     19  C   UNL     1      45.965   3.744   8.401  0.00  0.00    +0.000 A 
ATOM     20  C   UNL     1      46.645   3.539   7.182  0.00  0.00    +0.000 A 
ATOM     21  C   UNL     1      46.958   2.257   6.756  0.00  0.00    +0.000 A 
ATOM     22 CL   UNL     1      47.737   1.989   5.253  0.00  0.00    +0.000 Cl
ATOM     23  C   UNL     1      46.597   1.207   7.571  0.00  0.00    +0.000 A 
ATOM     24  N   UNL     1      45.922   1.367   8.736  0.00  0.00    +0.000 NA
ATOM     25  C   UNL     1      45.592   2.621   9.146  0.00  0.00    +0.000 A 
ENDBRANCH  16  25
ENDBRANCH   1  16
TORSDOF 4
ENDMDL
MODEL 6
REMARK VINA RESULT:    -6.875      2.740      4.328
REMARK INTER + INTRA:          -9.318
REMARK INTER:                  -8.404
REMARK INTRA:                  -0.914
REMARK UNBOUND:                -0.835
REMARK  Name = 
REMARK  5 active torsions:
REMARK  status: ('A' for Active; 'I' for Inactive)
REMARK    1  A    between atoms: C_1  and  C_2
REMARK    2  A    between atoms: C_8  and  N_9
REMARK    3  A    between atoms: N_9  and  C_10
REMARK    4  A    between atoms: C_10  and  C_11
REMARK    5  A    between atoms: C_15  and  C_16
REMARK                            x       y       z     vdW  Elec       q    Type
REMARK                         _______ _______ _______ _____ _____    ______ ____
ROOT
ATOM      1  C   UNL     1      46.163   6.120  12.918  0.00  0.00    +0.000 C 
ATOM      2  C   UNL     1      46.361   5.220  14.149  0.00  0.00    +0.000 C 
ATOM      3  C   UNL     1      47.477   5.408  13.184  0.00  0.00    +0.000 C 
ENDROOT
BRANCH   1   4
ATOM      4  C   UNL     1      45.293   5.550  11.796  0.00  0.00    +0.000 A 
ATOM      5  C   UNL     1      43.901   5.665  11.783  0.00  0.00    +0.000 A 
ATOM      6  C   UNL     1      43.178   5.050  10.772  0.00  0.00    +0.000 A 
ATOM      7  N   UNL     1      43.734   4.334   9.775  0.00  0.00    +0.000 NA
ATOM      8  C   UNL     1      45.084   4.220   9.765  0.00  0.00    +0.000 A 
ATOM      9  C   UNL     1      45.874   4.828  10.744  0.00  0.00    +0.000 A 
BRANCH   8  10
ATOM     10  C   UNL     1      45.671   3.422   8.669  0.00  0.00    +0.000 A 
ATOM     11  C   UNL     1      46.125   4.034   7.489  0.00  0.00    +0.000 A 
ATOM     12  C   UNL     1      46.733   3.292   6.471  0.00  0.00    +0.000 A 
ATOM     13  C   UNL     1      46.892   1.916   6.609  0.00  0.00    +0.000 A 
ATOM     14  C   UNL     1      46.426   1.278   7.752  0.00  0.00    +0.000 A 
ATOM     15  C   UNL     1      45.815   2.024   8.766  0.00  0.00    +0.000 A 
ENDBRANCH   8  10
ENDBRANCH   1   4
BRANCH   1  16
ATOM     16  N   UNL     1      45.858   7.512  13.292  0.00  0.00    +0.000 N 
ATOM     17  H   UNL     1      44.910   7.615  13.657  0.00  0.00    +0.000 HD
BRANCH  16  25
ATOM     18  C   UNL     1      48.572   8.764  12.499  0.00  0.00    +0.000 C 
ATOM     19  C   UNL     1      47.214   9.329  12.230  0.00  0.00    +0.000 A 
ATOM     20  C   UNL     1      47.149  10.630  11.690  0.00  0.00    +0.000 A 
ATOM     21  C   UNL     1      45.924  11.236  11.456  0.00  0.00    +0.000 A 
ATOM     22 CL   UNL     1      45.829  12.836  10.850  0.00  0.00    +0.000 Cl
ATOM     23  C   UNL     1      44.788  10.516  11.754  0.00  0.00    +0.000 A 
ATOM     24  N   UNL     1      44.816   9.273  12.296  0.00  0.00    +0.000 NA
ATOM     25  C   UNL     1      46.014   8.685  12.549  0.00  0.00    +0.000 A 
ENDBRANCH  16  25
ENDBRANCH   1  16
TORSDOF 4
ENDMDL
MODEL 7
REMARK VINA RESULT:    -6.787      1.494      2.726
REMARK INTER + INTRA:          -9.210
REMARK INTER:                  -8.381
REMARK INTRA:                  -0.829
REMARK UNBOUND:                -0.835
REMARK  Name = 
REMARK  5 active torsions:
REMARK  status: ('A' for Active; 'I' for Inactive)
REMARK    1  A    between atoms: C_1  and  C_2
REMARK    2  A    between atoms: C_8  and  N_9
REMARK    3  A    between atoms: N_9  and  C_10
REMARK    4  A    between atoms: C_10  and  C_11
REMARK    5  A    between atoms: C_15  and  C_16
REMARK                            x       y       z     vdW  Elec       q    Type
REMARK                         _______ _______ _______ _____ _____    ______ ____
ROOT
ATOM      1  C   UNL     1      48.223   8.045  12.986  0.00  0.00    +0.000 C 
ATOM      2  C   UNL     1      49.257   8.865  12.198  0.00  0.00    +0.000 C 
ATOM      3  C   UNL     1      48.519   9.495  13.325  0.00  0.00    +0.000 C 
ENDROOT
BRANCH   1   4
ATOM      4  C   UNL     1      46.896   7.767  12.277  0.00  0.00    +0.000 A 
ATOM      5  C   UNL     1      45.791   8.615  12.379  0.00  0.00    +0.000 A 
ATOM      6  C   UNL     1      44.598   8.251  11.773  0.00  0.00    +0.000 A 
ATOM      7  N   UNL     1      44.424   7.113  11.073  0.00  0.00    +0.000 NA
ATOM      8  C   UNL     1      45.488   6.282  10.954  0.00  0.00    +0.000 A 
ATOM      9  C   UNL     1      46.724   6.596  11.526  0.00  0.00    +0.000 A 
BRANCH   8  10
ATOM     10  C   UNL     1      45.271   5.036  10.192  0.00  0.00    +0.000 A 
ATOM     11  C   UNL     1      44.579   3.952  10.756  0.00  0.00    +0.000 A 
ATOM     12  C   UNL     1      44.320   2.791  10.019  0.00  0.00    +0.000 A 
ATOM     13  C   UNL     1      44.759   2.685   8.702  0.00  0.00    +0.000 A 
ATOM     14  C   UNL     1      45.473   3.730   8.128  0.00  0.00    +0.000 A 
ATOM     15  C   UNL     1      45.733   4.888   8.868  0.00  0.00    +0.000 A 
ENDBRANCH   8  10
ENDBRANCH   1   4
BRANCH   1  16
ATOM     16  N   UNL     1      48.829   6.876  13.647  0.00  0.00    +0.000 N 
ATOM     17  H   UNL     1      49.069   6.138  12.983  0.00  0.00    +0.000 HD
BRANCH  16  25
ATOM     18  C   UNL     1      49.563   7.453  16.595  0.00  0.00    +0.000 C 
ATOM     19  C   UNL     1      48.735   6.318  16.086  0.00  0.00    +0.000 A 
ATOM     20  C   UNL     1      48.364   5.320  17.012  0.00  0.00    +0.000 A 
ATOM     21  C   UNL     1      47.634   4.214  16.602  0.00  0.00    +0.000 A 
ATOM     22 CL   UNL     1      47.221   2.968  17.704  0.00  0.00    +0.000 Cl
ATOM     23  C   UNL     1      47.278   4.141  15.273  0.00  0.00    +0.000 A 
ATOM     24  N   UNL     1      47.638   5.069  14.353  0.00  0.00    +0.000 NA
ATOM     25  C   UNL     1      48.374   6.143  14.746  0.00  0.00    +0.000 A 
ENDBRANCH  16  25
ENDBRANCH   1  16
TORSDOF 4
ENDMDL
MODEL 8
REMARK VINA RESULT:    -6.361      2.259      3.863
REMARK INTER + INTRA:          -8.683
REMARK INTER:                  -7.634
REMARK INTRA:                  -1.050
REMARK UNBOUND:                -0.835
REMARK  Name = 
REMARK  5 active torsions:
REMARK  status: ('A' for Active; 'I' for Inactive)
REMARK    1  A    between atoms: C_1  and  C_2
REMARK    2  A    between atoms: C_8  and  N_9
REMARK    3  A    between atoms: N_9  and  C_10
REMARK    4  A    between atoms: C_10  and  C_11
REMARK    5  A    between atoms: C_15  and  C_16
REMARK                            x       y       z     vdW  Elec       q    Type
REMARK                         _______ _______ _______ _____ _____    ______ ____
ROOT
ATOM      1  C   UNL     1      49.373   7.968  12.524  0.00  0.00    +0.000 C 
ATOM      2  C   UNL     1      50.259   7.701  11.297  0.00  0.00    +0.000 C 
ATOM      3  C   UNL     1      50.115   9.087  11.815  0.00  0.00    +0.000 C 
ENDROOT
BRANCH   1   4
ATOM      4  C   UNL     1      47.862   7.901  12.296  0.00  0.00    +0.000 A 
ATOM      5  C   UNL     1      47.027   9.014  12.418  0.00  0.00    +0.000 A 
ATOM      6  C   UNL     1      45.656   8.853  12.277  0.00  0.00    +0.000 A 
ATOM      7  N   UNL     1      45.057   7.674  12.021  0.00  0.00    +0.000 NA
ATOM      8  C   UNL     1      45.853   6.584  11.890  0.00  0.00    +0.000 A 
ATOM      9  C   UNL     1      47.242   6.678  12.004  0.00  0.00    +0.000 A 
BRANCH   8  10
ATOM     10  C   UNL     1      45.174   5.300  11.620  0.00  0.00    +0.000 A 
ATOM     11  C   UNL     1      44.628   4.535  12.665  0.00  0.00    +0.000 A 
ATOM     12  C   UNL     1      43.934   3.347  12.411  0.00  0.00    +0.000 A 
ATOM     13  C   UNL     1      43.779   2.893  11.104  0.00  0.00    +0.000 A 
ATOM     14  C   UNL     1      44.334   3.613  10.053  0.00  0.00    +0.000 A 
ATOM     15  C   UNL     1      45.030   4.799  10.311  0.00  0.00    +0.000 A 
ENDBRANCH   8  10
ENDBRANCH   1   4
BRANCH   1  16
ATOM     16  N   UNL     1      49.852   7.254  13.720  0.00  0.00    +0.000 N 
ATOM     17  H   UNL     1      50.063   6.274  13.527  0.00  0.00    +0.000 HD
BRANCH  16  25
ATOM     18  C   UNL     1      49.732   9.595  15.738  0.00  0.00    +0.000 C 
ATOM     19  C   UNL     1      49.277   8.190  15.970  0.00  0.00    +0.000 A 
ATOM     20  C   UNL     1      48.886   7.844  17.281  0.00  0.00    +0.000 A 
ATOM     21  C   UNL     1      48.496   6.548  17.581  0.00  0.00    +0.000 A 
ATOM     22 CL   UNL     1      48.068   6.100  19.179  0.00  0.00    +0.000 Cl
ATOM     23  C   UNL     1      48.491   5.629  16.555  0.00  0.00    +0.000 A 
ATOM     24  N   UNL     1      48.884   5.922  15.291  0.00  0.00    +0.000 NA
ATOM     25  C   UNL     1      49.289   7.185  14.997  0.00  0.00    +0.000 A 
ENDBRANCH  16  25
ENDBRANCH   1  16
TORSDOF 4
ENDMDL
MODEL 9
REMARK VINA RESULT:    -6.160      1.734      2.912
REMARK INTER + INTRA:          -8.436
REMARK INTER:                  -7.494
REMARK INTRA:                  -0.942
REMARK UNBOUND:                -0.835
REMARK  Name = 
REMARK  5 active torsions:
REMARK  status: ('A' for Active; 'I' for Inactive)
REMARK    1  A    between atoms: C_1  and  C_2
REMARK    2  A    between atoms: C_8  and  N_9
REMARK    3  A    between atoms: N_9  and  C_10
REMARK    4  A    between atoms: C_10  and  C_11
REMARK    5  A    between atoms: C_15  and  C_16
REMARK                            x       y       z     vdW  Elec       q    Type
REMARK                         _______ _______ _______ _____ _____    ______ ____
ROOT
ATOM      1  C   UNL     1      48.534   7.859  13.802  0.00  0.00    +0.000 C 
ATOM      2  C   UNL     1      49.726   8.574  13.147  0.00  0.00    +0.000 C 
ATOM      3  C   UNL     1      48.976   9.243  14.243  0.00  0.00    +0.000 C 
ENDROOT
BRANCH   1   4
ATOM      4  C   UNL     1      47.250   7.785  12.973  0.00  0.00    +0.000 A 
ATOM      5  C   UNL     1      46.292   8.803  12.967  0.00  0.00    +0.000 A 
ATOM      6  C   UNL     1      45.116   8.623  12.253  0.00  0.00    +0.000 A 
ATOM      7  N   UNL     1      44.824   7.514  11.546  0.00  0.00    +0.000 NA
ATOM      8  C   UNL     1      45.746   6.520  11.533  0.00  0.00    +0.000 A 
ATOM      9  C   UNL     1      46.959   6.642  12.217  0.00  0.00    +0.000 A 
BRANCH   8  10
ATOM     10  C   UNL     1      45.400   5.310  10.761  0.00  0.00    +0.000 A 
ATOM     11  C   UNL     1      44.812   4.196  11.383  0.00  0.00    +0.000 A 
ATOM     12  C   UNL     1      44.429   3.069  10.647  0.00  0.00    +0.000 A 
ATOM     13  C   UNL     1      44.637   3.028   9.271  0.00  0.00    +0.000 A 
ATOM     14  C   UNL     1      45.244   4.103   8.633  0.00  0.00    +0.000 A 
ATOM     15  C   UNL     1      45.628   5.227   9.372  0.00  0.00    +0.000 A 
ENDBRANCH   8  10
ENDBRANCH   1   4
BRANCH   1  16
ATOM     16  N   UNL     1      48.930   6.595  14.446  0.00  0.00    +0.000 N 
ATOM     17  H   UNL     1      48.682   5.780  13.882  0.00  0.00    +0.000 HD
BRANCH  16  25
ATOM     18  C   UNL     1      47.132   4.183  15.163  0.00  0.00    +0.000 C 
ATOM     19  C   UNL     1      47.814   5.106  16.121  0.00  0.00    +0.000 A 
ATOM     20  C   UNL     1      47.501   4.966  17.489  0.00  0.00    +0.000 A 
ATOM     21  C   UNL     1      48.060   5.816  18.431  0.00  0.00    +0.000 A 
ATOM     22 CL   UNL     1      47.650   5.693  20.090  0.00  0.00    +0.000 Cl
ATOM     23  C   UNL     1      48.936   6.780  17.981  0.00  0.00    +0.000 A 
ATOM     24  N   UNL     1      49.239   6.957  16.672  0.00  0.00    +0.000 NA
ATOM     25  C   UNL     1      48.675   6.141  15.742  0.00  0.00    +0.000 A 
ENDBRANCH  16  25
ENDBRANCH   1  16
TORSDOF 4
ENDMDL
