MODEL 1
REMARK VINA RESULT:    -7.335      0.000      0.000
REMARK INTER + INTRA:         -10.426
REMARK INTER:                  -9.907
REMARK INTRA:                  -0.519
REMARK UNBOUND:                -0.519
REMARK  Name = 
REMARK  6 active torsions:
REMARK  status: ('A' for Active; 'I' for Inactive)
REMARK    1  A    between atoms: C_2  and  C_3
REMARK    2  A    between atoms: N_7  and  C_8
REMARK    3  A    between atoms: C_8  and  C_9
REMARK    4  A    between atoms: C_12  and  C_13
REMARK    5  A    between atoms: C_13  and  N_14
REMARK    6  A    between atoms: C_15  and  C_17
REMARK                            x       y       z     vdW  Elec       q    Type
REMARK                         _______ _______ _______ _____ _____    ______ ____
ROOT
ATOM      1  C   UNL     1      44.813   4.964  13.471  0.00  0.00    +0.000 C 
ENDROOT
BRANCH   1   5
ATOM      2  C   UNL     1      44.713   3.958   9.265  0.00  0.00    +0.000 A 
ATOM      3  C   UNL     1      44.134   3.107  10.218  0.00  0.00    +0.000 A 
ATOM      4  C   UNL     1      44.172   3.423  11.574  0.00  0.00    +0.000 A 
ATOM      5  C   UNL     1      44.826   4.582  12.012  0.00  0.00    +0.000 A 
ATOM      6  C   UNL     1      45.507   5.368  11.075  0.00  0.00    +0.000 A 
ATOM      7  C   UNL     1      45.433   5.072   9.709  0.00  0.00    +0.000 A 
BRANCH   2   8
ATOM      8  C   UNL     1      44.483   3.705   7.790  0.00  0.00    +0.000 C 
BRANCH   8  13
ATOM      9  C   UNL     1      47.569   2.628   5.853  0.00  0.00    +0.000 C 
ATOM     10  C   UNL     1      48.170   1.649   6.859  0.00  0.00    +0.000 C 
ATOM     11  C   UNL     1      47.064   0.864   7.555  0.00  0.00    +0.000 C 
ATOM     12  C   UNL     1      45.995   1.790   8.147  0.00  0.00    +0.000 C 
ATOM     13  N   UNL     1      45.458   2.771   7.185  0.00  0.00    +0.000 NA
ATOM     14  C   UNL     1      46.536   3.533   6.531  0.00  0.00    +0.000 C 
BRANCH   9  16
ATOM     15  N   UNL     1      46.347   1.206   3.799  0.00  0.00    +0.000 NA
ATOM     16  C   UNL     1      46.901   1.850   4.729  0.00  0.00    +0.000 C 
ENDBRANCH   9  16
ENDBRANCH   8  13
ENDBRANCH   2   8
ENDBRANCH   1   5
BRANCH   1  17
ATOM     17  N   UNL     1      45.963   5.767  13.793  0.00  0.00    +0.000 N 
ATOM     18  C   UNL     1      47.157   5.217  14.177  0.00  0.00    +0.000 C 
ATOM     19  O   UNL     1      47.343   4.006  14.225  0.00  0.00    +0.000 OA
ATOM     20  H   UNL     1      45.770   6.736  14.023  0.00  0.00    +0.000 HD
BRANCH  18  21
ATOM     21  C   UNL     1      48.233   6.179  14.445  0.00  0.00    +0.000 A 
ATOM     22  C   UNL     1      48.787   6.921  13.413  0.00  0.00    +0.000 A 
ATOM     23  S   UNL     1      49.950   8.055  13.939  0.00  0.00    +0.000 S 
ATOM     24  C   UNL     1      49.801   7.543  15.556  0.00  0.00    +0.000 A 
ATOM     25  N   UNL     1      50.544   8.108  16.547  0.00  0.00    +0.000 NA
ATOM     26  C   UNL     1      50.350   7.601  17.718  0.00  0.00    +0.000 A 
ATOM     27  N   UNL     1      49.479   6.578  17.990  0.00  0.00    +0.000 N 
ATOM     28  C   UNL     1      48.686   5.994  17.031  0.00  0.00    +0.000 A 
ATOM     29  O   UNL     1      47.888   5.114  17.319  0.00  0.00    +0.000 OA
ATOM     30  C   UNL     1      48.873   6.533  15.694  0.00  0.00    +0.000 A 
ATOM     31  H   UNL     1      49.366   6.226  18.931  0.00  0.00    +0.000 HD
ENDBRANCH  18  21
ENDBRANCH   1  17
TORSDOF 6
ENDMDL
MODEL 2
REMARK VINA RESULT:    -7.246      3.064      9.577
REMARK INTER + INTRA:         -10.307
REMARK INTER:                  -9.117
REMARK INTRA:                  -1.190
REMARK UNBOUND:                -0.519
REMARK  Name = 
REMARK  6 active torsions:
REMARK  status: ('A' for Active; 'I' for Inactive)
REMARK    1  A    between atoms: C_2  and  C_3
REMARK    2  A    between atoms: N_7  and  C_8
REMARK    3  A    between atoms: C_8  and  C_9
REMARK    4  A    between atoms: C_12  and  C_13
REMARK    5  A    between atoms: C_13  and  N_14
REMARK    6  A    between atoms: C_15  and  C_17
REMARK                            x       y       z     vdW  Elec       q    Type
REMARK                         _______ _______ _______ _____ _____    ______ ____
ROOT
ATOM      1  C   UNL     1      47.735   7.834  11.775  0.00  0.00    +0.000 C 
ENDROOT
BRANCH   1   5
ATOM      2  C   UNL     1      49.147   8.012  15.860  0.00  0.00    +0.000 A 
ATOM      3  C   UNL     1      48.078   8.816  15.437  0.00  0.00    +0.000 A 
ATOM      4  C   UNL     1      47.627   8.768  14.120  0.00  0.00    +0.000 A 
ATOM      5  C   UNL     1      48.261   7.940  13.185  0.00  0.00    +0.000 A 
ATOM      6  C   UNL     1      49.400   7.228  13.576  0.00  0.00    +0.000 A 
ATOM      7  C   UNL     1      49.828   7.246  14.909  0.00  0.00    +0.000 A 
BRANCH   2   8
ATOM      8  C   UNL     1      49.487   7.924  17.333  0.00  0.00    +0.000 C 
BRANCH   8  13
ATOM      9  C   UNL     1      48.931   4.530  18.948  0.00  0.00    +0.000 C 
ATOM     10  C   UNL     1      48.387   4.981  20.302  0.00  0.00    +0.000 C 
ATOM     11  C   UNL     1      47.488   6.200  20.129  0.00  0.00    +0.000 C 
ATOM     12  C   UNL     1      48.184   7.312  19.335  0.00  0.00    +0.000 C 
ATOM     13  N   UNL     1      48.756   6.859  18.053  0.00  0.00    +0.000 NA
ATOM     14  C   UNL     1      49.635   5.690  18.235  0.00  0.00    +0.000 C 
BRANCH   9  16
ATOM     15  N   UNL     1      46.833   3.611  17.370  0.00  0.00    +0.000 NA
ATOM     16  C   UNL     1      47.784   4.028  18.085  0.00  0.00    +0.000 C 
ENDBRANCH   9  16
ENDBRANCH   8  13
ENDBRANCH   2   8
ENDBRANCH   1   5
BRANCH   1  17
ATOM     17  N   UNL     1      46.986   6.617  11.606  0.00  0.00    +0.000 N 
ATOM     18  C   UNL     1      45.630   6.559  11.795  0.00  0.00    +0.000 C 
ATOM     19  O   UNL     1      44.957   7.546  12.072  0.00  0.00    +0.000 OA
ATOM     20  H   UNL     1      47.526   5.761  11.650  0.00  0.00    +0.000 HD
BRANCH  18  21
ATOM     21  C   UNL     1      45.020   5.244  11.558  0.00  0.00    +0.000 A 
ATOM     22  C   UNL     1      44.327   4.598  12.570  0.00  0.00    +0.000 A 
ATOM     23  S   UNL     1      43.606   3.133  12.072  0.00  0.00    +0.000 S 
ATOM     24  C   UNL     1      44.255   3.281  10.504  0.00  0.00    +0.000 A 
ATOM     25  N   UNL     1      44.026   2.333   9.554  0.00  0.00    +0.000 NA
ATOM     26  C   UNL     1      44.604   2.560   8.422  0.00  0.00    +0.000 A 
ATOM     27  N   UNL     1      45.391   3.649   8.153  0.00  0.00    +0.000 N 
ATOM     28  C   UNL     1      45.629   4.647   9.068  0.00  0.00    +0.000 A 
ATOM     29  O   UNL     1      46.301   5.626   8.778  0.00  0.00    +0.000 OA
ATOM     30  C   UNL     1      44.998   4.433  10.361  0.00  0.00    +0.000 A 
ATOM     31  H   UNL     1      45.814   3.775   7.243  0.00  0.00    +0.000 HD
ENDBRANCH  18  21
ENDBRANCH   1  17
TORSDOF 6
ENDMDL
MODEL 3
REMARK VINA RESULT:    -7.121      1.680      2.526
REMARK INTER + INTRA:         -10.138
REMARK INTER:                  -9.885
REMARK INTRA:                  -0.253
REMARK UNBOUND:                -0.519
REMARK  Name = 
REMARK  6 active torsions:
REMARK  status: ('A' for Active; 'I' for Inactive)
REMARK    1  A    between atoms: C_2  and  C_3
REMARK    2  A    between atoms: N_7  and  C_8
REMARK    3  A    between atoms: C_8  and  C_9
REMARK    4  A    between atoms: C_12  and  C_13
REMARK    5  A    between atoms: C_13  and  N_14
REMARK    6  A    between atoms: C_15  and  C_17
REMARK                            x       y       z     vdW  Elec       q    Type
REMARK                         _______ _______ _______ _____ _____    ______ ____
ROOT
ATOM      1  C   UNL     1      45.082   5.493  13.316  0.00  0.00    +0.000 C 
ENDROOT
BRANCH   1   5
ATOM      2  C   UNL     1      44.816   4.149   9.213  0.00  0.00    +0.000 A 
ATOM      3  C   UNL     1      44.293   3.370  10.256  0.00  0.00    +0.000 A 
ATOM      4  C   UNL     1      44.386   3.795  11.579  0.00  0.00    +0.000 A 
ATOM      5  C   UNL     1      45.038   4.994  11.893  0.00  0.00    +0.000 A 
ATOM      6  C   UNL     1      45.663   5.712  10.867  0.00  0.00    +0.000 A 
ATOM      7  C   UNL     1      45.535   5.305   9.533  0.00  0.00    +0.000 A 
BRANCH   2   8
ATOM      8  C   UNL     1      44.526   3.775   7.774  0.00  0.00    +0.000 C 
BRANCH   8  13
ATOM      9  C   UNL     1      47.621   2.605   5.906  0.00  0.00    +0.000 C 
ATOM     10  C   UNL     1      48.187   1.633   6.939  0.00  0.00    +0.000 C 
ATOM     11  C   UNL     1      47.054   0.881   7.630  0.00  0.00    +0.000 C 
ATOM     12  C   UNL     1      45.995   1.838   8.189  0.00  0.00    +0.000 C 
ATOM     13  N   UNL     1      45.492   2.812   7.202  0.00  0.00    +0.000 NA
ATOM     14  C   UNL     1      46.595   3.542   6.552  0.00  0.00    +0.000 C 
BRANCH   9  16
ATOM     15  N   UNL     1      46.405   1.171   3.857  0.00  0.00    +0.000 NA
ATOM     16  C   UNL     1      46.956   1.821   4.786  0.00  0.00    +0.000 C 
ENDBRANCH   9  16
ENDBRANCH   8  13
ENDBRANCH   2   8
ENDBRANCH   1   5
BRANCH   1  17
ATOM     17  N   UNL     1      46.300   6.220  13.559  0.00  0.00    +0.000 N 
ATOM     18  C   UNL     1      47.392   5.642  14.149  0.00  0.00    +0.000 C 
ATOM     19  O   UNL     1      47.426   4.458  14.467  0.00  0.00    +0.000 OA
ATOM     20  H   UNL     1      46.213   7.230  13.564  0.00  0.00    +0.000 HD
BRANCH  18  21
ATOM     21  C   UNL     1      48.560   6.520  14.301  0.00  0.00    +0.000 A 
ATOM     22  C   UNL     1      49.209   6.622  15.522  0.00  0.00    +0.000 A 
ATOM     23  S   UNL     1      50.600   7.609  15.470  0.00  0.00    +0.000 S 
ATOM     24  C   UNL     1      50.343   7.987  13.830  0.00  0.00    +0.000 A 
ATOM     25  N   UNL     1      51.184   8.818  13.157  0.00  0.00    +0.000 NA
ATOM     26  C   UNL     1      50.850   9.039  11.930  0.00  0.00    +0.000 A 
ATOM     27  N   UNL     1      49.748   8.505  11.313  0.00  0.00    +0.000 N 
ATOM     28  C   UNL     1      48.884   7.640  11.941  0.00  0.00    +0.000 A 
ATOM     29  O   UNL     1      47.936   7.148  11.347  0.00  0.00    +0.000 OA
ATOM     30  C   UNL     1      49.221   7.362  13.328  0.00  0.00    +0.000 A 
ATOM     31  H   UNL     1      49.540   8.712  10.346  0.00  0.00    +0.000 HD
ENDBRANCH  18  21
ENDBRANCH   1  17
TORSDOF 6
ENDMDL
MODEL 4
REMARK VINA RESULT:    -7.036      3.004      4.787
REMARK INTER + INTRA:         -10.022
REMARK INTER:                  -9.181
REMARK INTRA:                  -0.841
REMARK UNBOUND:                -0.519
REMARK  Name = 
REMARK  6 active torsions:
REMARK  status: ('A' for Active; 'I' for Inactive)
REMARK    1  A    between atoms: C_2  and  C_3
REMARK    2  A    between atoms: N_7  and  C_8
REMARK    3  A    between atoms: C_8  and  C_9
REMARK    4  A    between atoms: C_12  and  C_13
REMARK    5  A    between atoms: C_13  and  N_14
REMARK    6  A    between atoms: C_15  and  C_17
REMARK                            x       y       z     vdW  Elec       q    Type
REMARK                         _______ _______ _______ _____ _____    ______ ____
ROOT
ATOM      1  C   UNL     1      44.343   3.124   9.603  0.00  0.00    +0.000 C 
ENDROOT
BRANCH   1   5
ATOM      2  C   UNL     1      47.006   1.774   6.473  0.00  0.00    +0.000 A 
ATOM      3  C   UNL     1      46.722   0.952   7.574  0.00  0.00    +0.000 A 
ATOM      4  C   UNL     1      45.872   1.388   8.589  0.00  0.00    +0.000 A 
ATOM      5  C   UNL     1      45.316   2.673   8.543  0.00  0.00    +0.000 A 
ATOM      6  C   UNL     1      45.693   3.535   7.507  0.00  0.00    +0.000 A 
ATOM      7  C   UNL     1      46.514   3.083   6.467  0.00  0.00    +0.000 A 
BRANCH   2   8
ATOM      8  C   UNL     1      47.760   1.210   5.287  0.00  0.00    +0.000 C 
BRANCH   8  13
ATOM      9  C   UNL     1      46.510  -0.348   2.054  0.00  0.00    +0.000 C 
ATOM     10  C   UNL     1      46.609  -1.825   2.431  0.00  0.00    +0.000 C 
ATOM     11  C   UNL     1      46.215  -2.023   3.891  0.00  0.00    +0.000 C 
ATOM     12  C   UNL     1      46.995  -1.088   4.823  0.00  0.00    +0.000 C 
ATOM     13  N   UNL     1      46.943   0.331   4.422  0.00  0.00    +0.000 NA
ATOM     14  C   UNL     1      47.340   0.511   3.015  0.00  0.00    +0.000 C 
BRANCH   9  16
ATOM     15  N   UNL     1      43.850   0.456   2.158  0.00  0.00    +0.000 NA
ATOM     16  C   UNL     1      45.055   0.092   2.111  0.00  0.00    +0.000 C 
ENDBRANCH   9  16
ENDBRANCH   8  13
ENDBRANCH   2   8
ENDBRANCH   1   5
BRANCH   1  17
ATOM     17  N   UNL     1      44.934   4.144  10.429  0.00  0.00    +0.000 N 
ATOM     18  C   UNL     1      45.198   3.948  11.758  0.00  0.00    +0.000 C 
ATOM     19  O   UNL     1      44.996   2.879  12.324  0.00  0.00    +0.000 OA
ATOM     20  H   UNL     1      44.859   5.092  10.076  0.00  0.00    +0.000 HD
BRANCH  18  21
ATOM     21  C   UNL     1      45.824   5.084  12.447  0.00  0.00    +0.000 A 
ATOM     22  C   UNL     1      46.911   4.887  13.285  0.00  0.00    +0.000 A 
ATOM     23  S   UNL     1      47.559   6.336  13.910  0.00  0.00    +0.000 S 
ATOM     24  C   UNL     1      46.366   7.271  13.135  0.00  0.00    +0.000 A 
ATOM     25  N   UNL     1      46.334   8.626  13.268  0.00  0.00    +0.000 NA
ATOM     26  C   UNL     1      45.358   9.201  12.651  0.00  0.00    +0.000 A 
ATOM     27  N   UNL     1      44.407   8.547  11.912  0.00  0.00    +0.000 N 
ATOM     28  C   UNL     1      44.412   7.185  11.725  0.00  0.00    +0.000 A 
ATOM     29  O   UNL     1      43.573   6.639  11.022  0.00  0.00    +0.000 OA
ATOM     30  C   UNL     1      45.495   6.492  12.404  0.00  0.00    +0.000 A 
ATOM     31  H   UNL     1      43.667   9.053  11.447  0.00  0.00    +0.000 HD
ENDBRANCH  18  21
ENDBRANCH   1  17
TORSDOF 6
ENDMDL
MODEL 5
REMARK VINA RESULT:    -6.860      4.606     10.624
REMARK INTER + INTRA:          -9.785
REMARK INTER:                  -8.884
REMARK INTRA:                  -0.900
REMARK UNBOUND:                -0.519
REMARK  Name = 
REMARK  6 active torsions:
REMARK  status: ('A' for Active; 'I' for Inactive)
REMARK    1  A    between atoms: C_2  and  C_3
REMARK    2  A    between atoms: N_7  and  C_8
REMARK    3  A    between atoms: C_8  and  C_9
REMARK    4  A    between atoms: C_12  and  C_13
REMARK    5  A    between atoms: C_13  and  N_14
REMARK    6  A    between atoms: C_15  and  C_17
REMARK                            x       y       z     vdW  Elec       q    Type
REMARK                         _______ _______ _______ _____ _____    ______ ____
ROOT
ATOM      1  C   UNL     1      47.284   3.417  16.727  0.00  0.00    +0.000 C 
ENDROOT
BRANCH   1   5
ATOM      2  C   UNL     1      51.447   4.098  17.684  0.00  0.00    +0.000 A 
ATOM      3  C   UNL     1      50.949   2.793  17.548  0.00  0.00    +0.000 A 
ATOM      4  C   UNL     1      49.606   2.570  17.249  0.00  0.00    +0.000 A 
ATOM      5  C   UNL     1      48.722   3.649  17.117  0.00  0.00    +0.000 A 
ATOM      6  C   UNL     1      49.193   4.943  17.369  0.00  0.00    +0.000 A 
ATOM      7  C   UNL     1      50.549   5.169  17.630  0.00  0.00    +0.000 A 
BRANCH   2   8
ATOM      8  C   UNL     1      52.940   4.326  17.803  0.00  0.00    +0.000 C 
BRANCH   8  13
ATOM      9  C   UNL     1      53.501   4.410  21.560  0.00  0.00    +0.000 C 
ATOM     10  C   UNL     1      54.961   4.856  21.587  0.00  0.00    +0.000 C 
ATOM     11  C   UNL     1      55.221   5.875  20.483  0.00  0.00    +0.000 C 
ATOM     12  C   UNL     1      54.750   5.365  19.116  0.00  0.00    +0.000 C 
ATOM     13  N   UNL     1      53.356   4.883  19.108  0.00  0.00    +0.000 NA
ATOM     14  C   UNL     1      53.121   3.888  20.170  0.00  0.00    +0.000 C 
BRANCH   9  16
ATOM     15  N   UNL     1      51.865   6.561  22.219  0.00  0.00    +0.000 NA
ATOM     16  C   UNL     1      52.607   5.587  21.920  0.00  0.00    +0.000 C 
ENDBRANCH   9  16
ENDBRANCH   8  13
ENDBRANCH   2   8
ENDBRANCH   1   5
BRANCH   1  17
ATOM     17  N   UNL     1      46.852   4.408  15.778  0.00  0.00    +0.000 N 
ATOM     18  C   UNL     1      46.904   4.199  14.425  0.00  0.00    +0.000 C 
ATOM     19  O   UNL     1      47.275   3.139  13.932  0.00  0.00    +0.000 OA
ATOM     20  H   UNL     1      46.804   5.358  16.128  0.00  0.00    +0.000 HD
BRANCH  18  21
ATOM     21  C   UNL     1      46.401   5.305  13.600  0.00  0.00    +0.000 A 
ATOM     22  C   UNL     1      47.162   6.450  13.420  0.00  0.00    +0.000 A 
ATOM     23  S   UNL     1      46.454   7.574  12.349  0.00  0.00    +0.000 S 
ATOM     24  C   UNL     1      45.075   6.597  12.144  0.00  0.00    +0.000 A 
ATOM     25  N   UNL     1      44.046   6.988  11.342  0.00  0.00    +0.000 NA
ATOM     26  C   UNL     1      43.054   6.163  11.305  0.00  0.00    +0.000 A 
ATOM     27  N   UNL     1      42.994   4.982  11.997  0.00  0.00    +0.000 N 
ATOM     28  C   UNL     1      44.017   4.530  12.797  0.00  0.00    +0.000 A 
ATOM     29  O   UNL     1      43.948   3.451  13.366  0.00  0.00    +0.000 OA
ATOM     30  C   UNL     1      45.158   5.429  12.871  0.00  0.00    +0.000 A 
ATOM     31  H   UNL     1      42.190   4.374  11.925  0.00  0.00    +0.000 HD
ENDBRANCH  18  21
ENDBRANCH   1  17
TORSDOF 6
ENDMDL
MODEL 6
REMARK VINA RESULT:    -6.654      5.186      7.800
REMARK INTER + INTRA:          -9.506
REMARK INTER:                  -8.445
REMARK INTRA:                  -1.061
REMARK UNBOUND:                -0.519
REMARK  Name = 
REMARK  6 active torsions:
REMARK  status: ('A' for Active; 'I' for Inactive)
REMARK    1  A    between atoms: C_2  and  C_3
REMARK    2  A    between atoms: N_7  and  C_8
REMARK    3  A    between atoms: C_8  and  C_9
REMARK    4  A    between atoms: C_12  and  C_13
REMARK    5  A    between atoms: C_13  and  N_14
REMARK    6  A    between atoms: C_15  and  C_17
REMARK                            x       y       z     vdW  Elec       q    Type
REMARK                         _______ _______ _______ _____ _____    ______ ____
ROOT
ATOM      1  C   UNL     1      51.319   8.816  11.848  0.00  0.00    +0.000 C 
ENDROOT
BRANCH   1   5
ATOM      2  C   UNL     1      47.802   6.630  13.099  0.00  0.00    +0.000 A 
ATOM      3  C   UNL     1      47.875   7.193  11.816  0.00  0.00    +0.000 A 
ATOM      4  C   UNL     1      49.003   7.905  11.413  0.00  0.00    +0.000 A 
ATOM      5  C   UNL     1      50.068   8.104  12.300  0.00  0.00    +0.000 A 
ATOM      6  C   UNL     1      49.946   7.646  13.617  0.00  0.00    +0.000 A 
ATOM      7  C   UNL     1      48.831   6.896  14.009  0.00  0.00    +0.000 A 
BRANCH   2   8
ATOM      8  C   UNL     1      46.666   5.690  13.447  0.00  0.00    +0.000 C 
BRANCH   8  13
ATOM      9  C   UNL     1      44.469   3.806  10.985  0.00  0.00    +0.000 C 
ATOM     10  C   UNL     1      43.138   4.508  11.247  0.00  0.00    +0.000 C 
ATOM     11  C   UNL     1      43.366   5.994  11.496  0.00  0.00    +0.000 C 
ATOM     12  C   UNL     1      44.422   6.233  12.582  0.00  0.00    +0.000 C 
ATOM     13  N   UNL     1      45.686   5.509  12.354  0.00  0.00    +0.000 NA
ATOM     14  C   UNL     1      45.453   4.072  12.130  0.00  0.00    +0.000 C 
BRANCH   9  16
ATOM     15  N   UNL     1      45.551   4.740   8.599  0.00  0.00    +0.000 NA
ATOM     16  C   UNL     1      45.061   4.316   9.680  0.00  0.00    +0.000 C 
ENDBRANCH   9  16
ENDBRANCH   8  13
ENDBRANCH   2   8
ENDBRANCH   1   5
BRANCH   1  17
ATOM     17  N   UNL     1      51.667   8.423  10.508  0.00  0.00    +0.000 N 
ATOM     18  C   UNL     1      52.796   8.879   9.880  0.00  0.00    +0.000 C 
ATOM     19  O   UNL     1      53.610   9.612  10.432  0.00  0.00    +0.000 OA
ATOM     20  H   UNL     1      50.905   8.057   9.947  0.00  0.00    +0.000 HD
BRANCH  18  21
ATOM     21  C   UNL     1      53.012   8.361   8.524  0.00  0.00    +0.000 A 
ATOM     22  C   UNL     1      52.955   9.210   7.429  0.00  0.00    +0.000 A 
ATOM     23  S   UNL     1      53.333   8.442   5.953  0.00  0.00    +0.000 S 
ATOM     24  C   UNL     1      53.519   6.933   6.720  0.00  0.00    +0.000 A 
ATOM     25  N   UNL     1      53.838   5.816   6.011  0.00  0.00    +0.000 NA
ATOM     26  C   UNL     1      53.917   4.738   6.717  0.00  0.00    +0.000 A 
ATOM     27  N   UNL     1      53.704   4.674   8.069  0.00  0.00    +0.000 N 
ATOM     28  C   UNL     1      53.407   5.777   8.834  0.00  0.00    +0.000 A 
ATOM     29  O   UNL     1      53.268   5.690  10.045  0.00  0.00    +0.000 OA
ATOM     30  C   UNL     1      53.307   7.016   8.079  0.00  0.00    +0.000 A 
ATOM     31  H   UNL     1      53.784   3.800   8.570  0.00  0.00    +0.000 HD
ENDBRANCH  18  21
ENDBRANCH   1  17
TORSDOF 6
ENDMDL
MODEL 7
REMARK VINA RESULT:    -6.638      3.909     10.809
REMARK INTER + INTRA:          -9.485
REMARK INTER:                  -8.792
REMARK INTRA:                  -0.694
REMARK UNBOUND:                -0.519
REMARK  Name = 
REMARK  6 active torsions:
REMARK  status: ('A' for Active; 'I' for Inactive)
REMARK    1  A    between atoms: C_2  and  C_3
REMARK    2  A    between atoms: N_7  and  C_8
REMARK    3  A    between atoms: C_8  and  C_9
REMARK    4  A    between atoms: C_12  and  C_13
REMARK    5  A    between atoms: C_13  and  N_14
REMARK    6  A    between atoms: C_15  and  C_17
REMARK                            x       y       z     vdW  Elec       q    Type
REMARK                         _______ _______ _______ _____ _____    ______ ____
ROOT
ATOM      1  C   UNL     1      47.798   4.160  16.121  0.00  0.00    +0.000 C 
ENDROOT
BRANCH   1   5
ATOM      2  C   UNL     1      48.468   6.844  19.446  0.00  0.00    +0.000 A 
ATOM      3  C   UNL     1      47.284   6.097  19.357  0.00  0.00    +0.000 A 
ATOM      4  C   UNL     1      47.061   5.239  18.283  0.00  0.00    +0.000 A 
ATOM      5  C   UNL     1      48.003   5.136  17.251  0.00  0.00    +0.000 A 
ATOM      6  C   UNL     1      49.128   5.968  17.280  0.00  0.00    +0.000 A 
ATOM      7  C   UNL     1      49.371   6.801  18.379  0.00  0.00    +0.000 A 
BRANCH   2   8
ATOM      8  C   UNL     1      48.783   7.609  20.715  0.00  0.00    +0.000 C 
BRANCH   8  13
ATOM      9  C   UNL     1      46.966  10.719  19.506  0.00  0.00    +0.000 C 
ATOM     10  C   UNL     1      45.746  10.671  20.423  0.00  0.00    +0.000 C 
ATOM     11  C   UNL     1      46.149  10.187  21.811  0.00  0.00    +0.000 C 
ATOM     12  C   UNL     1      46.936   8.872  21.749  0.00  0.00    +0.000 C 
ATOM     13  N   UNL     1      48.080   8.906  20.820  0.00  0.00    +0.000 NA
ATOM     14  C   UNL     1      47.675   9.360  19.478  0.00  0.00    +0.000 C 
BRANCH   9  16
ATOM     15  N   UNL     1      48.732  12.664  20.419  0.00  0.00    +0.000 NA
ATOM     16  C   UNL     1      47.932  11.782  20.005  0.00  0.00    +0.000 C 
ENDBRANCH   9  16
ENDBRANCH   8  13
ENDBRANCH   2   8
ENDBRANCH   1   5
BRANCH   1  17
ATOM     17  N   UNL     1      46.889   4.700  15.145  0.00  0.00    +0.000 N 
ATOM     18  C   UNL     1      47.311   5.496  14.113  0.00  0.00    +0.000 C 
ATOM     19  O   UNL     1      48.493   5.762  13.921  0.00  0.00    +0.000 OA
ATOM     20  H   UNL     1      45.915   4.729  15.422  0.00  0.00    +0.000 HD
BRANCH  18  21
ATOM     21  C   UNL     1      46.256   5.943  13.194  0.00  0.00    +0.000 A 
ATOM     22  C   UNL     1      46.036   7.295  12.982  0.00  0.00    +0.000 A 
ATOM     23  S   UNL     1      44.839   7.612  11.806  0.00  0.00    +0.000 S 
ATOM     24  C   UNL     1      44.529   5.952  11.592  0.00  0.00    +0.000 A 
ATOM     25  N   UNL     1      43.583   5.518  10.715  0.00  0.00    +0.000 NA
ATOM     26  C   UNL     1      43.434   4.236  10.678  0.00  0.00    +0.000 A 
ATOM     27  N   UNL     1      44.144   3.346  11.440  0.00  0.00    +0.000 N 
ATOM     28  C   UNL     1      45.129   3.732  12.319  0.00  0.00    +0.000 A 
ATOM     29  O   UNL     1      45.773   2.907  12.950  0.00  0.00    +0.000 OA
ATOM     30  C   UNL     1      45.331   5.170  12.395  0.00  0.00    +0.000 A 
ATOM     31  H   UNL     1      43.986   2.351  11.364  0.00  0.00    +0.000 HD
ENDBRANCH  18  21
ENDBRANCH   1  17
TORSDOF 6
ENDMDL
MODEL 8
REMARK VINA RESULT:    -6.519      4.284      9.343
REMARK INTER + INTRA:          -9.325
REMARK INTER:                  -8.285
REMARK INTRA:                  -1.040
REMARK UNBOUND:                -0.519
REMARK  Name = 
REMARK  6 active torsions:
REMARK  status: ('A' for Active; 'I' for Inactive)
REMARK    1  A    between atoms: C_2  and  C_3
REMARK    2  A    between atoms: N_7  and  C_8
REMARK    3  A    between atoms: C_8  and  C_9
REMARK    4  A    between atoms: C_12  and  C_13
REMARK    5  A    between atoms: C_13  and  N_14
REMARK    6  A    between atoms: C_15  and  C_17
REMARK                            x       y       z     vdW  Elec       q    Type
REMARK                         _______ _______ _______ _____ _____    ______ ____
ROOT
ATOM      1  C   UNL     1      48.373   7.559  14.230  0.00  0.00    +0.000 C 
ENDROOT
BRANCH   1   5
ATOM      2  C   UNL     1      49.747   4.970  17.411  0.00  0.00    +0.000 A 
ATOM      3  C   UNL     1      48.484   4.781  16.831  0.00  0.00    +0.000 A 
ATOM      4  C   UNL     1      48.034   5.619  15.812  0.00  0.00    +0.000 A 
ATOM      5  C   UNL     1      48.825   6.690  15.377  0.00  0.00    +0.000 A 
ATOM      6  C   UNL     1      50.032   6.950  16.035  0.00  0.00    +0.000 A 
ATOM      7  C   UNL     1      50.501   6.085  17.031  0.00  0.00    +0.000 A 
BRANCH   2   8
ATOM      8  C   UNL     1      50.301   3.932  18.365  0.00  0.00    +0.000 C 
BRANCH   8  13
ATOM      9  C   UNL     1      54.026   3.378  18.872  0.00  0.00    +0.000 C 
ATOM     10  C   UNL     1      54.110   1.894  18.522  0.00  0.00    +0.000 C 
ATOM     11  C   UNL     1      53.168   1.571  17.368  0.00  0.00    +0.000 C 
ATOM     12  C   UNL     1      51.743   2.068  17.641  0.00  0.00    +0.000 C 
ATOM     13  N   UNL     1      51.672   3.487  18.033  0.00  0.00    +0.000 NA
ATOM     14  C   UNL     1      52.576   3.784  19.159  0.00  0.00    +0.000 C 
BRANCH   9  16
ATOM     15  N   UNL     1      55.005   4.884  16.749  0.00  0.00    +0.000 NA
ATOM     16  C   UNL     1      54.561   4.202  17.711  0.00  0.00    +0.000 C 
ENDBRANCH   9  16
ENDBRANCH   8  13
ENDBRANCH   2   8
ENDBRANCH   1   5
BRANCH   1  17
ATOM     17  N   UNL     1      47.111   7.098  13.714  0.00  0.00    +0.000 N 
ATOM     18  C   UNL     1      46.924   6.805  12.389  0.00  0.00    +0.000 C 
ATOM     19  O   UNL     1      47.827   6.869  11.562  0.00  0.00    +0.000 OA
ATOM     20  H   UNL     1      46.303   7.293  14.294  0.00  0.00    +0.000 HD
BRANCH  18  21
ATOM     21  C   UNL     1      45.582   6.325  12.036  0.00  0.00    +0.000 A 
ATOM     22  C   UNL     1      44.642   7.193  11.502  0.00  0.00    +0.000 A 
ATOM     23  S   UNL     1      43.181   6.426  11.064  0.00  0.00    +0.000 S 
ATOM     24  C   UNL     1      43.732   4.921  11.637  0.00  0.00    +0.000 A 
ATOM     25  N   UNL     1      42.947   3.811  11.573  0.00  0.00    +0.000 NA
ATOM     26  C   UNL     1      43.482   2.747  12.072  0.00  0.00    +0.000 A 
ATOM     27  N   UNL     1      44.732   2.691  12.630  0.00  0.00    +0.000 N 
ATOM     28  C   UNL     1      45.574   3.776  12.693  0.00  0.00    +0.000 A 
ATOM     29  O   UNL     1      46.700   3.678  13.158  0.00  0.00    +0.000 OA
ATOM     30  C   UNL     1      45.012   4.999  12.143  0.00  0.00    +0.000 A 
ATOM     31  H   UNL     1      45.100   1.825  13.001  0.00  0.00    +0.000 HD
ENDBRANCH  18  21
ENDBRANCH   1  17
TORSDOF 6
ENDMDL
MODEL 9
REMARK VINA RESULT:    -6.518      5.242      7.715
REMARK INTER + INTRA:          -9.323
REMARK INTER:                  -8.246
REMARK INTRA:                  -1.076
REMARK UNBOUND:                -0.519
REMARK  Name = 
REMARK  6 active torsions:
REMARK  status: ('A' for Active; 'I' for Inactive)
REMARK    1  A    between atoms: C_2  and  C_3
REMARK    2  A    between atoms: N_7  and  C_8
REMARK    3  A    between atoms: C_8  and  C_9
REMARK    4  A    between atoms: C_12  and  C_13
REMARK    5  A    between atoms: C_13  and  N_14
REMARK    6  A    between atoms: C_15  and  C_17
REMARK                            x       y       z     vdW  Elec       q    Type
REMARK                         _______ _______ _______ _____ _____    ______ ____
ROOT
ATOM      1  C   UNL     1      50.686   8.808  11.877  0.00  0.00    +0.000 C 
ENDROOT
BRANCH   1   5
ATOM      2  C   UNL     1      47.397   6.340  13.221  0.00  0.00    +0.000 A 
ATOM      3  C   UNL     1      47.353   6.971  11.969  0.00  0.00    +0.000 A 
ATOM      4  C   UNL     1      48.406   7.774  11.537  0.00  0.00    +0.000 A 
ATOM      5  C   UNL     1      49.513   7.995  12.366  0.00  0.00    +0.000 A 
ATOM      6  C   UNL     1      49.504   7.463  13.660  0.00  0.00    +0.000 A 
ATOM      7  C   UNL     1      48.465   6.624  14.078  0.00  0.00    +0.000 A 
BRANCH   2   8
ATOM      8  C   UNL     1      46.345   5.313  13.585  0.00  0.00    +0.000 C 
BRANCH   8  13
ATOM      9  C   UNL     1      44.590   3.211  10.951  0.00  0.00    +0.000 C 
ATOM     10  C   UNL     1      43.138   3.531  11.299  0.00  0.00    +0.000 C 
ATOM     11  C   UNL     1      43.005   4.994  11.708  0.00  0.00    +0.000 C 
ATOM     12  C   UNL     1      44.007   5.372  12.804  0.00  0.00    +0.000 C 
ATOM     13  N   UNL     1      45.401   5.010  12.487  0.00  0.00    +0.000 NA
ATOM     14  C   UNL     1      45.520   3.591  12.109  0.00  0.00    +0.000 C 
BRANCH   9  16
ATOM     15  N   UNL     1      45.328   4.626   8.672  0.00  0.00    +0.000 NA
ATOM     16  C   UNL     1      44.993   3.985   9.705  0.00  0.00    +0.000 C 
ENDBRANCH   9  16
ENDBRANCH   8  13
ENDBRANCH   2   8
ENDBRANCH   1   5
BRANCH   1  17
ATOM     17  N   UNL     1      51.289   8.185  10.729  0.00  0.00    +0.000 N 
ATOM     18  C   UNL     1      52.601   7.793  10.712  0.00  0.00    +0.000 C 
ATOM     19  O   UNL     1      53.338   7.901  11.687  0.00  0.00    +0.000 OA
ATOM     20  H   UNL     1      50.807   8.329   9.849  0.00  0.00    +0.000 HD
BRANCH  18  21
ATOM     21  C   UNL     1      53.048   7.152   9.469  0.00  0.00    +0.000 A 
ATOM     22  C   UNL     1      53.441   5.823   9.465  0.00  0.00    +0.000 A 
ATOM     23  S   UNL     1      53.828   5.233   7.910  0.00  0.00    +0.000 S 
ATOM     24  C   UNL     1      53.549   6.755   7.201  0.00  0.00    +0.000 A 
ATOM     25  N   UNL     1      53.715   6.952   5.864  0.00  0.00    +0.000 NA
ATOM     26  C   UNL     1      53.497   8.162   5.470  0.00  0.00    +0.000 A 
ATOM     27  N   UNL     1      53.130   9.196   6.291  0.00  0.00    +0.000 N 
ATOM     28  C   UNL     1      52.922   9.042   7.641  0.00  0.00    +0.000 A 
ATOM     29  O   UNL     1      52.551   9.977   8.336  0.00  0.00    +0.000 OA
ATOM     30  C   UNL     1      53.157   7.693   8.132  0.00  0.00    +0.000 A 
ATOM     31  H   UNL     1      52.969  10.123   5.923  0.00  0.00    +0.000 HD
ENDBRANCH  18  21
ENDBRANCH   1  17
TORSDOF 6
ENDMDL
