MODEL 1
REMARK VINA RESULT:    -8.708      0.000      0.000
REMARK INTER + INTRA:         -13.395
REMARK INTER:                 -12.272
REMARK INTRA:                  -1.124
REMARK UNBOUND:                -1.124
REMARK  Name = 
REMARK  8 active torsions:
REMARK  status: ('A' for Active; 'I' for Inactive)
REMARK    1  A    between atoms: C_1  and  C_2
REMARK    2  A    between atoms: C_2  and  N_3
REMARK    3  A    between atoms: C_2  and  C_25
REMARK    4  A    between atoms: N_3  and  C_4
REMARK    5  A    between atoms: C_4  and  C_5
REMARK    6  A    between atoms: C_9  and  C_10
REMARK    7  A    between atoms: C_10  and  N_11
REMARK    8  A    between atoms: C_12  and  C_14
REMARK                            x       y       z     vdW  Elec       q    Type
REMARK                         _______ _______ _______ _____ _____    ______ ____
ROOT
ATOM      1  C   UNL     1      45.987   5.729  11.494  0.00  0.00    +0.000 A 
ATOM      2  C   UNL     1      46.960   6.732  11.513  0.00  0.00    +0.000 A 
ATOM      3  C   UNL     1      47.894   6.731  12.536  0.00  0.00    +0.000 A 
ATOM      4  N   UNL     1      47.921   5.823  13.535  0.00  0.00    +0.000 NA
ATOM      5  C   UNL     1      46.961   4.863  13.529  0.00  0.00    +0.000 A 
ATOM      6  C   UNL     1      46.006   4.774  12.517  0.00  0.00    +0.000 A 
ENDROOT
BRANCH   1   7
ATOM      7  C   UNL     1      44.946   5.674  10.400  0.00  0.00    +0.000 C 
BRANCH   7   8
ATOM      8  N   UNL     1      45.512   5.150   9.159  0.00  0.00    +0.000 NA
ATOM      9  H   UNL     1      45.424   5.856   8.430  0.00  0.00    +0.000 HD
BRANCH   8  11
ATOM     10  C   UNL     1      44.152   3.156   9.792  0.00  0.00    +0.000 C 
ATOM     11  C   UNL     1      44.869   3.922   8.672  0.00  0.00    +0.000 C 
BRANCH  11  12
ATOM     12  C   UNL     1      45.925   3.029   8.030  0.00  0.00    +0.000 A 
ATOM     13  C   UNL     1      45.980   1.658   8.298  0.00  0.00    +0.000 A 
ATOM     14  C   UNL     1      46.956   0.891   7.670  0.00  0.00    +0.000 A 
ATOM     15  N   UNL     1      47.866   1.390   6.806  0.00  0.00    +0.000 NA
ATOM     16  C   UNL     1      47.797   2.713   6.557  0.00  0.00    +0.000 A 
ATOM     17  C   UNL     1      46.864   3.558   7.136  0.00  0.00    +0.000 A 
ENDBRANCH  11  12
ENDBRANCH   8  11
ENDBRANCH   7   8
ENDBRANCH   1   7
BRANCH   5  18
ATOM     18  C   UNL     1      46.965   3.854  14.656  0.00  0.00    +0.000 C 
BRANCH  18  19
ATOM     19  N   UNL     1      47.651   4.364  15.820  0.00  0.00    +0.000 N 
ATOM     20  C   UNL     1      47.297   4.006  17.096  0.00  0.00    +0.000 C 
ATOM     21  O   UNL     1      46.415   3.183  17.324  0.00  0.00    +0.000 OA
ATOM     22  H   UNL     1      48.167   5.227  15.675  0.00  0.00    +0.000 HD
BRANCH  20  23
ATOM     23  C   UNL     1      48.090   4.596  18.180  0.00  0.00    +0.000 A 
ATOM     24  C   UNL     1      47.502   5.499  19.056  0.00  0.00    +0.000 A 
ATOM     25  S   UNL     1      48.551   6.045  20.284  0.00  0.00    +0.000 S 
ATOM     26  C   UNL     1      49.846   5.135  19.655  0.00  0.00    +0.000 A 
ATOM     27  N   UNL     1      51.077   5.176  20.234  0.00  0.00    +0.000 NA
ATOM     28  C   UNL     1      51.970   4.463  19.635  0.00  0.00    +0.000 A 
ATOM     29  N   UNL     1      51.744   3.705  18.517  0.00  0.00    +0.000 N 
ATOM     30  C   UNL     1      50.508   3.598  17.922  0.00  0.00    +0.000 A 
ATOM     31  O   UNL     1      50.322   2.862  16.964  0.00  0.00    +0.000 OA
ATOM     32  C   UNL     1      49.473   4.405  18.543  0.00  0.00    +0.000 A 
ATOM     33  H   UNL     1      52.484   3.150  18.105  0.00  0.00    +0.000 HD
ENDBRANCH  20  23
ENDBRANCH  18  19
ENDBRANCH   5  18
TORSDOF 7
ENDMDL
MODEL 2
REMARK VINA RESULT:    -8.598      1.244      1.814
REMARK INTER + INTRA:         -13.240
REMARK INTER:                 -12.115
REMARK INTRA:                  -1.126
REMARK UNBOUND:                -1.124
REMARK  Name = 
REMARK  8 active torsions:
REMARK  status: ('A' for Active; 'I' for Inactive)
REMARK    1  A    between atoms: C_1  and  C_2
REMARK    2  A    between atoms: C_2  and  N_3
REMARK    3  A    between atoms: C_2  and  C_25
REMARK    4  A    between atoms: N_3  and  C_4
REMARK    5  A    between atoms: C_4  and  C_5
REMARK    6  A    between atoms: C_9  and  C_10
REMARK    7  A    between atoms: C_10  and  N_11
REMARK    8  A    between atoms: C_12  and  C_14
REMARK                            x       y       z     vdW  Elec       q    Type
REMARK                         _______ _______ _______ _____ _____    ______ ____
ROOT
ATOM      1  C   UNL     1      46.102   5.916  11.644  0.00  0.00    +0.000 A 
ATOM      2  C   UNL     1      47.180   6.805  11.588  0.00  0.00    +0.000 A 
ATOM      3  C   UNL     1      48.083   6.821  12.638  0.00  0.00    +0.000 A 
ATOM      4  N   UNL     1      47.984   6.037  13.732  0.00  0.00    +0.000 NA
ATOM      5  C   UNL     1      46.925   5.191  13.798  0.00  0.00    +0.000 A 
ATOM      6  C   UNL     1      45.991   5.089  12.768  0.00  0.00    +0.000 A 
ENDROOT
BRANCH   1   7
ATOM      7  C   UNL     1      45.089   5.848  10.526  0.00  0.00    +0.000 C 
BRANCH   7   8
ATOM      8  N   UNL     1      45.661   5.225   9.334  0.00  0.00    +0.000 NA
ATOM      9  H   UNL     1      45.712   5.918   8.589  0.00  0.00    +0.000 HD
BRANCH   8  11
ATOM     10  C   UNL     1      44.166   3.322   9.944  0.00  0.00    +0.000 C 
ATOM     11  C   UNL     1      44.895   4.078   8.825  0.00  0.00    +0.000 C 
BRANCH  11  12
ATOM     12  C   UNL     1      45.843   3.133   8.095  0.00  0.00    +0.000 A 
ATOM     13  C   UNL     1      46.659   3.583   7.052  0.00  0.00    +0.000 A 
ATOM     14  C   UNL     1      47.516   2.679   6.434  0.00  0.00    +0.000 A 
ATOM     15  N   UNL     1      47.614   1.377   6.779  0.00  0.00    +0.000 NA
ATOM     16  C   UNL     1      46.822   0.960   7.787  0.00  0.00    +0.000 A 
ATOM     17  C   UNL     1      45.935   1.784   8.461  0.00  0.00    +0.000 A 
ENDBRANCH  11  12
ENDBRANCH   8  11
ENDBRANCH   7   8
ENDBRANCH   1   7
BRANCH   5  18
ATOM     18  C   UNL     1      46.789   4.324  15.030  0.00  0.00    +0.000 C 
BRANCH  18  19
ATOM     19  N   UNL     1      48.039   4.225  15.747  0.00  0.00    +0.000 N 
ATOM     20  C   UNL     1      48.120   4.390  17.106  0.00  0.00    +0.000 C 
ATOM     21  O   UNL     1      47.126   4.571  17.804  0.00  0.00    +0.000 OA
ATOM     22  H   UNL     1      48.873   4.357  15.183  0.00  0.00    +0.000 HD
BRANCH  20  23
ATOM     23  C   UNL     1      49.455   4.251  17.699  0.00  0.00    +0.000 A 
ATOM     24  C   UNL     1      49.969   5.268  18.492  0.00  0.00    +0.000 A 
ATOM     25  S   UNL     1      51.508   4.919  19.140  0.00  0.00    +0.000 S 
ATOM     26  C   UNL     1      51.564   3.418  18.339  0.00  0.00    +0.000 A 
ATOM     27  N   UNL     1      52.651   2.606  18.447  0.00  0.00    +0.000 NA
ATOM     28  C   UNL     1      52.570   1.515  17.762  0.00  0.00    +0.000 A 
ATOM     29  N   UNL     1      51.500   1.157  16.987  0.00  0.00    +0.000 N 
ATOM     30  C   UNL     1      50.362   1.923  16.881  0.00  0.00    +0.000 A 
ATOM     31  O   UNL     1      49.396   1.546  16.233  0.00  0.00    +0.000 OA
ATOM     32  C   UNL     1      50.414   3.176  17.611  0.00  0.00    +0.000 A 
ATOM     33  H   UNL     1      51.490   0.276  16.489  0.00  0.00    +0.000 HD
ENDBRANCH  20  23
ENDBRANCH  18  19
ENDBRANCH   5  18
TORSDOF 7
ENDMDL
MODEL 3
REMARK VINA RESULT:    -8.118      2.025      3.107
REMARK INTER + INTRA:         -12.564
REMARK INTER:                 -11.317
REMARK INTRA:                  -1.247
REMARK UNBOUND:                -1.124
REMARK  Name = 
REMARK  8 active torsions:
REMARK  status: ('A' for Active; 'I' for Inactive)
REMARK    1  A    between atoms: C_1  and  C_2
REMARK    2  A    between atoms: C_2  and  N_3
REMARK    3  A    between atoms: C_2  and  C_25
REMARK    4  A    between atoms: N_3  and  C_4
REMARK    5  A    between atoms: C_4  and  C_5
REMARK    6  A    between atoms: C_9  and  C_10
REMARK    7  A    between atoms: C_10  and  N_11
REMARK    8  A    between atoms: C_12  and  C_14
REMARK                            x       y       z     vdW  Elec       q    Type
REMARK                         _______ _______ _______ _____ _____    ______ ____
ROOT
ATOM      1  C   UNL     1      45.263   6.214  11.199  0.00  0.00    +0.000 A 
ATOM      2  C   UNL     1      44.503   7.373  11.386  0.00  0.00    +0.000 A 
ATOM      3  C   UNL     1      45.125   8.499  11.898  0.00  0.00    +0.000 A 
ATOM      4  N   UNL     1      46.429   8.551  12.245  0.00  0.00    +0.000 NA
ATOM      5  C   UNL     1      47.160   7.419  12.087  0.00  0.00    +0.000 A 
ATOM      6  C   UNL     1      46.619   6.254  11.546  0.00  0.00    +0.000 A 
ENDROOT
BRANCH   1   7
ATOM      7  C   UNL     1      44.641   4.957  10.638  0.00  0.00    +0.000 C 
BRANCH   7   8
ATOM      8  N   UNL     1      45.087   4.715   9.267  0.00  0.00    +0.000 NA
ATOM      9  H   UNL     1      44.703   5.439   8.661  0.00  0.00    +0.000 HD
BRANCH   8  11
ATOM     10  C   UNL     1      44.179   2.455   9.809  0.00  0.00    +0.000 C 
ATOM     11  C   UNL     1      44.682   3.412   8.721  0.00  0.00    +0.000 C 
BRANCH  11  12
ATOM     12  C   UNL     1      45.868   2.790   7.992  0.00  0.00    +0.000 A 
ATOM     13  C   UNL     1      46.742   3.568   7.226  0.00  0.00    +0.000 A 
ATOM     14  C   UNL     1      47.815   2.948   6.598  0.00  0.00    +0.000 A 
ATOM     15  N   UNL     1      48.074   1.624   6.679  0.00  0.00    +0.000 NA
ATOM     16  C   UNL     1      47.223   0.889   7.422  0.00  0.00    +0.000 A 
ATOM     17  C   UNL     1      46.125   1.416   8.083  0.00  0.00    +0.000 A 
ENDBRANCH  11  12
ENDBRANCH   8  11
ENDBRANCH   7   8
ENDBRANCH   1   7
BRANCH   5  18
ATOM     18  C   UNL     1      48.617   7.457  12.495  0.00  0.00    +0.000 C 
BRANCH  18  19
ATOM     19  N   UNL     1      48.838   6.745  13.732  0.00  0.00    +0.000 N 
ATOM     20  C   UNL     1      48.756   7.357  14.956  0.00  0.00    +0.000 C 
ATOM     21  O   UNL     1      48.429   8.534  15.079  0.00  0.00    +0.000 OA
ATOM     22  H   UNL     1      49.369   5.883  13.645  0.00  0.00    +0.000 HD
BRANCH  20  23
ATOM     23  C   UNL     1      48.997   6.505  16.126  0.00  0.00    +0.000 A 
ATOM     24  C   UNL     1      49.950   6.874  17.066  0.00  0.00    +0.000 A 
ATOM     25  S   UNL     1      50.063   5.798  18.384  0.00  0.00    +0.000 S 
ATOM     26  C   UNL     1      48.879   4.773  17.718  0.00  0.00    +0.000 A 
ATOM     27  N   UNL     1      48.514   3.622  18.346  0.00  0.00    +0.000 NA
ATOM     28  C   UNL     1      47.630   2.927  17.713  0.00  0.00    +0.000 A 
ATOM     29  N   UNL     1      47.070   3.281  16.514  0.00  0.00    +0.000 N 
ATOM     30  C   UNL     1      47.374   4.454  15.863  0.00  0.00    +0.000 A 
ATOM     31  O   UNL     1      46.809   4.775  14.828  0.00  0.00    +0.000 OA
ATOM     32  C   UNL     1      48.386   5.259  16.522  0.00  0.00    +0.000 A 
ATOM     33  H   UNL     1      46.365   2.701  16.078  0.00  0.00    +0.000 HD
ENDBRANCH  20  23
ENDBRANCH  18  19
ENDBRANCH   5  18
TORSDOF 7
ENDMDL
MODEL 4
REMARK VINA RESULT:    -8.076      1.292      2.222
REMARK INTER + INTRA:         -12.504
REMARK INTER:                 -11.369
REMARK INTRA:                  -1.135
REMARK UNBOUND:                -1.124
REMARK  Name = 
REMARK  8 active torsions:
REMARK  status: ('A' for Active; 'I' for Inactive)
REMARK    1  A    between atoms: C_1  and  C_2
REMARK    2  A    between atoms: C_2  and  N_3
REMARK    3  A    between atoms: C_2  and  C_25
REMARK    4  A    between atoms: N_3  and  C_4
REMARK    5  A    between atoms: C_4  and  C_5
REMARK    6  A    between atoms: C_9  and  C_10
REMARK    7  A    between atoms: C_10  and  N_11
REMARK    8  A    between atoms: C_12  and  C_14
REMARK                            x       y       z     vdW  Elec       q    Type
REMARK                         _______ _______ _______ _____ _____    ______ ____
ROOT
ATOM      1  C   UNL     1      45.840   5.552  11.670  0.00  0.00    +0.000 A 
ATOM      2  C   UNL     1      46.829   6.537  11.582  0.00  0.00    +0.000 A 
ATOM      3  C   UNL     1      47.808   6.583  12.560  0.00  0.00    +0.000 A 
ATOM      4  N   UNL     1      47.867   5.739  13.612  0.00  0.00    +0.000 NA
ATOM      5  C   UNL     1      46.894   4.799  13.710  0.00  0.00    +0.000 A 
ATOM      6  C   UNL     1      45.892   4.663  12.750  0.00  0.00    +0.000 A 
ENDROOT
BRANCH   1   7
ATOM      7  C   UNL     1      44.750   5.447  10.630  0.00  0.00    +0.000 C 
BRANCH   7   8
ATOM      8  N   UNL     1      45.283   4.977   9.352  0.00  0.00    +0.000 NA
ATOM      9  H   UNL     1      45.092   5.675   8.636  0.00  0.00    +0.000 HD
BRANCH   8  11
ATOM     10  C   UNL     1      44.141   2.871  10.050  0.00  0.00    +0.000 C 
ATOM     11  C   UNL     1      44.717   3.700   8.895  0.00  0.00    +0.000 C 
BRANCH  11  12
ATOM     12  C   UNL     1      45.804   2.904   8.179  0.00  0.00    +0.000 A 
ATOM     13  C   UNL     1      46.743   3.533   7.355  0.00  0.00    +0.000 A 
ATOM     14  C   UNL     1      47.721   2.758   6.742  0.00  0.00    +0.000 A 
ATOM     15  N   UNL     1      47.826   1.420   6.892  0.00  0.00    +0.000 NA
ATOM     16  C   UNL     1      46.914   0.830   7.690  0.00  0.00    +0.000 A 
ATOM     17  C   UNL     1      45.902   1.516   8.341  0.00  0.00    +0.000 A 
ENDBRANCH  11  12
ENDBRANCH   8  11
ENDBRANCH   7   8
ENDBRANCH   1   7
BRANCH   5  18
ATOM     18  C   UNL     1      46.934   3.863  14.898  0.00  0.00    +0.000 C 
BRANCH  18  19
ATOM     19  N   UNL     1      47.722   4.411  15.977  0.00  0.00    +0.000 N 
ATOM     20  C   UNL     1      48.598   3.648  16.707  0.00  0.00    +0.000 C 
ATOM     21  O   UNL     1      48.811   2.467  16.447  0.00  0.00    +0.000 OA
ATOM     22  H   UNL     1      47.366   5.274  16.378  0.00  0.00    +0.000 HD
BRANCH  20  23
ATOM     23  C   UNL     1      49.338   4.343  17.766  0.00  0.00    +0.000 A 
ATOM     24  C   UNL     1      50.719   4.220  17.841  0.00  0.00    +0.000 A 
ATOM     25  S   UNL     1      51.420   5.135  19.098  0.00  0.00    +0.000 S 
ATOM     26  C   UNL     1      49.896   5.685  19.621  0.00  0.00    +0.000 A 
ATOM     27  N   UNL     1      49.779   6.502  20.702  0.00  0.00    +0.000 NA
ATOM     28  C   UNL     1      48.564   6.815  21.004  0.00  0.00    +0.000 A 
ATOM     29  N   UNL     1      47.456   6.393  20.319  0.00  0.00    +0.000 N 
ATOM     30  C   UNL     1      47.527   5.603  19.195  0.00  0.00    +0.000 A 
ATOM     31  O   UNL     1      46.524   5.296  18.566  0.00  0.00    +0.000 OA
ATOM     32  C   UNL     1      48.872   5.200  18.830  0.00  0.00    +0.000 A 
ATOM     33  H   UNL     1      46.529   6.691  20.595  0.00  0.00    +0.000 HD
ENDBRANCH  20  23
ENDBRANCH  18  19
ENDBRANCH   5  18
TORSDOF 7
ENDMDL
MODEL 5
REMARK VINA RESULT:    -7.793      1.842      2.213
REMARK INTER + INTRA:         -12.106
REMARK INTER:                 -10.979
REMARK INTRA:                  -1.127
REMARK UNBOUND:                -1.124
REMARK  Name = 
REMARK  8 active torsions:
REMARK  status: ('A' for Active; 'I' for Inactive)
REMARK    1  A    between atoms: C_1  and  C_2
REMARK    2  A    between atoms: C_2  and  N_3
REMARK    3  A    between atoms: C_2  and  C_25
REMARK    4  A    between atoms: N_3  and  C_4
REMARK    5  A    between atoms: C_4  and  C_5
REMARK    6  A    between atoms: C_9  and  C_10
REMARK    7  A    between atoms: C_10  and  N_11
REMARK    8  A    between atoms: C_12  and  C_14
REMARK                            x       y       z     vdW  Elec       q    Type
REMARK                         _______ _______ _______ _____ _____    ______ ____
ROOT
ATOM      1  C   UNL     1      44.795   6.013  11.180  0.00  0.00    +0.000 A 
ATOM      2  C   UNL     1      44.437   7.338  11.449  0.00  0.00    +0.000 A 
ATOM      3  C   UNL     1      45.253   8.091  12.277  0.00  0.00    +0.000 A 
ATOM      4  N   UNL     1      46.378   7.623  12.859  0.00  0.00    +0.000 NA
ATOM      5  C   UNL     1      46.712   6.330  12.617  0.00  0.00    +0.000 A 
ATOM      6  C   UNL     1      45.964   5.515  11.769  0.00  0.00    +0.000 A 
ENDROOT
BRANCH   1   7
ATOM      7  C   UNL     1      43.948   5.145  10.280  0.00  0.00    +0.000 C 
BRANCH   7   8
ATOM      8  N   UNL     1      44.723   4.648   9.145  0.00  0.00    +0.000 NA
ATOM      9  H   UNL     1      44.469   5.177   8.312  0.00  0.00    +0.000 HD
BRANCH   8  11
ATOM     10  C   UNL     1      44.253   2.399  10.116  0.00  0.00    +0.000 C 
ATOM     11  C   UNL     1      44.518   3.223   8.850  0.00  0.00    +0.000 C 
BRANCH  11  12
ATOM     12  C   UNL     1      45.750   2.684   8.130  0.00  0.00    +0.000 A 
ATOM     13  C   UNL     1      46.080   1.325   8.171  0.00  0.00    +0.000 A 
ATOM     14  C   UNL     1      47.206   0.889   7.482  0.00  0.00    +0.000 A 
ATOM     15  N   UNL     1      48.012   1.701   6.764  0.00  0.00    +0.000 NA
ATOM     16  C   UNL     1      47.679   3.006   6.734  0.00  0.00    +0.000 A 
ATOM     17  C   UNL     1      46.579   3.536   7.390  0.00  0.00    +0.000 A 
ENDBRANCH  11  12
ENDBRANCH   8  11
ENDBRANCH   7   8
ENDBRANCH   1   7
BRANCH   5  18
ATOM     18  C   UNL     1      47.957   5.786  13.283  0.00  0.00    +0.000 C 
BRANCH  18  19
ATOM     19  N   UNL     1      47.929   5.998  14.711  0.00  0.00    +0.000 N 
ATOM     20  C   UNL     1      48.978   6.564  15.390  0.00  0.00    +0.000 C 
ATOM     21  O   UNL     1      49.979   6.982  14.816  0.00  0.00    +0.000 OA
ATOM     22  H   UNL     1      47.264   5.423  15.220  0.00  0.00    +0.000 HD
BRANCH  20  23
ATOM     23  C   UNL     1      48.803   6.725  16.837  0.00  0.00    +0.000 A 
ATOM     24  C   UNL     1      48.606   7.991  17.374  0.00  0.00    +0.000 A 
ATOM     25  S   UNL     1      48.369   7.989  19.063  0.00  0.00    +0.000 S 
ATOM     26  C   UNL     1      48.576   6.301  19.143  0.00  0.00    +0.000 A 
ATOM     27  N   UNL     1      48.523   5.645  20.334  0.00  0.00    +0.000 NA
ATOM     28  C   UNL     1      48.727   4.373  20.251  0.00  0.00    +0.000 A 
ATOM     29  N   UNL     1      48.971   3.696  19.086  0.00  0.00    +0.000 N 
ATOM     30  C   UNL     1      48.991   4.309  17.854  0.00  0.00    +0.000 A 
ATOM     31  O   UNL     1      49.146   3.668  16.825  0.00  0.00    +0.000 OA
ATOM     32  C   UNL     1      48.794   5.746  17.897  0.00  0.00    +0.000 A 
ATOM     33  H   UNL     1      49.103   2.693  19.085  0.00  0.00    +0.000 HD
ENDBRANCH  20  23
ENDBRANCH  18  19
ENDBRANCH   5  18
TORSDOF 7
ENDMDL
MODEL 6
REMARK VINA RESULT:    -7.718      2.432      3.166
REMARK INTER + INTRA:         -12.000
REMARK INTER:                 -10.827
REMARK INTRA:                  -1.174
REMARK UNBOUND:                -1.124
REMARK  Name = 
REMARK  8 active torsions:
REMARK  status: ('A' for Active; 'I' for Inactive)
REMARK    1  A    between atoms: C_1  and  C_2
REMARK    2  A    between atoms: C_2  and  N_3
REMARK    3  A    between atoms: C_2  and  C_25
REMARK    4  A    between atoms: N_3  and  C_4
REMARK    5  A    between atoms: C_4  and  C_5
REMARK    6  A    between atoms: C_9  and  C_10
REMARK    7  A    between atoms: C_10  and  N_11
REMARK    8  A    between atoms: C_12  and  C_14
REMARK                            x       y       z     vdW  Elec       q    Type
REMARK                         _______ _______ _______ _____ _____    ______ ____
ROOT
ATOM      1  C   UNL     1      45.439   5.758  12.436  0.00  0.00    +0.000 A 
ATOM      2  C   UNL     1      46.465   6.541  11.899  0.00  0.00    +0.000 A 
ATOM      3  C   UNL     1      47.720   6.481  12.483  0.00  0.00    +0.000 A 
ATOM      4  N   UNL     1      48.020   5.718  13.555  0.00  0.00    +0.000 NA
ATOM      5  C   UNL     1      47.017   4.976  14.091  0.00  0.00    +0.000 A 
ATOM      6  C   UNL     1      45.736   4.953  13.543  0.00  0.00    +0.000 A 
ENDROOT
BRANCH   1   7
ATOM      7  C   UNL     1      44.051   5.775  11.839  0.00  0.00    +0.000 C 
BRANCH   7   8
ATOM      8  N   UNL     1      44.091   5.496  10.404  0.00  0.00    +0.000 NA
ATOM      9  H   UNL     1      43.469   6.143   9.923  0.00  0.00    +0.000 HD
BRANCH   8  11
ATOM     10  C   UNL     1      43.458   3.245  11.275  0.00  0.00    +0.000 C 
ATOM     11  C   UNL     1      43.683   4.131  10.043  0.00  0.00    +0.000 C 
BRANCH  11  12
ATOM     12  C   UNL     1      44.754   3.514   9.150  0.00  0.00    +0.000 A 
ATOM     13  C   UNL     1      45.548   4.304   8.313  0.00  0.00    +0.000 A 
ATOM     14  C   UNL     1      46.520   3.688   7.533  0.00  0.00    +0.000 A 
ATOM     15  N   UNL     1      46.753   2.357   7.532  0.00  0.00    +0.000 NA
ATOM     16  C   UNL     1      45.981   1.610   8.346  0.00  0.00    +0.000 A 
ATOM     17  C   UNL     1      44.986   2.133   9.157  0.00  0.00    +0.000 A 
ENDBRANCH  11  12
ENDBRANCH   8  11
ENDBRANCH   7   8
ENDBRANCH   1   7
BRANCH   5  18
ATOM     18  C   UNL     1      47.334   4.136  15.308  0.00  0.00    +0.000 C 
BRANCH  18  19
ATOM     19  N   UNL     1      47.248   4.911  16.523  0.00  0.00    +0.000 N 
ATOM     20  C   UNL     1      48.358   5.406  17.158  0.00  0.00    +0.000 C 
ATOM     21  O   UNL     1      49.489   5.274  16.699  0.00  0.00    +0.000 OA
ATOM     22  H   UNL     1      46.388   4.791  17.052  0.00  0.00    +0.000 HD
BRANCH  20  23
ATOM     23  C   UNL     1      48.115   6.183  18.379  0.00  0.00    +0.000 A 
ATOM     24  C   UNL     1      47.905   5.529  19.585  0.00  0.00    +0.000 A 
ATOM     25  S   UNL     1      47.691   6.583  20.908  0.00  0.00    +0.000 S 
ATOM     26  C   UNL     1      47.817   7.953  19.905  0.00  0.00    +0.000 A 
ATOM     27  N   UNL     1      47.692   9.209  20.415  0.00  0.00    +0.000 NA
ATOM     28  C   UNL     1      47.778  10.150  19.536  0.00  0.00    +0.000 A 
ATOM     29  N   UNL     1      47.987   9.953  18.198  0.00  0.00    +0.000 N 
ATOM     30  C   UNL     1      48.163   8.706  17.643  0.00  0.00    +0.000 A 
ATOM     31  O   UNL     1      48.414   8.565  16.455  0.00  0.00    +0.000 OA
ATOM     32  C   UNL     1      48.047   7.609  18.587  0.00  0.00    +0.000 A 
ATOM     33  H   UNL     1      48.065  10.736  17.562  0.00  0.00    +0.000 HD
ENDBRANCH  20  23
ENDBRANCH  18  19
ENDBRANCH   5  18
TORSDOF 7
ENDMDL
MODEL 7
REMARK VINA RESULT:    -7.278      3.483      8.678
REMARK INTER + INTRA:         -11.380
REMARK INTER:                 -10.072
REMARK INTRA:                  -1.308
REMARK UNBOUND:                -1.124
REMARK  Name = 
REMARK  8 active torsions:
REMARK  status: ('A' for Active; 'I' for Inactive)
REMARK    1  A    between atoms: C_1  and  C_2
REMARK    2  A    between atoms: C_2  and  N_3
REMARK    3  A    between atoms: C_2  and  C_25
REMARK    4  A    between atoms: N_3  and  C_4
REMARK    5  A    between atoms: C_4  and  C_5
REMARK    6  A    between atoms: C_9  and  C_10
REMARK    7  A    between atoms: C_10  and  N_11
REMARK    8  A    between atoms: C_12  and  C_14
REMARK                            x       y       z     vdW  Elec       q    Type
REMARK                         _______ _______ _______ _____ _____    ______ ____
ROOT
ATOM      1  C   UNL     1      49.018   7.877  15.484  0.00  0.00    +0.000 A 
ATOM      2  C   UNL     1      49.063   9.250  15.742  0.00  0.00    +0.000 A 
ATOM      3  C   UNL     1      48.785  10.130  14.708  0.00  0.00    +0.000 A 
ATOM      4  N   UNL     1      48.481   9.746  13.450  0.00  0.00    +0.000 NA
ATOM      5  C   UNL     1      48.462   8.413  13.193  0.00  0.00    +0.000 A 
ATOM      6  C   UNL     1      48.696   7.462  14.186  0.00  0.00    +0.000 A 
ENDROOT
BRANCH   1   7
ATOM      7  C   UNL     1      49.305   6.870  16.572  0.00  0.00    +0.000 C 
BRANCH   7   8
ATOM      8  N   UNL     1      48.095   6.551  17.328  0.00  0.00    +0.000 NA
ATOM      9  H   UNL     1      47.783   7.385  17.822  0.00  0.00    +0.000 HD
BRANCH   8  11
ATOM     10  C   UNL     1      49.337   5.822  19.365  0.00  0.00    +0.000 C 
ATOM     11  C   UNL     1      48.267   5.480  18.320  0.00  0.00    +0.000 C 
BRANCH  11  12
ATOM     12  C   UNL     1      48.643   4.191  17.598  0.00  0.00    +0.000 A 
ATOM     13  C   UNL     1      47.783   3.602  16.665  0.00  0.00    +0.000 A 
ATOM     14  C   UNL     1      48.186   2.435  16.026  0.00  0.00    +0.000 A 
ATOM     15  N   UNL     1      49.370   1.824  16.249  0.00  0.00    +0.000 NA
ATOM     16  C   UNL     1      50.187   2.405  17.149  0.00  0.00    +0.000 A 
ATOM     17  C   UNL     1      49.873   3.566  17.838  0.00  0.00    +0.000 A 
ENDBRANCH  11  12
ENDBRANCH   8  11
ENDBRANCH   7   8
ENDBRANCH   1   7
BRANCH   5  18
ATOM     18  C   UNL     1      48.148   7.971  11.782  0.00  0.00    +0.000 C 
BRANCH  18  19
ATOM     19  N   UNL     1      47.293   6.807  11.769  0.00  0.00    +0.000 N 
ATOM     20  C   UNL     1      45.926   6.900  11.714  0.00  0.00    +0.000 C 
ATOM     21  O   UNL     1      45.347   7.978  11.610  0.00  0.00    +0.000 OA
ATOM     22  H   UNL     1      47.716   5.956  12.131  0.00  0.00    +0.000 HD
BRANCH  20  23
ATOM     23  C   UNL     1      45.188   5.632  11.699  0.00  0.00    +0.000 A 
ATOM     24  C   UNL     1      44.509   5.213  12.835  0.00  0.00    +0.000 A 
ATOM     25  S   UNL     1      43.665   3.746  12.626  0.00  0.00    +0.000 S 
ATOM     26  C   UNL     1      44.222   3.592  11.025  0.00  0.00    +0.000 A 
ATOM     27  N   UNL     1      43.885   2.514  10.266  0.00  0.00    +0.000 NA
ATOM     28  C   UNL     1      44.403   2.512   9.084  0.00  0.00    +0.000 A 
ATOM     29  N   UNL     1      45.219   3.493   8.588  0.00  0.00    +0.000 N 
ATOM     30  C   UNL     1      45.553   4.621   9.300  0.00  0.00    +0.000 A 
ATOM     31  O   UNL     1      46.230   5.511   8.807  0.00  0.00    +0.000 OA
ATOM     32  C   UNL     1      45.017   4.658  10.649  0.00  0.00    +0.000 A 
ATOM     33  H   UNL     1      45.578   3.442   7.643  0.00  0.00    +0.000 HD
ENDBRANCH  20  23
ENDBRANCH  18  19
ENDBRANCH   5  18
TORSDOF 7
ENDMDL
MODEL 8
REMARK VINA RESULT:    -7.099      2.312      3.028
REMARK INTER + INTRA:         -11.128
REMARK INTER:                 -10.263
REMARK INTRA:                  -0.865
REMARK UNBOUND:                -1.124
REMARK  Name = 
REMARK  8 active torsions:
REMARK  status: ('A' for Active; 'I' for Inactive)
REMARK    1  A    between atoms: C_1  and  C_2
REMARK    2  A    between atoms: C_2  and  N_3
REMARK    3  A    between atoms: C_2  and  C_25
REMARK    4  A    between atoms: N_3  and  C_4
REMARK    5  A    between atoms: C_4  and  C_5
REMARK    6  A    between atoms: C_9  and  C_10
REMARK    7  A    between atoms: C_10  and  N_11
REMARK    8  A    between atoms: C_12  and  C_14
REMARK                            x       y       z     vdW  Elec       q    Type
REMARK                         _______ _______ _______ _____ _____    ______ ____
ROOT
ATOM      1  C   UNL     1      45.088   6.477  11.414  0.00  0.00    +0.000 A 
ATOM      2  C   UNL     1      44.600   7.778  11.570  0.00  0.00    +0.000 A 
ATOM      3  C   UNL     1      45.370   8.697  12.264  0.00  0.00    +0.000 A 
ATOM      4  N   UNL     1      46.570   8.415  12.816  0.00  0.00    +0.000 NA
ATOM      5  C   UNL     1      47.032   7.146  12.685  0.00  0.00    +0.000 A 
ATOM      6  C   UNL     1      46.335   6.171  11.974  0.00  0.00    +0.000 A 
ENDROOT
BRANCH   1   7
ATOM      7  C   UNL     1      44.297   5.433  10.662  0.00  0.00    +0.000 C 
BRANCH   7   8
ATOM      8  N   UNL     1      45.033   4.953   9.494  0.00  0.00    +0.000 NA
ATOM      9  H   UNL     1      44.915   5.617   8.732  0.00  0.00    +0.000 HD
BRANCH   8  11
ATOM     10  C   UNL     1      44.146   2.715  10.150  0.00  0.00    +0.000 C 
ATOM     11  C   UNL     1      44.604   3.633   9.010  0.00  0.00    +0.000 C 
BRANCH  11  12
ATOM     12  C   UNL     1      45.758   2.983   8.254  0.00  0.00    +0.000 A 
ATOM     13  C   UNL     1      45.976   1.602   8.307  0.00  0.00    +0.000 A 
ATOM     14  C   UNL     1      47.034   1.064   7.584  0.00  0.00    +0.000 A 
ATOM     15  N   UNL     1      47.877   1.796   6.823  0.00  0.00    +0.000 NA
ATOM     16  C   UNL     1      47.652   3.124   6.782  0.00  0.00    +0.000 A 
ATOM     17  C   UNL     1      46.626   3.752   7.469  0.00  0.00    +0.000 A 
ENDBRANCH  11  12
ENDBRANCH   8  11
ENDBRANCH   7   8
ENDBRANCH   1   7
BRANCH   5  18
ATOM     18  C   UNL     1      48.363   6.811  13.321  0.00  0.00    +0.000 C 
BRANCH  18  19
ATOM     19  N   UNL     1      48.195   6.279  14.653  0.00  0.00    +0.000 N 
ATOM     20  C   UNL     1      49.022   6.624  15.691  0.00  0.00    +0.000 C 
ATOM     21  O   UNL     1      49.918   7.453  15.566  0.00  0.00    +0.000 OA
ATOM     22  H   UNL     1      47.666   5.413  14.709  0.00  0.00    +0.000 HD
BRANCH  20  23
ATOM     23  C   UNL     1      48.723   6.011  16.991  0.00  0.00    +0.000 A 
ATOM     24  C   UNL     1      48.839   4.637  17.150  0.00  0.00    +0.000 A 
ATOM     25  S   UNL     1      48.505   4.102  18.735  0.00  0.00    +0.000 S 
ATOM     26  C   UNL     1      48.142   5.683  19.250  0.00  0.00    +0.000 A 
ATOM     27  N   UNL     1      47.744   5.930  20.527  0.00  0.00    +0.000 NA
ATOM     28  C   UNL     1      47.471   7.168  20.770  0.00  0.00    +0.000 A 
ATOM     29  N   UNL     1      47.568   8.183  19.856  0.00  0.00    +0.000 N 
ATOM     30  C   UNL     1      48.006   7.989  18.566  0.00  0.00    +0.000 A 
ATOM     31  O   UNL     1      48.146   8.925  17.792  0.00  0.00    +0.000 OA
ATOM     32  C   UNL     1      48.300   6.607  18.235  0.00  0.00    +0.000 A 
ATOM     33  H   UNL     1      47.359   9.138  20.115  0.00  0.00    +0.000 HD
ENDBRANCH  20  23
ENDBRANCH  18  19
ENDBRANCH   5  18
TORSDOF 7
ENDMDL
MODEL 9
REMARK VINA RESULT:    -6.729      3.979      8.808
REMARK INTER + INTRA:         -10.606
REMARK INTER:                  -9.067
REMARK INTRA:                  -1.540
REMARK UNBOUND:                -1.124
REMARK  Name = 
REMARK  8 active torsions:
REMARK  status: ('A' for Active; 'I' for Inactive)
REMARK    1  A    between atoms: C_1  and  C_2
REMARK    2  A    between atoms: C_2  and  N_3
REMARK    3  A    between atoms: C_2  and  C_25
REMARK    4  A    between atoms: N_3  and  C_4
REMARK    5  A    between atoms: C_4  and  C_5
REMARK    6  A    between atoms: C_9  and  C_10
REMARK    7  A    between atoms: C_10  and  N_11
REMARK    8  A    between atoms: C_12  and  C_14
REMARK                            x       y       z     vdW  Elec       q    Type
REMARK                         _______ _______ _______ _____ _____    ______ ____
ROOT
ATOM      1  C   UNL     1      50.729   7.201  17.710  0.00  0.00    +0.000 A 
ATOM      2  C   UNL     1      51.903   6.918  17.005  0.00  0.00    +0.000 A 
ATOM      3  C   UNL     1      51.961   7.234  15.658  0.00  0.00    +0.000 A 
ATOM      4  N   UNL     1      50.944   7.794  14.968  0.00  0.00    +0.000 NA
ATOM      5  C   UNL     1      49.796   8.047  15.647  0.00  0.00    +0.000 A 
ATOM      6  C   UNL     1      49.668   7.790  17.012  0.00  0.00    +0.000 A 
ENDROOT
BRANCH   1   7
ATOM      7  C   UNL     1      50.609   6.885  19.182  0.00  0.00    +0.000 C 
BRANCH   7   8
ATOM      8  N   UNL     1      50.518   5.443  19.406  0.00  0.00    +0.000 NA
ATOM      9  H   UNL     1      51.159   4.968  18.774  0.00  0.00    +0.000 HD
BRANCH   8  11
ATOM     10  C   UNL     1      48.566   4.319  20.479  0.00  0.00    +0.000 C 
ATOM     11  C   UNL     1      49.177   4.882  19.189  0.00  0.00    +0.000 C 
BRANCH  11  12
ATOM     12  C   UNL     1      49.265   3.783  18.136  0.00  0.00    +0.000 A 
ATOM     13  C   UNL     1      48.166   3.451  17.337  0.00  0.00    +0.000 A 
ATOM     14  C   UNL     1      48.309   2.451  16.381  0.00  0.00    +0.000 A 
ATOM     15  N   UNL     1      49.456   1.770  16.171  0.00  0.00    +0.000 NA
ATOM     16  C   UNL     1      50.506   2.103  16.948  0.00  0.00    +0.000 A 
ATOM     17  C   UNL     1      50.459   3.082  17.927  0.00  0.00    +0.000 A 
ENDBRANCH  11  12
ENDBRANCH   8  11
ENDBRANCH   7   8
ENDBRANCH   1   7
BRANCH   5  18
ATOM     18  C   UNL     1      48.641   8.651  14.880  0.00  0.00    +0.000 C 
BRANCH  18  19
ATOM     19  N   UNL     1      47.695   7.641  14.467  0.00  0.00    +0.000 N 
ATOM     20  C   UNL     1      47.672   7.135  13.192  0.00  0.00    +0.000 C 
ATOM     21  O   UNL     1      48.495   7.464  12.342  0.00  0.00    +0.000 OA
ATOM     22  H   UNL     1      46.860   7.569  15.042  0.00  0.00    +0.000 HD
BRANCH  20  23
ATOM     23  C   UNL     1      46.661   6.107  12.920  0.00  0.00    +0.000 A 
ATOM     24  C   UNL     1      46.907   4.785  13.267  0.00  0.00    +0.000 A 
ATOM     25  S   UNL     1      45.607   3.735  12.927  0.00  0.00    +0.000 S 
ATOM     26  C   UNL     1      44.690   5.002  12.255  0.00  0.00    +0.000 A 
ATOM     27  N   UNL     1      43.453   4.772  11.734  0.00  0.00    +0.000 NA
ATOM     28  C   UNL     1      42.886   5.816  11.231  0.00  0.00    +0.000 A 
ATOM     29  N   UNL     1      43.436   7.070  11.208  0.00  0.00    +0.000 N 
ATOM     30  C   UNL     1      44.663   7.359  11.759  0.00  0.00    +0.000 A 
ATOM     31  O   UNL     1      45.099   8.501  11.782  0.00  0.00    +0.000 OA
ATOM     32  C   UNL     1      45.355   6.211  12.315  0.00  0.00    +0.000 A 
ATOM     33  H   UNL     1      42.930   7.853  10.815  0.00  0.00    +0.000 HD
ENDBRANCH  20  23
ENDBRANCH  18  19
ENDBRANCH   5  18
TORSDOF 7
ENDMDL
