MODEL 1
REMARK VINA RESULT:    -7.530      0.000      0.000
REMARK INTER + INTRA:         -10.628
REMARK INTER:                  -9.731
REMARK INTRA:                  -0.897
REMARK UNBOUND:                -0.897
REMARK  Name = 
REMARK  5 active torsions:
REMARK  status: ('A' for Active; 'I' for Inactive)
REMARK    1  A    between atoms: C_2  and  C_19
REMARK    2  A    between atoms: N_3  and  C_4
REMARK    3  A    between atoms: C_4  and  C_5
REMARK    4  A    between atoms: C_8  and  C_9
REMARK    5  A    between atoms: C_9  and  C_10
REMARK                            x       y       z     vdW  Elec       q    Type
REMARK                         _______ _______ _______ _____ _____    ______ ____
ROOT
ATOM      1  O   UNL     1      50.046   6.896  14.785  0.00  0.00    +0.000 OA
ATOM      2  C   UNL     1      49.076   7.198  15.464  0.00  0.00    +0.000 C 
ATOM      3  N   UNL     1      48.039   7.990  15.033  0.00  0.00    +0.000 N 
ATOM      4  H   UNL     1      47.183   8.001  15.568  0.00  0.00    +0.000 HD
ENDROOT
BRANCH   2   5
ATOM      5  C   UNL     1      48.778   6.594  16.756  0.00  0.00    +0.000 A 
ATOM      6  C   UNL     1      49.152   7.175  17.955  0.00  0.00    +0.000 A 
ATOM      7  S   UNL     1      49.140   6.038  19.241  0.00  0.00    +0.000 S 
ATOM      8  C   UNL     1      48.520   4.811  18.230  0.00  0.00    +0.000 A 
ATOM      9  N   UNL     1      48.387   3.522  18.639  0.00  0.00    +0.000 NA
ATOM     10  C   UNL     1      47.856   2.738  17.759  0.00  0.00    +0.000 A 
ATOM     11  N   UNL     1      47.407   3.131  16.521  0.00  0.00    +0.000 N 
ATOM     12  C   UNL     1      47.492   4.433  16.077  0.00  0.00    +0.000 A 
ATOM     13  O   UNL     1      46.985   4.791  15.019  0.00  0.00    +0.000 OA
ATOM     14  C   UNL     1      48.200   5.305  16.983  0.00  0.00    +0.000 A 
ATOM     15  H   UNL     1      46.914   2.493  15.915  0.00  0.00    +0.000 HD
ENDBRANCH   2   5
BRANCH   3  16
ATOM     16  C   UNL     1      47.917   8.421  13.656  0.00  0.00    +0.000 C 
BRANCH  16  17
ATOM     17  C   UNL     1      46.850   7.630  12.923  0.00  0.00    +0.000 A 
ATOM     18  N   UNL     1      47.193   6.439  12.399  0.00  0.00    +0.000 NA
ATOM     19  C   UNL     1      46.240   5.776  11.716  0.00  0.00    +0.000 A 
ATOM     20  C   UNL     1      44.959   6.250  11.522  0.00  0.00    +0.000 A 
ATOM     21  C   UNL     1      44.721   7.495  12.069  0.00  0.00    +0.000 A 
ATOM     22  N   UNL     1      45.642   8.210  12.749  0.00  0.00    +0.000 NA
BRANCH  20  23
ATOM     23  C   UNL     1      43.914   5.481  10.771  0.00  0.00    +0.000 C 
BRANCH  23  24
ATOM     24  C   UNL     1      44.440   4.353   9.920  0.00  0.00    +0.000 A 
ATOM     25  C   UNL     1      45.203   4.630   8.776  0.00  0.00    +0.000 A 
ATOM     26  C   UNL     1      45.738   3.589   8.019  0.00  0.00    +0.000 A 
ATOM     27  C   UNL     1      45.488   2.289   8.423  0.00  0.00    +0.000 A 
ATOM     28  N   UNL     1      44.743   1.976   9.499  0.00  0.00    +0.000 NA
ATOM     29  C   UNL     1      44.235   3.005  10.214  0.00  0.00    +0.000 A 
ATOM     30 CL   UNL     1      43.315   2.468  11.565  0.00  0.00    +0.000 Cl
ENDBRANCH  23  24
ENDBRANCH  20  23
ENDBRANCH  16  17
ENDBRANCH   3  16
TORSDOF 5
ENDMDL
MODEL 2
REMARK VINA RESULT:    -7.305      3.781      8.186
REMARK INTER + INTRA:         -10.337
REMARK INTER:                  -9.493
REMARK INTRA:                  -0.844
REMARK UNBOUND:                -0.897
REMARK  Name = 
REMARK  5 active torsions:
REMARK  status: ('A' for Active; 'I' for Inactive)
REMARK    1  A    between atoms: C_2  and  C_19
REMARK    2  A    between atoms: N_3  and  C_4
REMARK    3  A    between atoms: C_4  and  C_5
REMARK    4  A    between atoms: C_8  and  C_9
REMARK    5  A    between atoms: C_9  and  C_10
REMARK                            x       y       z     vdW  Elec       q    Type
REMARK                         _______ _______ _______ _____ _____    ______ ____
ROOT
ATOM      1  O   UNL     1      44.926   7.291  11.568  0.00  0.00    +0.000 OA
ATOM      2  C   UNL     1      45.400   6.168  11.512  0.00  0.00    +0.000 C 
ATOM      3  N   UNL     1      46.640   5.820  11.994  0.00  0.00    +0.000 N 
ATOM      4  H   UNL     1      46.857   4.842  12.111  0.00  0.00    +0.000 HD
ENDROOT
BRANCH   2   5
ATOM      5  C   UNL     1      44.640   4.990  11.112  0.00  0.00    +0.000 A 
ATOM      6  C   UNL     1      43.614   4.468  11.878  0.00  0.00    +0.000 A 
ATOM      7  S   UNL     1      43.262   2.845  11.447  0.00  0.00    +0.000 S 
ATOM      8  C   UNL     1      44.385   2.881  10.162  0.00  0.00    +0.000 A 
ATOM      9  N   UNL     1      44.706   1.776   9.439  0.00  0.00    +0.000 NA
ATOM     10  C   UNL     1      45.538   1.997   8.474  0.00  0.00    +0.000 A 
ATOM     11  N   UNL     1      46.049   3.228   8.139  0.00  0.00    +0.000 N 
ATOM     12  C   UNL     1      45.726   4.379   8.824  0.00  0.00    +0.000 A 
ATOM     13  O   UNL     1      46.098   5.484   8.444  0.00  0.00    +0.000 OA
ATOM     14  C   UNL     1      44.905   4.146   9.988  0.00  0.00    +0.000 A 
ATOM     15  H   UNL     1      46.618   3.353   7.316  0.00  0.00    +0.000 HD
ENDBRANCH   2   5
BRANCH   3  16
ATOM     16  C   UNL     1      47.451   6.734  12.770  0.00  0.00    +0.000 C 
BRANCH  16  17
ATOM     17  C   UNL     1      47.795   6.150  14.127  0.00  0.00    +0.000 A 
ATOM     18  N   UNL     1      48.621   6.849  14.926  0.00  0.00    +0.000 NA
ATOM     19  C   UNL     1      48.945   6.288  16.108  0.00  0.00    +0.000 A 
ATOM     20  C   UNL     1      48.490   5.056  16.527  0.00  0.00    +0.000 A 
ATOM     21  C   UNL     1      47.678   4.407  15.620  0.00  0.00    +0.000 A 
ATOM     22  N   UNL     1      47.333   4.914  14.417  0.00  0.00    +0.000 NA
BRANCH  20  23
ATOM     23  C   UNL     1      48.855   4.466  17.857  0.00  0.00    +0.000 C 
BRANCH  23  24
ATOM     24  C   UNL     1      50.096   3.610  17.857  0.00  0.00    +0.000 A 
ATOM     25  C   UNL     1      50.057   2.313  17.323  0.00  0.00    +0.000 A 
ATOM     26  C   UNL     1      51.216   1.541  17.270  0.00  0.00    +0.000 A 
ATOM     27  C   UNL     1      52.389   2.084  17.762  0.00  0.00    +0.000 A 
ATOM     28  N   UNL     1      52.469   3.313  18.304  0.00  0.00    +0.000 NA
ATOM     29  C   UNL     1      51.330   4.041  18.345  0.00  0.00    +0.000 A 
ATOM     30 CL   UNL     1      51.572   5.592  19.048  0.00  0.00    +0.000 Cl
ENDBRANCH  23  24
ENDBRANCH  20  23
ENDBRANCH  16  17
ENDBRANCH   3  16
TORSDOF 5
ENDMDL
MODEL 3
REMARK VINA RESULT:    -7.146      4.034      8.900
REMARK INTER + INTRA:         -10.132
REMARK INTER:                  -9.289
REMARK INTRA:                  -0.843
REMARK UNBOUND:                -0.897
REMARK  Name = 
REMARK  5 active torsions:
REMARK  status: ('A' for Active; 'I' for Inactive)
REMARK    1  A    between atoms: C_2  and  C_19
REMARK    2  A    between atoms: N_3  and  C_4
REMARK    3  A    between atoms: C_4  and  C_5
REMARK    4  A    between atoms: C_8  and  C_9
REMARK    5  A    between atoms: C_9  and  C_10
REMARK                            x       y       z     vdW  Elec       q    Type
REMARK                         _______ _______ _______ _____ _____    ______ ____
ROOT
ATOM      1  O   UNL     1      47.585   3.213  13.756  0.00  0.00    +0.000 OA
ATOM      2  C   UNL     1      46.850   4.153  14.014  0.00  0.00    +0.000 C 
ATOM      3  N   UNL     1      46.593   4.616  15.282  0.00  0.00    +0.000 N 
ATOM      4  H   UNL     1      46.163   5.523  15.390  0.00  0.00    +0.000 HD
ENDROOT
BRANCH   2   5
ATOM      5  C   UNL     1      46.300   5.048  13.004  0.00  0.00    +0.000 A 
ATOM      6  C   UNL     1      46.950   6.199  12.594  0.00  0.00    +0.000 A 
ATOM      7  S   UNL     1      45.877   7.290  11.817  0.00  0.00    +0.000 S 
ATOM      8  C   UNL     1      44.583   6.181  11.916  0.00  0.00    +0.000 A 
ATOM      9  N   UNL     1      43.312   6.506  11.562  0.00  0.00    +0.000 NA
ATOM     10  C   UNL     1      42.469   5.529  11.655  0.00  0.00    +0.000 A 
ATOM     11  N   UNL     1      42.787   4.246  12.031  0.00  0.00    +0.000 N 
ATOM     12  C   UNL     1      44.068   3.865  12.367  0.00  0.00    +0.000 A 
ATOM     13  O   UNL     1      44.358   2.695  12.589  0.00  0.00    +0.000 OA
ATOM     14  C   UNL     1      45.006   4.962  12.401  0.00  0.00    +0.000 A 
ATOM     15  H   UNL     1      42.106   3.505  11.993  0.00  0.00    +0.000 HD
ENDBRANCH   2   5
BRANCH   3  16
ATOM     16  C   UNL     1      47.306   4.125  16.443  0.00  0.00    +0.000 C 
BRANCH  16  17
ATOM     17  C   UNL     1      47.651   5.254  17.396  0.00  0.00    +0.000 A 
ATOM     18  N   UNL     1      48.600   6.132  17.022  0.00  0.00    +0.000 NA
ATOM     19  C   UNL     1      48.918   7.099  17.904  0.00  0.00    +0.000 A 
ATOM     20  C   UNL     1      48.340   7.227  19.149  0.00  0.00    +0.000 A 
ATOM     21  C   UNL     1      47.405   6.257  19.449  0.00  0.00    +0.000 A 
ATOM     22  N   UNL     1      47.058   5.257  18.610  0.00  0.00    +0.000 NA
BRANCH  20  23
ATOM     23  C   UNL     1      48.703   8.326  20.103  0.00  0.00    +0.000 C 
BRANCH  23  24
ATOM     24  C   UNL     1      47.566   9.236  20.493  0.00  0.00    +0.000 A 
ATOM     25  C   UNL     1      46.965   9.111  21.754  0.00  0.00    +0.000 A 
ATOM     26  C   UNL     1      45.953   9.987  22.140  0.00  0.00    +0.000 A 
ATOM     27  C   UNL     1      45.557  10.966  21.246  0.00  0.00    +0.000 A 
ATOM     28  N   UNL     1      46.088  11.109  20.017  0.00  0.00    +0.000 NA
ATOM     29  C   UNL     1      47.068  10.245  19.668  0.00  0.00    +0.000 A 
ATOM     30 CL   UNL     1      47.666  10.542  18.083  0.00  0.00    +0.000 Cl
ENDBRANCH  23  24
ENDBRANCH  20  23
ENDBRANCH  16  17
ENDBRANCH   3  16
TORSDOF 5
ENDMDL
MODEL 4
REMARK VINA RESULT:    -7.137      2.219      2.525
REMARK INTER + INTRA:         -10.120
REMARK INTER:                  -9.294
REMARK INTRA:                  -0.826
REMARK UNBOUND:                -0.897
REMARK  Name = 
REMARK  5 active torsions:
REMARK  status: ('A' for Active; 'I' for Inactive)
REMARK    1  A    between atoms: C_2  and  C_19
REMARK    2  A    between atoms: N_3  and  C_4
REMARK    3  A    between atoms: C_4  and  C_5
REMARK    4  A    between atoms: C_8  and  C_9
REMARK    5  A    between atoms: C_9  and  C_10
REMARK                            x       y       z     vdW  Elec       q    Type
REMARK                         _______ _______ _______ _____ _____    ______ ____
ROOT
ATOM      1  O   UNL     1      48.614   6.895  17.531  0.00  0.00    +0.000 OA
ATOM      2  C   UNL     1      49.493   6.225  17.012  0.00  0.00    +0.000 C 
ATOM      3  N   UNL     1      49.841   6.292  15.684  0.00  0.00    +0.000 N 
ATOM      4  H   UNL     1      50.714   5.880  15.390  0.00  0.00    +0.000 HD
ENDROOT
BRANCH   2   5
ATOM      5  C   UNL     1      50.437   5.409  17.765  0.00  0.00    +0.000 A 
ATOM      6  C   UNL     1      51.448   5.956  18.534  0.00  0.00    +0.000 A 
ATOM      7  S   UNL     1      52.680   4.810  18.869  0.00  0.00    +0.000 S 
ATOM      8  C   UNL     1      51.809   3.560  18.100  0.00  0.00    +0.000 A 
ATOM      9  N   UNL     1      52.332   2.323  17.892  0.00  0.00    +0.000 NA
ATOM     10  C   UNL     1      51.515   1.488  17.338  0.00  0.00    +0.000 A 
ATOM     11  N   UNL     1      50.209   1.761  17.010  0.00  0.00    +0.000 N 
ATOM     12  C   UNL     1      49.628   2.991  17.233  0.00  0.00    +0.000 A 
ATOM     13  O   UNL     1      48.432   3.186  17.041  0.00  0.00    +0.000 OA
ATOM     14  C   UNL     1      50.552   3.984  17.727  0.00  0.00    +0.000 A 
ATOM     15  H   UNL     1      49.592   1.040  16.670  0.00  0.00    +0.000 HD
ENDBRANCH   2   5
BRANCH   3  16
ATOM     16  C   UNL     1      49.296   7.294  14.791  0.00  0.00    +0.000 C 
BRANCH  16  17
ATOM     17  C   UNL     1      48.045   6.792  14.097  0.00  0.00    +0.000 A 
ATOM     18  N   UNL     1      47.250   7.694  13.493  0.00  0.00    +0.000 NA
ATOM     19  C   UNL     1      46.123   7.228  12.921  0.00  0.00    +0.000 A 
ATOM     20  C   UNL     1      45.746   5.901  12.929  0.00  0.00    +0.000 A 
ATOM     21  C   UNL     1      46.612   5.065  13.604  0.00  0.00    +0.000 A 
ATOM     22  N   UNL     1      47.746   5.479  14.208  0.00  0.00    +0.000 NA
BRANCH  20  23
ATOM     23  C   UNL     1      44.493   5.410  12.268  0.00  0.00    +0.000 C 
BRANCH  23  24
ATOM     24  C   UNL     1      44.699   4.709  10.950  0.00  0.00    +0.000 A 
ATOM     25  C   UNL     1      45.455   5.320   9.938  0.00  0.00    +0.000 A 
ATOM     26  C   UNL     1      45.695   4.651   8.740  0.00  0.00    +0.000 A 
ATOM     27  C   UNL     1      45.164   3.384   8.577  0.00  0.00    +0.000 A 
ATOM     28  N   UNL     1      44.413   2.769   9.510  0.00  0.00    +0.000 NA
ATOM     29  C   UNL     1      44.194   3.440  10.663  0.00  0.00    +0.000 A 
ATOM     30 CL   UNL     1      43.234   2.540  11.770  0.00  0.00    +0.000 Cl
ENDBRANCH  23  24
ENDBRANCH  20  23
ENDBRANCH  16  17
ENDBRANCH   3  16
TORSDOF 5
ENDMDL
MODEL 5
REMARK VINA RESULT:    -7.134      2.016      2.430
REMARK INTER + INTRA:         -10.117
REMARK INTER:                  -9.111
REMARK INTRA:                  -1.006
REMARK UNBOUND:                -0.897
REMARK  Name = 
REMARK  5 active torsions:
REMARK  status: ('A' for Active; 'I' for Inactive)
REMARK    1  A    between atoms: C_2  and  C_19
REMARK    2  A    between atoms: N_3  and  C_4
REMARK    3  A    between atoms: C_4  and  C_5
REMARK    4  A    between atoms: C_8  and  C_9
REMARK    5  A    between atoms: C_9  and  C_10
REMARK                            x       y       z     vdW  Elec       q    Type
REMARK                         _______ _______ _______ _____ _____    ______ ____
ROOT
ATOM      1  O   UNL     1      50.182   7.854  16.801  0.00  0.00    +0.000 OA
ATOM      2  C   UNL     1      48.967   7.983  16.807  0.00  0.00    +0.000 C 
ATOM      3  N   UNL     1      48.142   7.643  15.762  0.00  0.00    +0.000 N 
ATOM      4  H   UNL     1      47.150   7.569  15.932  0.00  0.00    +0.000 HD
ENDROOT
BRANCH   2   5
ATOM      5  C   UNL     1      48.199   8.323  17.998  0.00  0.00    +0.000 A 
ATOM      6  C   UNL     1      47.942   9.629  18.373  0.00  0.00    +0.000 A 
ATOM      7  S   UNL     1      47.490   9.738  20.025  0.00  0.00    +0.000 S 
ATOM      8  C   UNL     1      47.515   8.040  20.204  0.00  0.00    +0.000 A 
ATOM      9  N   UNL     1      47.357   7.429  21.408  0.00  0.00    +0.000 NA
ATOM     10  C   UNL     1      47.355   6.137  21.350  0.00  0.00    +0.000 A 
ATOM     11  N   UNL     1      47.456   5.399  20.196  0.00  0.00    +0.000 N 
ATOM     12  C   UNL     1      47.586   5.977  18.952  0.00  0.00    +0.000 A 
ATOM     13  O   UNL     1      47.560   5.311  17.922  0.00  0.00    +0.000 OA
ATOM     14  C   UNL     1      47.724   7.413  18.995  0.00  0.00    +0.000 A 
ATOM     15  H   UNL     1      47.352   4.396  20.204  0.00  0.00    +0.000 HD
ENDBRANCH   2   5
BRANCH   3  16
ATOM     16  C   UNL     1      48.626   6.940  14.592  0.00  0.00    +0.000 C 
BRANCH  16  17
ATOM     17  C   UNL     1      47.489   6.586  13.652  0.00  0.00    +0.000 A 
ATOM     18  N   UNL     1      46.966   5.348  13.728  0.00  0.00    +0.000 NA
ATOM     19  C   UNL     1      45.988   5.045  12.854  0.00  0.00    +0.000 A 
ATOM     20  C   UNL     1      45.510   5.917  11.898  0.00  0.00    +0.000 A 
ATOM     21  C   UNL     1      46.137   7.147  11.882  0.00  0.00    +0.000 A 
ATOM     22  N   UNL     1      47.132   7.499  12.723  0.00  0.00    +0.000 NA
BRANCH  20  23
ATOM     23  C   UNL     1      44.407   5.556  10.949  0.00  0.00    +0.000 C 
BRANCH  23  24
ATOM     24  C   UNL     1      44.728   4.435   9.993  0.00  0.00    +0.000 A 
ATOM     25  C   UNL     1      45.502   4.686   8.850  0.00  0.00    +0.000 A 
ATOM     26  C   UNL     1      45.849   3.643   7.994  0.00  0.00    +0.000 A 
ATOM     27  C   UNL     1      45.403   2.369   8.298  0.00  0.00    +0.000 A 
ATOM     28  N   UNL     1      44.638   2.086   9.370  0.00  0.00    +0.000 NA
ATOM     29  C   UNL     1      44.316   3.117  10.183  0.00  0.00    +0.000 A 
ATOM     30 CL   UNL     1      43.349   2.618  11.515  0.00  0.00    +0.000 Cl
ENDBRANCH  23  24
ENDBRANCH  20  23
ENDBRANCH  16  17
ENDBRANCH   3  16
TORSDOF 5
ENDMDL
MODEL 6
REMARK VINA RESULT:    -7.030      4.402      9.161
REMARK INTER + INTRA:          -9.982
REMARK INTER:                  -9.117
REMARK INTRA:                  -0.865
REMARK UNBOUND:                -0.897
REMARK  Name = 
REMARK  5 active torsions:
REMARK  status: ('A' for Active; 'I' for Inactive)
REMARK    1  A    between atoms: C_2  and  C_19
REMARK    2  A    between atoms: N_3  and  C_4
REMARK    3  A    between atoms: C_4  and  C_5
REMARK    4  A    between atoms: C_8  and  C_9
REMARK    5  A    between atoms: C_9  and  C_10
REMARK                            x       y       z     vdW  Elec       q    Type
REMARK                         _______ _______ _______ _____ _____    ______ ____
ROOT
ATOM      1  O   UNL     1      47.416   2.921  14.343  0.00  0.00    +0.000 OA
ATOM      2  C   UNL     1      46.947   4.026  14.563  0.00  0.00    +0.000 C 
ATOM      3  N   UNL     1      46.730   4.545  15.818  0.00  0.00    +0.000 N 
ATOM      4  H   UNL     1      46.557   5.534  15.910  0.00  0.00    +0.000 HD
ENDROOT
BRANCH   2   5
ATOM      5  C   UNL     1      46.740   5.035  13.532  0.00  0.00    +0.000 A 
ATOM      6  C   UNL     1      47.596   6.107  13.355  0.00  0.00    +0.000 A 
ATOM      7  S   UNL     1      46.855   7.369  12.457  0.00  0.00    +0.000 S 
ATOM      8  C   UNL     1      45.447   6.439  12.201  0.00  0.00    +0.000 A 
ATOM      9  N   UNL     1      44.330   6.948  11.617  0.00  0.00    +0.000 NA
ATOM     10  C   UNL     1      43.376   6.090  11.459  0.00  0.00    +0.000 A 
ATOM     11  N   UNL     1      43.449   4.759  11.794  0.00  0.00    +0.000 N 
ATOM     12  C   UNL     1      44.572   4.194  12.358  0.00  0.00    +0.000 A 
ATOM     13  O   UNL     1      44.664   2.986  12.546  0.00  0.00    +0.000 OA
ATOM     14  C   UNL     1      45.605   5.153  12.669  0.00  0.00    +0.000 A 
ATOM     15  H   UNL     1      42.707   4.118  11.559  0.00  0.00    +0.000 HD
ENDBRANCH   2   5
BRANCH   3  16
ATOM     16  C   UNL     1      47.193   3.881  17.019  0.00  0.00    +0.000 C 
BRANCH  16  17
ATOM     17  C   UNL     1      48.694   4.028  17.187  0.00  0.00    +0.000 A 
ATOM     18  N   UNL     1      49.443   2.910  17.194  0.00  0.00    +0.000 NA
ATOM     19  C   UNL     1      50.767   3.065  17.388  0.00  0.00    +0.000 A 
ATOM     20  C   UNL     1      51.380   4.285  17.584  0.00  0.00    +0.000 A 
ATOM     21  C   UNL     1      50.519   5.363  17.594  0.00  0.00    +0.000 A 
ATOM     22  N   UNL     1      49.184   5.265  17.420  0.00  0.00    +0.000 NA
BRANCH  20  23
ATOM     23  C   UNL     1      52.860   4.426  17.781  0.00  0.00    +0.000 C 
BRANCH  23  24
ATOM     24  C   UNL     1      53.378   3.935  19.109  0.00  0.00    +0.000 A 
ATOM     25  C   UNL     1      53.181   4.701  20.268  0.00  0.00    +0.000 A 
ATOM     26  C   UNL     1      53.608   4.224  21.505  0.00  0.00    +0.000 A 
ATOM     27  C   UNL     1      54.233   2.990  21.553  0.00  0.00    +0.000 A 
ATOM     28  N   UNL     1      54.465   2.232  20.464  0.00  0.00    +0.000 NA
ATOM     29  C   UNL     1      54.041   2.720  19.276  0.00  0.00    +0.000 A 
ATOM     30 CL   UNL     1      54.387   1.652  17.973  0.00  0.00    +0.000 Cl
ENDBRANCH  23  24
ENDBRANCH  20  23
ENDBRANCH  16  17
ENDBRANCH   3  16
TORSDOF 5
ENDMDL
MODEL 7
REMARK VINA RESULT:    -6.784      3.734      7.600
REMARK INTER + INTRA:          -9.664
REMARK INTER:                  -9.080
REMARK INTRA:                  -0.583
REMARK UNBOUND:                -0.897
REMARK  Name = 
REMARK  5 active torsions:
REMARK  status: ('A' for Active; 'I' for Inactive)
REMARK    1  A    between atoms: C_2  and  C_19
REMARK    2  A    between atoms: N_3  and  C_4
REMARK    3  A    between atoms: C_4  and  C_5
REMARK    4  A    between atoms: C_8  and  C_9
REMARK    5  A    between atoms: C_9  and  C_10
REMARK                            x       y       z     vdW  Elec       q    Type
REMARK                         _______ _______ _______ _____ _____    ______ ____
ROOT
ATOM      1  O   UNL     1      45.096   7.888  11.431  0.00  0.00    +0.000 OA
ATOM      2  C   UNL     1      45.938   7.008  11.345  0.00  0.00    +0.000 C 
ATOM      3  N   UNL     1      47.161   7.035  11.972  0.00  0.00    +0.000 N 
ATOM      4  H   UNL     1      47.694   6.181  12.033  0.00  0.00    +0.000 HD
ENDROOT
BRANCH   2   5
ATOM      5  C   UNL     1      45.687   5.709  10.735  0.00  0.00    +0.000 A 
ATOM      6  C   UNL     1      45.930   5.453   9.397  0.00  0.00    +0.000 A 
ATOM      7  S   UNL     1      45.084   4.062   8.853  0.00  0.00    +0.000 S 
ATOM      8  C   UNL     1      44.500   3.732  10.423  0.00  0.00    +0.000 A 
ATOM      9  N   UNL     1      43.592   2.752  10.674  0.00  0.00    +0.000 NA
ATOM     10  C   UNL     1      43.298   2.610  11.926  0.00  0.00    +0.000 A 
ATOM     11  N   UNL     1      43.858   3.330  12.954  0.00  0.00    +0.000 N 
ATOM     12  C   UNL     1      44.805   4.310  12.747  0.00  0.00    +0.000 A 
ATOM     13  O   UNL     1      45.378   4.863  13.680  0.00  0.00    +0.000 OA
ATOM     14  C   UNL     1      45.056   4.583  11.353  0.00  0.00    +0.000 A 
ATOM     15  H   UNL     1      43.660   3.109  13.918  0.00  0.00    +0.000 HD
ENDBRANCH   2   5
BRANCH   3  16
ATOM     16  C   UNL     1      47.512   8.056  12.937  0.00  0.00    +0.000 C 
BRANCH  16  17
ATOM     17  C   UNL     1      48.046   7.444  14.218  0.00  0.00    +0.000 A 
ATOM     18  N   UNL     1      48.013   6.104  14.341  0.00  0.00    +0.000 NA
ATOM     19  C   UNL     1      48.453   5.588  15.505  0.00  0.00    +0.000 A 
ATOM     20  C   UNL     1      48.918   6.347  16.559  0.00  0.00    +0.000 A 
ATOM     21  C   UNL     1      48.878   7.709  16.343  0.00  0.00    +0.000 A 
ATOM     22  N   UNL     1      48.433   8.282  15.205  0.00  0.00    +0.000 NA
BRANCH  20  23
ATOM     23  C   UNL     1      49.418   5.741  17.836  0.00  0.00    +0.000 C 
BRANCH  23  24
ATOM     24  C   UNL     1      50.078   4.394  17.689  0.00  0.00    +0.000 A 
ATOM     25  C   UNL     1      49.304   3.258  17.408  0.00  0.00    +0.000 A 
ATOM     26  C   UNL     1      49.916   2.021  17.215  0.00  0.00    +0.000 A 
ATOM     27  C   UNL     1      51.294   1.948  17.318  0.00  0.00    +0.000 A 
ATOM     28  N   UNL     1      52.074   3.006  17.610  0.00  0.00    +0.000 NA
ATOM     29  C   UNL     1      51.455   4.193  17.793  0.00  0.00    +0.000 A 
ATOM     30 CL   UNL     1      52.564   5.460  18.147  0.00  0.00    +0.000 Cl
ENDBRANCH  23  24
ENDBRANCH  20  23
ENDBRANCH  16  17
ENDBRANCH   3  16
TORSDOF 5
ENDMDL
MODEL 8
REMARK VINA RESULT:    -6.740      4.376      9.264
REMARK INTER + INTRA:          -9.607
REMARK INTER:                  -8.394
REMARK INTRA:                  -1.214
REMARK UNBOUND:                -0.897
REMARK  Name = 
REMARK  5 active torsions:
REMARK  status: ('A' for Active; 'I' for Inactive)
REMARK    1  A    between atoms: C_2  and  C_19
REMARK    2  A    between atoms: N_3  and  C_4
REMARK    3  A    between atoms: C_4  and  C_5
REMARK    4  A    between atoms: C_8  and  C_9
REMARK    5  A    between atoms: C_9  and  C_10
REMARK                            x       y       z     vdW  Elec       q    Type
REMARK                         _______ _______ _______ _____ _____    ______ ____
ROOT
ATOM      1  O   UNL     1      47.466   3.036  14.323  0.00  0.00    +0.000 OA
ATOM      2  C   UNL     1      46.941   4.070  14.706  0.00  0.00    +0.000 C 
ATOM      3  N   UNL     1      46.710   4.386  16.024  0.00  0.00    +0.000 N 
ATOM      4  H   UNL     1      46.486   5.340  16.261  0.00  0.00    +0.000 HD
ENDROOT
BRANCH   2   5
ATOM      5  C   UNL     1      46.672   5.208  13.836  0.00  0.00    +0.000 A 
ATOM      6  C   UNL     1      45.463   5.379  13.183  0.00  0.00    +0.000 A 
ATOM      7  S   UNL     1      45.602   6.472  11.868  0.00  0.00    +0.000 S 
ATOM      8  C   UNL     1      47.232   6.811  12.245  0.00  0.00    +0.000 A 
ATOM      9  N   UNL     1      48.026   7.571  11.445  0.00  0.00    +0.000 NA
ATOM     10  C   UNL     1      49.218   7.763  11.909  0.00  0.00    +0.000 A 
ATOM     11  N   UNL     1      49.678   7.300  13.118  0.00  0.00    +0.000 N 
ATOM     12  C   UNL     1      48.898   6.554  13.975  0.00  0.00    +0.000 A 
ATOM     13  O   UNL     1      49.283   6.245  15.097  0.00  0.00    +0.000 OA
ATOM     14  C   UNL     1      47.607   6.210  13.427  0.00  0.00    +0.000 A 
ATOM     15  H   UNL     1      50.585   7.564  13.470  0.00  0.00    +0.000 HD
ENDBRANCH   2   5
BRANCH   3  16
ATOM     16  C   UNL     1      47.219   3.578  17.112  0.00  0.00    +0.000 C 
BRANCH  16  17
ATOM     17  C   UNL     1      48.658   3.930  17.435  0.00  0.00    +0.000 A 
ATOM     18  N   UNL     1      49.617   3.048  17.099  0.00  0.00    +0.000 NA
ATOM     19  C   UNL     1      50.883   3.365  17.436  0.00  0.00    +0.000 A 
ATOM     20  C   UNL     1      51.237   4.520  18.100  0.00  0.00    +0.000 A 
ATOM     21  C   UNL     1      50.177   5.340  18.428  0.00  0.00    +0.000 A 
ATOM     22  N   UNL     1      48.889   5.065  18.131  0.00  0.00    +0.000 NA
BRANCH  20  23
ATOM     23  C   UNL     1      52.658   4.854  18.445  0.00  0.00    +0.000 C 
BRANCH  23  24
ATOM     24  C   UNL     1      53.169   4.229  19.719  0.00  0.00    +0.000 A 
ATOM     25  C   UNL     1      52.833   4.788  20.961  0.00  0.00    +0.000 A 
ATOM     26  C   UNL     1      53.256   4.181  22.142  0.00  0.00    +0.000 A 
ATOM     27  C   UNL     1      54.017   3.029  22.051  0.00  0.00    +0.000 A 
ATOM     28  N   UNL     1      54.384   2.471  20.881  0.00  0.00    +0.000 NA
ATOM     29  C   UNL     1      53.961   3.081  19.751  0.00  0.00    +0.000 A 
ATOM     30 CL   UNL     1      54.487   2.263  18.333  0.00  0.00    +0.000 Cl
ENDBRANCH  23  24
ENDBRANCH  20  23
ENDBRANCH  16  17
ENDBRANCH   3  16
TORSDOF 5
ENDMDL
MODEL 9
REMARK VINA RESULT:    -6.458      2.007      2.915
REMARK INTER + INTRA:          -9.243
REMARK INTER:                  -8.390
REMARK INTRA:                  -0.853
REMARK UNBOUND:                -0.897
REMARK  Name = 
REMARK  5 active torsions:
REMARK  status: ('A' for Active; 'I' for Inactive)
REMARK    1  A    between atoms: C_2  and  C_19
REMARK    2  A    between atoms: N_3  and  C_4
REMARK    3  A    between atoms: C_4  and  C_5
REMARK    4  A    between atoms: C_8  and  C_9
REMARK    5  A    between atoms: C_9  and  C_10
REMARK                            x       y       z     vdW  Elec       q    Type
REMARK                         _______ _______ _______ _____ _____    ______ ____
ROOT
ATOM      1  O   UNL     1      51.417   6.644  16.216  0.00  0.00    +0.000 OA
ATOM      2  C   UNL     1      50.259   6.641  16.605  0.00  0.00    +0.000 C 
ATOM      3  N   UNL     1      49.174   6.964  15.825  0.00  0.00    +0.000 N 
ATOM      4  H   UNL     1      48.252   6.720  16.153  0.00  0.00    +0.000 HD
ENDROOT
BRANCH   2   5
ATOM      5  C   UNL     1      49.842   6.096  17.891  0.00  0.00    +0.000 A 
ATOM      6  C   UNL     1      49.797   4.737  18.146  0.00  0.00    +0.000 A 
ATOM      7  S   UNL     1      48.808   4.379  19.502  0.00  0.00    +0.000 S 
ATOM      8  C   UNL     1      48.543   6.035  19.821  0.00  0.00    +0.000 A 
ATOM      9  N   UNL     1      47.670   6.468  20.768  0.00  0.00    +0.000 NA
ATOM     10  C   UNL     1      47.632   7.753  20.907  0.00  0.00    +0.000 A 
ATOM     11  N   UNL     1      48.415   8.645  20.214  0.00  0.00    +0.000 N 
ATOM     12  C   UNL     1      49.336   8.248  19.268  0.00  0.00    +0.000 A 
ATOM     13  O   UNL     1      50.106   9.044  18.742  0.00  0.00    +0.000 OA
ATOM     14  C   UNL     1      49.308   6.831  18.996  0.00  0.00    +0.000 A 
ATOM     15  H   UNL     1      48.409   9.629  20.434  0.00  0.00    +0.000 HD
ENDBRANCH   2   5
BRANCH   3  16
ATOM     16  C   UNL     1      49.287   7.191  14.400  0.00  0.00    +0.000 C 
BRANCH  16  17
ATOM     17  C   UNL     1      48.036   6.742  13.669  0.00  0.00    +0.000 A 
ATOM     18  N   UNL     1      47.240   7.687  13.137  0.00  0.00    +0.000 NA
ATOM     19  C   UNL     1      46.113   7.264  12.531  0.00  0.00    +0.000 A 
ATOM     20  C   UNL     1      45.738   5.940  12.437  0.00  0.00    +0.000 A 
ATOM     21  C   UNL     1      46.606   5.055  13.045  0.00  0.00    +0.000 A 
ATOM     22  N   UNL     1      47.740   5.424  13.679  0.00  0.00    +0.000 NA
BRANCH  20  23
ATOM     23  C   UNL     1      44.486   5.499  11.741  0.00  0.00    +0.000 C 
BRANCH  23  24
ATOM     24  C   UNL     1      44.699   4.584  10.562  0.00  0.00    +0.000 A 
ATOM     25  C   UNL     1      45.445   5.021   9.457  0.00  0.00    +0.000 A 
ATOM     26  C   UNL     1      45.693   4.159   8.391  0.00  0.00    +0.000 A 
ATOM     27  C   UNL     1      45.177   2.877   8.451  0.00  0.00    +0.000 A 
ATOM     28  N   UNL     1      44.435   2.422   9.478  0.00  0.00    +0.000 NA
ATOM     29  C   UNL     1      44.210   3.279  10.499  0.00  0.00    +0.000 A 
ATOM     30 CL   UNL     1      43.263   2.571  11.748  0.00  0.00    +0.000 Cl
ENDBRANCH  23  24
ENDBRANCH  20  23
ENDBRANCH  16  17
ENDBRANCH   3  16
TORSDOF 5
ENDMDL
