MODEL 1
REMARK VINA RESULT:    -8.301      0.000      0.000
REMARK INTER + INTRA:         -12.386
REMARK INTER:                 -11.698
REMARK INTRA:                  -0.688
REMARK UNBOUND:                -0.688
REMARK  Name = 
REMARK  7 active torsions:
REMARK  status: ('A' for Active; 'I' for Inactive)
REMARK    1  A    between atoms: C_2  and  C_3
REMARK    2  A    between atoms: C_3  and  C_4
REMARK    3  A    between atoms: C_3  and  N_11
REMARK    4  A    between atoms: C_4  and  C_5
REMARK    5  A    between atoms: C_15  and  C_16
REMARK    6  A    between atoms: C_16  and  N_17
REMARK    7  A    between atoms: C_18  and  C_20
REMARK                            x       y       z     vdW  Elec       q    Type
REMARK                         _______ _______ _______ _____ _____    ______ ____
ROOT
ATOM      1  N   UNL     1      45.228   3.457  12.098  0.00  0.00    +0.000 N 
ATOM      2  C   UNL     1      46.010   4.325  12.879  0.00  0.00    +0.000 A 
ATOM      3  C   UNL     1      46.556   3.832  14.061  0.00  0.00    +0.000 A 
ATOM      4  C   UNL     1      47.362   4.656  14.845  0.00  0.00    +0.000 A 
ATOM      5  C   UNL     1      47.601   5.967  14.442  0.00  0.00    +0.000 A 
ATOM      6  C   UNL     1      47.011   6.378  13.255  0.00  0.00    +0.000 A 
ATOM      7  N   UNL     1      46.223   5.594  12.482  0.00  0.00    +0.000 NA
ATOM      8  H   UNL     1      45.791   2.636  11.894  0.00  0.00    +0.000 HD
ENDROOT
BRANCH   1   9
ATOM      9  C   UNL     1      44.681   4.065  10.866  0.00  0.00    +0.000 C 
BRANCH   9  11
ATOM     10  N   UNL     1      42.474   5.464  11.332  0.00  0.00    +0.000 NA
ATOM     11  C   UNL     1      43.425   4.820  11.137  0.00  0.00    +0.000 C 
ENDBRANCH   9  11
BRANCH   9  12
ATOM     12  C   UNL     1      44.352   2.948   9.849  0.00  0.00    +0.000 C 
BRANCH  12  13
ATOM     13  C   UNL     1      45.331   2.778   8.701  0.00  0.00    +0.000 A 
ATOM     14  C   UNL     1      45.764   3.897   7.976  0.00  0.00    +0.000 A 
ATOM     15  C   UNL     1      46.794   3.786   7.040  0.00  0.00    +0.000 A 
ATOM     16  C   UNL     1      47.396   2.551   6.809  0.00  0.00    +0.000 A 
ATOM     17  C   UNL     1      46.943   1.423   7.487  0.00  0.00    +0.000 A 
ATOM     18  C   UNL     1      45.915   1.532   8.427  0.00  0.00    +0.000 A 
ENDBRANCH  12  13
ENDBRANCH   9  12
ENDBRANCH   1   9
BRANCH   5  19
ATOM     19  C   UNL     1      48.511   6.882  15.206  0.00  0.00    +0.000 C 
BRANCH  19  20
ATOM     20  N   UNL     1      49.633   6.150  15.738  0.00  0.00    +0.000 N 
ATOM     21  C   UNL     1      49.667   5.738  17.045  0.00  0.00    +0.000 C 
ATOM     22  O   UNL     1      48.727   5.935  17.811  0.00  0.00    +0.000 OA
ATOM     23  H   UNL     1      50.496   6.168  15.203  0.00  0.00    +0.000 HD
BRANCH  21  24
ATOM     24  C   UNL     1      50.857   4.987  17.462  0.00  0.00    +0.000 A 
ATOM     25  C   UNL     1      51.972   5.675  17.923  0.00  0.00    +0.000 A 
ATOM     26  S   UNL     1      53.248   4.656  18.416  0.00  0.00    +0.000 S 
ATOM     27  C   UNL     1      52.376   3.261  17.982  0.00  0.00    +0.000 A 
ATOM     28  N   UNL     1      52.919   2.023  18.131  0.00  0.00    +0.000 NA
ATOM     29  C   UNL     1      52.162   1.057  17.729  0.00  0.00    +0.000 A 
ATOM     30  N   UNL     1      50.908   1.218  17.197  0.00  0.00    +0.000 N 
ATOM     31  C   UNL     1      50.304   2.444  17.064  0.00  0.00    +0.000 A 
ATOM     32  O   UNL     1      49.160   2.549  16.638  0.00  0.00    +0.000 OA
ATOM     33  C   UNL     1      51.121   3.569  17.485  0.00  0.00    +0.000 A 
ATOM     34  H   UNL     1      50.362   0.417  16.912  0.00  0.00    +0.000 HD
ENDBRANCH  21  24
ENDBRANCH  19  20
ENDBRANCH   5  19
TORSDOF 7
ENDMDL
MODEL 2
REMARK VINA RESULT:    -8.125      2.294      2.646
REMARK INTER + INTRA:         -12.139
REMARK INTER:                 -11.205
REMARK INTRA:                  -0.933
REMARK UNBOUND:                -0.688
REMARK  Name = 
REMARK  7 active torsions:
REMARK  status: ('A' for Active; 'I' for Inactive)
REMARK    1  A    between atoms: C_2  and  C_3
REMARK    2  A    between atoms: C_3  and  C_4
REMARK    3  A    between atoms: C_3  and  N_11
REMARK    4  A    between atoms: C_4  and  C_5
REMARK    5  A    between atoms: C_15  and  C_16
REMARK    6  A    between atoms: C_16  and  N_17
REMARK    7  A    between atoms: C_18  and  C_20
REMARK                            x       y       z     vdW  Elec       q    Type
REMARK                         _______ _______ _______ _____ _____    ______ ____
ROOT
ATOM      1  N   UNL     1      45.038   3.814  12.293  0.00  0.00    +0.000 N 
ATOM      2  C   UNL     1      45.994   4.689  12.838  0.00  0.00    +0.000 A 
ATOM      3  C   UNL     1      46.609   4.324  14.033  0.00  0.00    +0.000 A 
ATOM      4  C   UNL     1      47.585   5.152  14.587  0.00  0.00    +0.000 A 
ATOM      5  C   UNL     1      47.923   6.340  13.944  0.00  0.00    +0.000 A 
ATOM      6  C   UNL     1      47.254   6.628  12.762  0.00  0.00    +0.000 A 
ATOM      7  N   UNL     1      46.302   5.839  12.211  0.00  0.00    +0.000 NA
ATOM      8  H   UNL     1      45.479   2.906  12.183  0.00  0.00    +0.000 HD
ENDROOT
BRANCH   1   9
ATOM      9  C   UNL     1      44.429   4.283  11.030  0.00  0.00    +0.000 C 
BRANCH   9  11
ATOM     10  N   UNL     1      42.142   5.543  11.503  0.00  0.00    +0.000 NA
ATOM     11  C   UNL     1      43.130   4.972  11.268  0.00  0.00    +0.000 C 
ENDBRANCH   9  11
BRANCH   9  12
ATOM     12  C   UNL     1      44.159   3.067  10.112  0.00  0.00    +0.000 C 
BRANCH  12  13
ATOM     13  C   UNL     1      45.118   2.878   8.952  0.00  0.00    +0.000 A 
ATOM     14  C   UNL     1      45.584   3.991   8.236  0.00  0.00    +0.000 A 
ATOM     15  C   UNL     1      46.599   3.856   7.288  0.00  0.00    +0.000 A 
ATOM     16  C   UNL     1      47.154   2.604   7.034  0.00  0.00    +0.000 A 
ATOM     17  C   UNL     1      46.668   1.483   7.701  0.00  0.00    +0.000 A 
ATOM     18  C   UNL     1      45.654   1.616   8.654  0.00  0.00    +0.000 A 
ENDBRANCH  12  13
ENDBRANCH   9  12
ENDBRANCH   1   9
BRANCH   5  19
ATOM     19  C   UNL     1      49.008   7.241  14.453  0.00  0.00    +0.000 C 
BRANCH  19  20
ATOM     20  N   UNL     1      48.960   7.327  15.891  0.00  0.00    +0.000 N 
ATOM     21  C   UNL     1      49.916   6.736  16.678  0.00  0.00    +0.000 C 
ATOM     22  O   UNL     1      50.876   6.142  16.194  0.00  0.00    +0.000 OA
ATOM     23  H   UNL     1      48.082   7.612  16.312  0.00  0.00    +0.000 HD
BRANCH  21  24
ATOM     24  C   UNL     1      49.765   6.909  18.127  0.00  0.00    +0.000 A 
ATOM     25  C   UNL     1      50.088   8.128  18.708  0.00  0.00    +0.000 A 
ATOM     26  S   UNL     1      49.807   8.182  20.389  0.00  0.00    +0.000 S 
ATOM     27  C   UNL     1      49.290   6.561  20.409  0.00  0.00    +0.000 A 
ATOM     28  N   UNL     1      48.918   5.961  21.572  0.00  0.00    +0.000 NA
ATOM     29  C   UNL     1      48.583   4.720  21.448  0.00  0.00    +0.000 A 
ATOM     30  N   UNL     1      48.582   4.026  20.265  0.00  0.00    +0.000 N 
ATOM     31  C   UNL     1      48.913   4.600  19.062  0.00  0.00    +0.000 A 
ATOM     32  O   UNL     1      48.847   3.969  18.014  0.00  0.00    +0.000 OA
ATOM     33  C   UNL     1      49.316   5.993  19.147  0.00  0.00    +0.000 A 
ATOM     34  H   UNL     1      48.298   3.057  20.236  0.00  0.00    +0.000 HD
ENDBRANCH  21  24
ENDBRANCH  19  20
ENDBRANCH   5  19
TORSDOF 7
ENDMDL
MODEL 3
REMARK VINA RESULT:    -7.866      3.245      3.791
REMARK INTER + INTRA:         -11.773
REMARK INTER:                 -11.149
REMARK INTRA:                  -0.624
REMARK UNBOUND:                -0.688
REMARK  Name = 
REMARK  7 active torsions:
REMARK  status: ('A' for Active; 'I' for Inactive)
REMARK    1  A    between atoms: C_2  and  C_3
REMARK    2  A    between atoms: C_3  and  C_4
REMARK    3  A    between atoms: C_3  and  N_11
REMARK    4  A    between atoms: C_4  and  C_5
REMARK    5  A    between atoms: C_15  and  C_16
REMARK    6  A    between atoms: C_16  and  N_17
REMARK    7  A    between atoms: C_18  and  C_20
REMARK                            x       y       z     vdW  Elec       q    Type
REMARK                         _______ _______ _______ _____ _____    ______ ____
ROOT
ATOM      1  N   UNL     1      45.504   4.279  11.531  0.00  0.00    +0.000 N 
ATOM      2  C   UNL     1      46.035   5.416  12.166  0.00  0.00    +0.000 A 
ATOM      3  C   UNL     1      46.998   5.226  13.153  0.00  0.00    +0.000 A 
ATOM      4  C   UNL     1      47.568   6.332  13.782  0.00  0.00    +0.000 A 
ATOM      5  C   UNL     1      47.157   7.613  13.423  0.00  0.00    +0.000 A 
ATOM      6  C   UNL     1      46.186   7.709  12.436  0.00  0.00    +0.000 A 
ATOM      7  N   UNL     1      45.619   6.647  11.816  0.00  0.00    +0.000 NA
ATOM      8  H   UNL     1      46.283   3.750  11.148  0.00  0.00    +0.000 HD
ENDROOT
BRANCH   1   9
ATOM      9  C   UNL     1      44.482   4.571  10.504  0.00  0.00    +0.000 C 
BRANCH   9  11
ATOM     10  N   UNL     1      42.242   5.429  11.641  0.00  0.00    +0.000 NA
ATOM     11  C   UNL     1      43.206   5.037  11.115  0.00  0.00    +0.000 C 
ENDBRANCH   9  11
BRANCH   9  12
ATOM     12  C   UNL     1      44.181   3.282   9.703  0.00  0.00    +0.000 C 
BRANCH  12  13
ATOM     13  C   UNL     1      45.194   2.904   8.638  0.00  0.00    +0.000 A 
ATOM     14  C   UNL     1      45.731   3.890   7.798  0.00  0.00    +0.000 A 
ATOM     15  C   UNL     1      46.790   3.594   6.937  0.00  0.00    +0.000 A 
ATOM     16  C   UNL     1      47.318   2.306   6.898  0.00  0.00    +0.000 A 
ATOM     17  C   UNL     1      46.762   1.305   7.691  0.00  0.00    +0.000 A 
ATOM     18  C   UNL     1      45.705   1.599   8.556  0.00  0.00    +0.000 A 
ENDBRANCH  12  13
ENDBRANCH   9  12
ENDBRANCH   1   9
BRANCH   5  19
ATOM     19  C   UNL     1      47.778   8.844  14.014  0.00  0.00    +0.000 C 
BRANCH  19  20
ATOM     20  N   UNL     1      47.572   8.878  15.441  0.00  0.00    +0.000 N 
ATOM     21  C   UNL     1      48.584   8.585  16.319  0.00  0.00    +0.000 C 
ATOM     22  O   UNL     1      49.720   8.322  15.933  0.00  0.00    +0.000 OA
ATOM     23  H   UNL     1      46.613   8.874  15.774  0.00  0.00    +0.000 HD
BRANCH  21  24
ATOM     24  C   UNL     1      48.254   8.670  17.746  0.00  0.00    +0.000 A 
ATOM     25  C   UNL     1      48.202   9.913  18.363  0.00  0.00    +0.000 A 
ATOM     26  S   UNL     1      47.753   9.843  20.007  0.00  0.00    +0.000 S 
ATOM     27  C   UNL     1      47.661   8.144  19.966  0.00  0.00    +0.000 A 
ATOM     28  N   UNL     1      47.338   7.434  21.081  0.00  0.00    +0.000 NA
ATOM     29  C   UNL     1      47.339   6.154  20.916  0.00  0.00    +0.000 A 
ATOM     30  N   UNL     1      47.628   5.518  19.736  0.00  0.00    +0.000 N 
ATOM     31  C   UNL     1      47.921   6.194  18.576  0.00  0.00    +0.000 A 
ATOM     32  O   UNL     1      48.118   5.599  17.524  0.00  0.00    +0.000 OA
ATOM     33  C   UNL     1      47.951   7.640  18.710  0.00  0.00    +0.000 A 
ATOM     34  H   UNL     1      47.600   4.511  19.672  0.00  0.00    +0.000 HD
ENDBRANCH  21  24
ENDBRANCH  19  20
ENDBRANCH   5  19
TORSDOF 7
ENDMDL
MODEL 4
REMARK VINA RESULT:    -7.477      2.394      3.040
REMARK INTER + INTRA:         -11.225
REMARK INTER:                 -11.700
REMARK INTRA:                   0.476
REMARK UNBOUND:                -0.688
REMARK  Name = 
REMARK  7 active torsions:
REMARK  status: ('A' for Active; 'I' for Inactive)
REMARK    1  A    between atoms: C_2  and  C_3
REMARK    2  A    between atoms: C_3  and  C_4
REMARK    3  A    between atoms: C_3  and  N_11
REMARK    4  A    between atoms: C_4  and  C_5
REMARK    5  A    between atoms: C_15  and  C_16
REMARK    6  A    between atoms: C_16  and  N_17
REMARK    7  A    between atoms: C_18  and  C_20
REMARK                            x       y       z     vdW  Elec       q    Type
REMARK                         _______ _______ _______ _____ _____    ______ ____
ROOT
ATOM      1  N   UNL     1      43.589   5.757  10.405  0.00  0.00    +0.000 N 
ATOM      2  C   UNL     1      44.570   6.442  11.144  0.00  0.00    +0.000 A 
ATOM      3  C   UNL     1      44.301   7.750  11.537  0.00  0.00    +0.000 A 
ATOM      4  C   UNL     1      45.239   8.449  12.297  0.00  0.00    +0.000 A 
ATOM      5  C   UNL     1      46.438   7.832  12.643  0.00  0.00    +0.000 A 
ATOM      6  C   UNL     1      46.627   6.530  12.202  0.00  0.00    +0.000 A 
ATOM      7  N   UNL     1      45.730   5.837  11.461  0.00  0.00    +0.000 NA
ATOM      8  H   UNL     1      42.728   5.779  10.945  0.00  0.00    +0.000 HD
ENDROOT
BRANCH   1   9
ATOM      9  C   UNL     1      43.961   4.379  10.022  0.00  0.00    +0.000 C 
BRANCH   9  11
ATOM     10  N   UNL     1      43.619   2.730  12.073  0.00  0.00    +0.000 NA
ATOM     11  C   UNL     1      43.775   3.425  11.151  0.00  0.00    +0.000 C 
ENDBRANCH   9  11
BRANCH   9  12
ATOM     12  C   UNL     1      45.454   4.347   9.617  0.00  0.00    +0.000 C 
BRANCH  12  13
ATOM     13  C   UNL     1      45.831   3.359   8.529  0.00  0.00    +0.000 A 
ATOM     14  C   UNL     1      46.305   3.821   7.293  0.00  0.00    +0.000 A 
ATOM     15  C   UNL     1      46.824   2.932   6.350  0.00  0.00    +0.000 A 
ATOM     16  C   UNL     1      46.864   1.567   6.626  0.00  0.00    +0.000 A 
ATOM     17  C   UNL     1      46.352   1.089   7.829  0.00  0.00    +0.000 A 
ATOM     18  C   UNL     1      45.836   1.977   8.776  0.00  0.00    +0.000 A 
ENDBRANCH  12  13
ENDBRANCH   9  12
ENDBRANCH   1   9
BRANCH   5  19
ATOM     19  C   UNL     1      47.458   8.505  13.512  0.00  0.00    +0.000 C 
BRANCH  19  20
ATOM     20  N   UNL     1      47.731   7.707  14.681  0.00  0.00    +0.000 N 
ATOM     21  C   UNL     1      48.916   7.032  14.829  0.00  0.00    +0.000 C 
ATOM     22  O   UNL     1      49.813   7.109  13.994  0.00  0.00    +0.000 OA
ATOM     23  H   UNL     1      46.942   7.453  15.267  0.00  0.00    +0.000 HD
BRANCH  21  24
ATOM     24  C   UNL     1      49.079   6.268  16.071  0.00  0.00    +0.000 A 
ATOM     25  C   UNL     1      50.048   6.653  16.988  0.00  0.00    +0.000 A 
ATOM     26  S   UNL     1      50.074   5.695  18.399  0.00  0.00    +0.000 S 
ATOM     27  C   UNL     1      48.825   4.700  17.812  0.00  0.00    +0.000 A 
ATOM     28  N   UNL     1      48.371   3.644  18.541  0.00  0.00    +0.000 NA
ATOM     29  C   UNL     1      47.447   2.954  17.961  0.00  0.00    +0.000 A 
ATOM     30  N   UNL     1      46.931   3.227  16.719  0.00  0.00    +0.000 N 
ATOM     31  C   UNL     1      47.330   4.303  15.965  0.00  0.00    +0.000 A 
ATOM     32  O   UNL     1      46.808   4.554  14.885  0.00  0.00    +0.000 OA
ATOM     33  C   UNL     1      48.383   5.104  16.564  0.00  0.00    +0.000 A 
ATOM     34  H   UNL     1      46.199   2.652  16.327  0.00  0.00    +0.000 HD
ENDBRANCH  21  24
ENDBRANCH  19  20
ENDBRANCH   5  19
TORSDOF 7
ENDMDL
MODEL 5
REMARK VINA RESULT:    -7.323      3.692      8.943
REMARK INTER + INTRA:         -11.008
REMARK INTER:                  -9.708
REMARK INTRA:                  -1.300
REMARK UNBOUND:                -0.688
REMARK  Name = 
REMARK  7 active torsions:
REMARK  status: ('A' for Active; 'I' for Inactive)
REMARK    1  A    between atoms: C_2  and  C_3
REMARK    2  A    between atoms: C_3  and  C_4
REMARK    3  A    between atoms: C_3  and  N_11
REMARK    4  A    between atoms: C_4  and  C_5
REMARK    5  A    between atoms: C_15  and  C_16
REMARK    6  A    between atoms: C_16  and  N_17
REMARK    7  A    between atoms: C_18  and  C_20
REMARK                            x       y       z     vdW  Elec       q    Type
REMARK                         _______ _______ _______ _____ _____    ______ ____
ROOT
ATOM      1  N   UNL     1      50.947   7.428  16.560  0.00  0.00    +0.000 N 
ATOM      2  C   UNL     1      50.157   7.563  15.405  0.00  0.00    +0.000 A 
ATOM      3  C   UNL     1      50.763   8.045  14.248  0.00  0.00    +0.000 A 
ATOM      4  C   UNL     1      50.017   8.163  13.076  0.00  0.00    +0.000 A 
ATOM      5  C   UNL     1      48.671   7.808  13.081  0.00  0.00    +0.000 A 
ATOM      6  C   UNL     1      48.146   7.345  14.280  0.00  0.00    +0.000 A 
ATOM      7  N   UNL     1      48.854   7.227  15.428  0.00  0.00    +0.000 NA
ATOM      8  H   UNL     1      51.740   6.839  16.322  0.00  0.00    +0.000 HD
ENDROOT
BRANCH   1   9
ATOM      9  C   UNL     1      50.222   6.919  17.743  0.00  0.00    +0.000 C 
BRANCH   9  11
ATOM     10  N   UNL     1      50.259   8.612  19.787  0.00  0.00    +0.000 NA
ATOM     11  C   UNL     1      50.252   7.896  18.868  0.00  0.00    +0.000 C 
ENDBRANCH   9  11
BRANCH   9  12
ATOM     12  C   UNL     1      50.894   5.614  18.231  0.00  0.00    +0.000 C 
BRANCH  12  13
ATOM     13  C   UNL     1      50.248   4.318  17.775  0.00  0.00    +0.000 A 
ATOM     14  C   UNL     1      48.898   4.301  17.398  0.00  0.00    +0.000 A 
ATOM     15  C   UNL     1      48.336   3.167  16.810  0.00  0.00    +0.000 A 
ATOM     16  C   UNL     1      49.115   2.031  16.602  0.00  0.00    +0.000 A 
ATOM     17  C   UNL     1      50.444   2.017  17.015  0.00  0.00    +0.000 A 
ATOM     18  C   UNL     1      51.010   3.153  17.601  0.00  0.00    +0.000 A 
ENDBRANCH  12  13
ENDBRANCH   9  12
ENDBRANCH   1   9
BRANCH   5  19
ATOM     19  C   UNL     1      47.831   7.849  11.839  0.00  0.00    +0.000 C 
BRANCH  19  20
ATOM     20  N   UNL     1      47.079   6.627  11.696  0.00  0.00    +0.000 N 
ATOM     21  C   UNL     1      45.708   6.619  11.740  0.00  0.00    +0.000 C 
ATOM     22  O   UNL     1      45.058   7.655  11.860  0.00  0.00    +0.000 OA
ATOM     23  H   UNL     1      47.582   5.754  11.817  0.00  0.00    +0.000 HD
BRANCH  21  24
ATOM     24  C   UNL     1      45.058   5.315  11.567  0.00  0.00    +0.000 A 
ATOM     25  C   UNL     1      44.371   4.747  12.631  0.00  0.00    +0.000 A 
ATOM     26  S   UNL     1      43.630   3.259  12.251  0.00  0.00    +0.000 S 
ATOM     27  C   UNL     1      44.244   3.296  10.665  0.00  0.00    +0.000 A 
ATOM     28  N   UNL     1      43.994   2.280   9.794  0.00  0.00    +0.000 NA
ATOM     29  C   UNL     1      44.549   2.421   8.637  0.00  0.00    +0.000 A 
ATOM     30  N   UNL     1      45.329   3.488   8.270  0.00  0.00    +0.000 N 
ATOM     31  C   UNL     1      45.577   4.553   9.101  0.00  0.00    +0.000 A 
ATOM     32  O   UNL     1      46.231   5.518   8.723  0.00  0.00    +0.000 OA
ATOM     33  C   UNL     1      44.990   4.437  10.424  0.00  0.00    +0.000 A 
ATOM     34  H   UNL     1      45.726   3.541   7.343  0.00  0.00    +0.000 HD
ENDBRANCH  21  24
ENDBRANCH  19  20
ENDBRANCH   5  19
TORSDOF 7
ENDMDL
MODEL 6
REMARK VINA RESULT:    -6.652      2.805      3.793
REMARK INTER + INTRA:         -10.063
REMARK INTER:                 -10.448
REMARK INTRA:                   0.386
REMARK UNBOUND:                -0.688
REMARK  Name = 
REMARK  7 active torsions:
REMARK  status: ('A' for Active; 'I' for Inactive)
REMARK    1  A    between atoms: C_2  and  C_3
REMARK    2  A    between atoms: C_3  and  C_4
REMARK    3  A    between atoms: C_3  and  N_11
REMARK    4  A    between atoms: C_4  and  C_5
REMARK    5  A    between atoms: C_15  and  C_16
REMARK    6  A    between atoms: C_16  and  N_17
REMARK    7  A    between atoms: C_18  and  C_20
REMARK                            x       y       z     vdW  Elec       q    Type
REMARK                         _______ _______ _______ _____ _____    ______ ____
ROOT
ATOM      1  N   UNL     1      43.810   5.288  10.497  0.00  0.00    +0.000 N 
ATOM      2  C   UNL     1      44.794   5.949  11.252  0.00  0.00    +0.000 A 
ATOM      3  C   UNL     1      44.671   7.325  11.431  0.00  0.00    +0.000 A 
ATOM      4  C   UNL     1      45.612   8.007  12.200  0.00  0.00    +0.000 A 
ATOM      5  C   UNL     1      46.672   7.306  12.770  0.00  0.00    +0.000 A 
ATOM      6  C   UNL     1      46.721   5.939  12.534  0.00  0.00    +0.000 A 
ATOM      7  N   UNL     1      45.819   5.259  11.788  0.00  0.00    +0.000 NA
ATOM      8  H   UNL     1      42.909   5.496  10.919  0.00  0.00    +0.000 HD
ENDROOT
BRANCH   1   9
ATOM      9  C   UNL     1      44.023   3.833  10.350  0.00  0.00    +0.000 C 
BRANCH   9  11
ATOM     10  N   UNL     1      43.316   2.557  12.567  0.00  0.00    +0.000 NA
ATOM     11  C   UNL     1      43.656   3.096  11.592  0.00  0.00    +0.000 C 
ENDBRANCH   9  11
BRANCH   9  12
ATOM     12  C   UNL     1      45.520   3.564  10.065  0.00  0.00    +0.000 C 
BRANCH  12  13
ATOM     13  C   UNL     1      45.854   3.046   8.678  0.00  0.00    +0.000 A 
ATOM     14  C   UNL     1      46.041   3.945   7.619  0.00  0.00    +0.000 A 
ATOM     15  C   UNL     1      46.522   3.504   6.385  0.00  0.00    +0.000 A 
ATOM     16  C   UNL     1      46.810   2.155   6.191  0.00  0.00    +0.000 A 
ATOM     17  C   UNL     1      46.583   1.243   7.218  0.00  0.00    +0.000 A 
ATOM     18  C   UNL     1      46.105   1.683   8.456  0.00  0.00    +0.000 A 
ENDBRANCH  12  13
ENDBRANCH   9  12
ENDBRANCH   1   9
BRANCH   5  19
ATOM     19  C   UNL     1      47.679   7.970  13.661  0.00  0.00    +0.000 C 
BRANCH  19  20
ATOM     20  N   UNL     1      47.706   7.335  14.955  0.00  0.00    +0.000 N 
ATOM     21  C   UNL     1      48.849   6.759  15.447  0.00  0.00    +0.000 C 
ATOM     22  O   UNL     1      49.910   6.793  14.830  0.00  0.00    +0.000 OA
ATOM     23  H   UNL     1      46.814   7.102  15.378  0.00  0.00    +0.000 HD
BRANCH  21  24
ATOM     24  C   UNL     1      48.752   6.159  16.783  0.00  0.00    +0.000 A 
ATOM     25  C   UNL     1      49.022   4.807  16.947  0.00  0.00    +0.000 A 
ATOM     26  S   UNL     1      48.917   4.279  18.565  0.00  0.00    +0.000 S 
ATOM     27  C   UNL     1      48.457   5.828  19.098  0.00  0.00    +0.000 A 
ATOM     28  N   UNL     1      48.185   6.063  20.410  0.00  0.00    +0.000 NA
ATOM     29  C   UNL     1      47.814   7.272  20.669  0.00  0.00    +0.000 A 
ATOM     30  N   UNL     1      47.695   8.270  19.734  0.00  0.00    +0.000 N 
ATOM     31  C   UNL     1      47.996   8.088  18.407  0.00  0.00    +0.000 A 
ATOM     32  O   UNL     1      47.935   9.015  17.607  0.00  0.00    +0.000 OA
ATOM     33  C   UNL     1      48.402   6.739  18.057  0.00  0.00    +0.000 A 
ATOM     34  H   UNL     1      47.409   9.199  20.006  0.00  0.00    +0.000 HD
ENDBRANCH  21  24
ENDBRANCH  19  20
ENDBRANCH   5  19
TORSDOF 7
ENDMDL
MODEL 7
REMARK VINA RESULT:    -6.636      4.171      5.424
REMARK INTER + INTRA:         -10.040
REMARK INTER:                  -9.463
REMARK INTRA:                  -0.577
REMARK UNBOUND:                -0.688
REMARK  Name = 
REMARK  7 active torsions:
REMARK  status: ('A' for Active; 'I' for Inactive)
REMARK    1  A    between atoms: C_2  and  C_3
REMARK    2  A    between atoms: C_3  and  C_4
REMARK    3  A    between atoms: C_3  and  N_11
REMARK    4  A    between atoms: C_4  and  C_5
REMARK    5  A    between atoms: C_15  and  C_16
REMARK    6  A    between atoms: C_16  and  N_17
REMARK    7  A    between atoms: C_18  and  C_20
REMARK                            x       y       z     vdW  Elec       q    Type
REMARK                         _______ _______ _______ _____ _____    ______ ____
ROOT
ATOM      1  N   UNL     1      45.505   4.210  11.576  0.00  0.00    +0.000 N 
ATOM      2  C   UNL     1      45.889   5.437  12.144  0.00  0.00    +0.000 A 
ATOM      3  C   UNL     1      47.188   5.556  12.633  0.00  0.00    +0.000 A 
ATOM      4  C   UNL     1      47.612   6.769  13.175  0.00  0.00    +0.000 A 
ATOM      5  C   UNL     1      46.728   7.843  13.231  0.00  0.00    +0.000 A 
ATOM      6  C   UNL     1      45.451   7.633  12.728  0.00  0.00    +0.000 A 
ATOM      7  N   UNL     1      45.019   6.463  12.201  0.00  0.00    +0.000 NA
ATOM      8  H   UNL     1      46.168   3.993  10.837  0.00  0.00    +0.000 HD
ENDROOT
BRANCH   1   9
ATOM      9  C   UNL     1      44.110   4.169  11.091  0.00  0.00    +0.000 C 
BRANCH   9  11
ATOM     10  N   UNL     1      42.861   1.915  11.729  0.00  0.00    +0.000 NA
ATOM     11  C   UNL     1      43.441   2.887  11.450  0.00  0.00    +0.000 C 
ENDBRANCH   9  11
BRANCH   9  12
ATOM     12  C   UNL     1      44.102   4.290   9.549  0.00  0.00    +0.000 C 
BRANCH  12  13
ATOM     13  C   UNL     1      45.209   3.556   8.814  0.00  0.00    +0.000 A 
ATOM     14  C   UNL     1      45.335   2.166   8.942  0.00  0.00    +0.000 A 
ATOM     15  C   UNL     1      46.228   1.453   8.140  0.00  0.00    +0.000 A 
ATOM     16  C   UNL     1      47.016   2.125   7.207  0.00  0.00    +0.000 A 
ATOM     17  C   UNL     1      46.937   3.511   7.104  0.00  0.00    +0.000 A 
ATOM     18  C   UNL     1      46.041   4.226   7.903  0.00  0.00    +0.000 A 
ENDBRANCH  12  13
ENDBRANCH   9  12
ENDBRANCH   1   9
BRANCH   5  19
ATOM     19  C   UNL     1      47.142   9.191  13.741  0.00  0.00    +0.000 C 
BRANCH  19  20
ATOM     20  N   UNL     1      47.418   9.133  15.155  0.00  0.00    +0.000 N 
ATOM     21  C   UNL     1      48.542   9.708  15.690  0.00  0.00    +0.000 C 
ATOM     22  O   UNL     1      49.343  10.333  14.998  0.00  0.00    +0.000 OA
ATOM     23  H   UNL     1      46.904   8.451  15.703  0.00  0.00    +0.000 HD
BRANCH  21  24
ATOM     24  C   UNL     1      48.702   9.595  17.145  0.00  0.00    +0.000 A 
ATOM     25  C   UNL     1      48.928   8.348  17.713  0.00  0.00    +0.000 A 
ATOM     26  S   UNL     1      49.145   8.396  19.404  0.00  0.00    +0.000 S 
ATOM     27  C   UNL     1      48.893  10.079  19.443  0.00  0.00    +0.000 A 
ATOM     28  N   UNL     1      48.922  10.762  20.620  0.00  0.00    +0.000 NA
ATOM     29  C   UNL     1      48.681  12.025  20.508  0.00  0.00    +0.000 A 
ATOM     30  N   UNL     1      48.418  12.669  19.325  0.00  0.00    +0.000 N 
ATOM     31  C   UNL     1      48.417  12.027  18.110  0.00  0.00    +0.000 A 
ATOM     32  O   UNL     1      48.235  12.641  17.065  0.00  0.00    +0.000 OA
ATOM     33  C   UNL     1      48.665  10.598  18.181  0.00  0.00    +0.000 A 
ATOM     34  H   UNL     1      48.248  13.664  19.306  0.00  0.00    +0.000 HD
ENDBRANCH  21  24
ENDBRANCH  19  20
ENDBRANCH   5  19
TORSDOF 7
ENDMDL
MODEL 8
REMARK VINA RESULT:    -6.514      2.745      3.322
REMARK INTER + INTRA:          -9.868
REMARK INTER:                  -9.241
REMARK INTRA:                  -0.627
REMARK UNBOUND:                -0.688
REMARK  Name = 
REMARK  7 active torsions:
REMARK  status: ('A' for Active; 'I' for Inactive)
REMARK    1  A    between atoms: C_2  and  C_3
REMARK    2  A    between atoms: C_3  and  C_4
REMARK    3  A    between atoms: C_3  and  N_11
REMARK    4  A    between atoms: C_4  and  C_5
REMARK    5  A    between atoms: C_15  and  C_16
REMARK    6  A    between atoms: C_16  and  N_17
REMARK    7  A    between atoms: C_18  and  C_20
REMARK                            x       y       z     vdW  Elec       q    Type
REMARK                         _______ _______ _______ _____ _____    ______ ____
ROOT
ATOM      1  N   UNL     1      46.191   5.949  10.814  0.00  0.00    +0.000 N 
ATOM      2  C   UNL     1      46.792   6.824  11.736  0.00  0.00    +0.000 A 
ATOM      3  C   UNL     1      48.059   7.320  11.439  0.00  0.00    +0.000 A 
ATOM      4  C   UNL     1      48.673   8.214  12.315  0.00  0.00    +0.000 A 
ATOM      5  C   UNL     1      48.015   8.590  13.483  0.00  0.00    +0.000 A 
ATOM      6  C   UNL     1      46.759   8.042  13.703  0.00  0.00    +0.000 A 
ATOM      7  N   UNL     1      46.148   7.170  12.866  0.00  0.00    +0.000 NA
ATOM      8  H   UNL     1      46.169   6.420   9.913  0.00  0.00    +0.000 HD
ENDROOT
BRANCH   1   9
ATOM      9  C   UNL     1      44.852   5.464  11.212  0.00  0.00    +0.000 C 
BRANCH   9  11
ATOM     10  N   UNL     1      44.963   3.694  13.186  0.00  0.00    +0.000 NA
ATOM     11  C   UNL     1      44.932   4.495  12.340  0.00  0.00    +0.000 C 
ENDBRANCH   9  11
BRANCH   9  12
ATOM     12  C   UNL     1      44.194   4.743  10.013  0.00  0.00    +0.000 C 
BRANCH  12  13
ATOM     13  C   UNL     1      45.107   3.865   9.176  0.00  0.00    +0.000 A 
ATOM     14  C   UNL     1      45.125   2.477   9.378  0.00  0.00    +0.000 A 
ATOM     15  C   UNL     1      45.820   1.639   8.504  0.00  0.00    +0.000 A 
ATOM     16  C   UNL     1      46.515   2.179   7.424  0.00  0.00    +0.000 A 
ATOM     17  C   UNL     1      46.546   3.558   7.241  0.00  0.00    +0.000 A 
ATOM     18  C   UNL     1      45.849   4.400   8.112  0.00  0.00    +0.000 A 
ENDBRANCH  12  13
ENDBRANCH   9  12
ENDBRANCH   1   9
BRANCH   5  19
ATOM     19  C   UNL     1      48.592   9.597  14.433  0.00  0.00    +0.000 C 
BRANCH  19  20
ATOM     20  N   UNL     1      48.786   9.010  15.735  0.00  0.00    +0.000 N 
ATOM     21  C   UNL     1      49.998   8.491  16.115  0.00  0.00    +0.000 C 
ATOM     22  O   UNL     1      50.982   8.540  15.382  0.00  0.00    +0.000 OA
ATOM     23  H   UNL     1      47.955   8.761  16.263  0.00  0.00    +0.000 HD
BRANCH  21  24
ATOM     24  C   UNL     1      50.072   7.936  17.472  0.00  0.00    +0.000 A 
ATOM     25  C   UNL     1      50.839   8.581  18.433  0.00  0.00    +0.000 A 
ATOM     26  S   UNL     1      50.777   7.839  19.968  0.00  0.00    +0.000 S 
ATOM     27  C   UNL     1      49.765   6.600  19.389  0.00  0.00    +0.000 A 
ATOM     28  N   UNL     1      49.347   5.598  20.209  0.00  0.00    +0.000 NA
ATOM     29  C   UNL     1      48.613   4.707  19.631  0.00  0.00    +0.000 A 
ATOM     30  N   UNL     1      48.254   4.730  18.307  0.00  0.00    +0.000 N 
ATOM     31  C   UNL     1      48.621   5.740  17.452  0.00  0.00    +0.000 A 
ATOM     32  O   UNL     1      48.236   5.761  16.288  0.00  0.00    +0.000 OA
ATOM     33  C   UNL     1      49.464   6.761  18.047  0.00  0.00    +0.000 A 
ATOM     34  H   UNL     1      47.667   4.005  17.920  0.00  0.00    +0.000 HD
ENDBRANCH  21  24
ENDBRANCH  19  20
ENDBRANCH   5  19
TORSDOF 7
ENDMDL
MODEL 9
REMARK VINA RESULT:    -6.054      4.643     10.175
REMARK INTER + INTRA:          -9.220
REMARK INTER:                  -8.240
REMARK INTRA:                  -0.979
REMARK UNBOUND:                -0.688
REMARK  Name = 
REMARK  7 active torsions:
REMARK  status: ('A' for Active; 'I' for Inactive)
REMARK    1  A    between atoms: C_2  and  C_3
REMARK    2  A    between atoms: C_3  and  C_4
REMARK    3  A    between atoms: C_3  and  N_11
REMARK    4  A    between atoms: C_4  and  C_5
REMARK    5  A    between atoms: C_15  and  C_16
REMARK    6  A    between atoms: C_16  and  N_17
REMARK    7  A    between atoms: C_18  and  C_20
REMARK                            x       y       z     vdW  Elec       q    Type
REMARK                         _______ _______ _______ _____ _____    ______ ____
ROOT
ATOM      1  N   UNL     1      48.630  10.388  19.749  0.00  0.00    +0.000 N 
ATOM      2  C   UNL     1      48.696   9.433  18.719  0.00  0.00    +0.000 A 
ATOM      3  C   UNL     1      49.522   9.700  17.630  0.00  0.00    +0.000 A 
ATOM      4  C   UNL     1      49.636   8.761  16.605  0.00  0.00    +0.000 A 
ATOM      5  C   UNL     1      48.913   7.574  16.678  0.00  0.00    +0.000 A 
ATOM      6  C   UNL     1      48.108   7.395  17.795  0.00  0.00    +0.000 A 
ATOM      7  N   UNL     1      47.982   8.295  18.799  0.00  0.00    +0.000 NA
ATOM      8  H   UNL     1      49.578  10.555  20.075  0.00  0.00    +0.000 HD
ENDROOT
BRANCH   1   9
ATOM      9  C   UNL     1      47.723  10.030  20.860  0.00  0.00    +0.000 C 
BRANCH   9  11
ATOM     10  N   UNL     1      46.397  12.120  21.818  0.00  0.00    +0.000 NA
ATOM     11  C   UNL     1      46.976  11.215  21.364  0.00  0.00    +0.000 C 
ENDBRANCH   9  11
BRANCH   9  12
ATOM     12  C   UNL     1      48.555   9.460  22.033  0.00  0.00    +0.000 C 
BRANCH  12  13
ATOM     13  C   UNL     1      48.613   7.947  22.140  0.00  0.00    +0.000 A 
ATOM     14  C   UNL     1      47.427   7.202  22.197  0.00  0.00    +0.000 A 
ATOM     15  C   UNL     1      47.455   5.808  22.115  0.00  0.00    +0.000 A 
ATOM     16  C   UNL     1      48.672   5.142  21.988  0.00  0.00    +0.000 A 
ATOM     17  C   UNL     1      49.861   5.867  21.980  0.00  0.00    +0.000 A 
ATOM     18  C   UNL     1      49.835   7.262  22.058  0.00  0.00    +0.000 A 
ENDBRANCH  12  13
ENDBRANCH   9  12
ENDBRANCH   1   9
BRANCH   5  19
ATOM     19  C   UNL     1      49.042   6.497  15.643  0.00  0.00    +0.000 C 
BRANCH  19  20
ATOM     20  N   UNL     1      47.828   6.388  14.873  0.00  0.00    +0.000 N 
ATOM     21  C   UNL     1      47.853   6.216  13.513  0.00  0.00    +0.000 C 
ATOM     22  O   UNL     1      48.908   6.107  12.894  0.00  0.00    +0.000 OA
ATOM     23  H   UNL     1      46.966   6.691  15.316  0.00  0.00    +0.000 HD
BRANCH  21  24
ATOM     24  C   UNL     1      46.551   6.103  12.846  0.00  0.00    +0.000 A 
ATOM     25  C   UNL     1      45.936   7.244  12.348  0.00  0.00    +0.000 A 
ATOM     26  S   UNL     1      44.457   6.934  11.557  0.00  0.00    +0.000 S 
ATOM     27  C   UNL     1      44.562   5.270  11.895  0.00  0.00    +0.000 A 
ATOM     28  N   UNL     1      43.579   4.414  11.504  0.00  0.00    +0.000 NA
ATOM     29  C   UNL     1      43.769   3.187  11.857  0.00  0.00    +0.000 A 
ATOM     30  N   UNL     1      44.857   2.736  12.562  0.00  0.00    +0.000 N 
ATOM     31  C   UNL     1      45.890   3.556  12.944  0.00  0.00    +0.000 A 
ATOM     32  O   UNL     1      46.875   3.113  13.522  0.00  0.00    +0.000 OA
ATOM     33  C   UNL     1      45.718   4.953  12.587  0.00  0.00    +0.000 A 
ATOM     34  H   UNL     1      44.950   1.759  12.797  0.00  0.00    +0.000 HD
ENDBRANCH  21  24
ENDBRANCH  19  20
ENDBRANCH   5  19
TORSDOF 7
ENDMDL
