MODEL 1
REMARK VINA RESULT:    -7.660      0.000      0.000
REMARK INTER + INTRA:         -11.956
REMARK INTER:                 -10.795
REMARK INTRA:                  -1.161
REMARK UNBOUND:                -1.161
REMARK  Name = 
REMARK  9 active torsions:
REMARK  status: ('A' for Active; 'I' for Inactive)
REMARK    1  A    between atoms: C_1  and  C_2
REMARK    2  A    between atoms: C_2  and  C_3
REMARK    3  A    between atoms: C_2  and  C_4
REMARK    4  A    between atoms: C_8  and  C_9
REMARK    5  A    between atoms: C_9  and  O_10
REMARK    6  A    between atoms: O_10  and  C_11
REMARK    7  A    between atoms: C_14  and  C_15
REMARK    8  A    between atoms: C_15  and  N_16
REMARK    9  A    between atoms: C_17  and  C_19
REMARK                            x       y       z     vdW  Elec       q    Type
REMARK                         _______ _______ _______ _____ _____    ______ ____
ROOT
ATOM      1  C   UNL     1      45.124   4.148  12.062  0.00  0.00    +0.000 A 
ATOM      2  C   UNL     1      44.528   5.405  12.030  0.00  0.00    +0.000 A 
ATOM      3  C   UNL     1      45.222   6.512  12.513  0.00  0.00    +0.000 A 
ATOM      4  C   UNL     1      46.493   6.331  13.047  0.00  0.00    +0.000 A 
ATOM      5  N   UNL     1      47.099   5.117  13.087  0.00  0.00    +0.000 NA
ATOM      6  C   UNL     1      46.400   4.061  12.602  0.00  0.00    +0.000 A 
ENDROOT
BRANCH   1   7
ATOM      7  O   UNL     1      44.546   2.981  11.648  0.00  0.00    +0.000 OA
BRANCH   7   8
ATOM      8  C   UNL     1      43.953   3.029  10.351  0.00  0.00    +0.000 C 
BRANCH   8  13
ATOM      9  C   UNL     1      46.583   2.112   7.735  0.00  0.00    +0.000 A 
ATOM     10  C   UNL     1      46.849   3.377   7.190  0.00  0.00    +0.000 A 
ATOM     11  C   UNL     1      46.235   4.521   7.701  0.00  0.00    +0.000 A 
ATOM     12  C   UNL     1      45.327   4.418   8.751  0.00  0.00    +0.000 A 
ATOM     13  C   UNL     1      45.024   3.167   9.298  0.00  0.00    +0.000 A 
ATOM     14  C   UNL     1      45.669   2.023   8.796  0.00  0.00    +0.000 A 
BRANCH   9  16
ATOM     15  C   UNL     1      46.623  -0.409   7.649  0.00  0.00    +0.000 C 
ATOM     16  C   UNL     1      47.277   0.887   7.165  0.00  0.00    +0.000 C 
ATOM     17  C   UNL     1      47.346   0.918   5.636  0.00  0.00    +0.000 C 
ENDBRANCH   9  16
ENDBRANCH   8  13
ENDBRANCH   7   8
ENDBRANCH   1   7
BRANCH   4  18
ATOM     18  C   UNL     1      47.252   7.512  13.596  0.00  0.00    +0.000 C 
BRANCH  18  19
ATOM     19  N   UNL     1      47.769   7.257  14.918  0.00  0.00    +0.000 N 
ATOM     20  C   UNL     1      49.087   6.999  15.179  0.00  0.00    +0.000 C 
ATOM     21  O   UNL     1      49.940   6.968  14.296  0.00  0.00    +0.000 OA
ATOM     22  H   UNL     1      47.065   7.008  15.606  0.00  0.00    +0.000 HD
BRANCH  20  23
ATOM     23  C   UNL     1      49.434   6.844  16.597  0.00  0.00    +0.000 A 
ATOM     24  C   UNL     1      50.284   7.756  17.209  0.00  0.00    +0.000 A 
ATOM     25  S   UNL     1      50.511   7.464  18.877  0.00  0.00    +0.000 S 
ATOM     26  C   UNL     1      49.520   6.081  18.827  0.00  0.00    +0.000 A 
ATOM     27  N   UNL     1      49.299   5.337  19.944  0.00  0.00    +0.000 NA
ATOM     28  C   UNL     1      48.545   4.302  19.756  0.00  0.00    +0.000 A 
ATOM     29  N   UNL     1      47.993   3.950  18.555  0.00  0.00    +0.000 N 
ATOM     30  C   UNL     1      48.160   4.692  17.411  0.00  0.00    +0.000 A 
ATOM     31  O   UNL     1      47.592   4.378  16.368  0.00  0.00    +0.000 OA
ATOM     32  C   UNL     1      49.011   5.855  17.561  0.00  0.00    +0.000 A 
ATOM     33  H   UNL     1      47.401   3.136  18.473  0.00  0.00    +0.000 HD
ENDBRANCH  20  23
ENDBRANCH  18  19
ENDBRANCH   4  18
TORSDOF 7
ENDMDL
MODEL 2
REMARK VINA RESULT:    -7.464      4.043      4.878
REMARK INTER + INTRA:         -11.679
REMARK INTER:                 -10.537
REMARK INTRA:                  -1.142
REMARK UNBOUND:                -1.161
REMARK  Name = 
REMARK  9 active torsions:
REMARK  status: ('A' for Active; 'I' for Inactive)
REMARK    1  A    between atoms: C_1  and  C_2
REMARK    2  A    between atoms: C_2  and  C_3
REMARK    3  A    between atoms: C_2  and  C_4
REMARK    4  A    between atoms: C_8  and  C_9
REMARK    5  A    between atoms: C_9  and  O_10
REMARK    6  A    between atoms: O_10  and  C_11
REMARK    7  A    between atoms: C_14  and  C_15
REMARK    8  A    between atoms: C_15  and  N_16
REMARK    9  A    between atoms: C_17  and  C_19
REMARK                            x       y       z     vdW  Elec       q    Type
REMARK                         _______ _______ _______ _____ _____    ______ ____
ROOT
ATOM      1  C   UNL     1      44.859   4.353  11.934  0.00  0.00    +0.000 A 
ATOM      2  C   UNL     1      46.034   4.741  12.570  0.00  0.00    +0.000 A 
ATOM      3  C   UNL     1      46.231   6.080  12.902  0.00  0.00    +0.000 A 
ATOM      4  C   UNL     1      45.254   7.009  12.564  0.00  0.00    +0.000 A 
ATOM      5  N   UNL     1      44.097   6.656  11.948  0.00  0.00    +0.000 NA
ATOM      6  C   UNL     1      43.933   5.345  11.645  0.00  0.00    +0.000 A 
ENDROOT
BRANCH   1   7
ATOM      7  O   UNL     1      44.553   3.083  11.530  0.00  0.00    +0.000 OA
BRANCH   7   8
ATOM      8  C   UNL     1      43.986   2.987  10.224  0.00  0.00    +0.000 C 
BRANCH   8  13
ATOM      9  C   UNL     1      46.624   2.016   7.636  0.00  0.00    +0.000 A 
ATOM     10  C   UNL     1      46.916   3.273   7.088  0.00  0.00    +0.000 A 
ATOM     11  C   UNL     1      46.317   4.429   7.589  0.00  0.00    +0.000 A 
ATOM     12  C   UNL     1      45.398   4.346   8.632  0.00  0.00    +0.000 A 
ATOM     13  C   UNL     1      45.068   3.102   9.180  0.00  0.00    +0.000 A 
ATOM     14  C   UNL     1      45.699   1.946   8.689  0.00  0.00    +0.000 A 
BRANCH   9  16
ATOM     15  C   UNL     1      46.646  -0.507   7.590  0.00  0.00    +0.000 C 
ATOM     16  C   UNL     1      47.303   0.777   7.078  0.00  0.00    +0.000 C 
ATOM     17  C   UNL     1      47.353   0.783   5.548  0.00  0.00    +0.000 C 
ENDBRANCH   9  16
ENDBRANCH   8  13
ENDBRANCH   7   8
ENDBRANCH   1   7
BRANCH   4  18
ATOM     18  C   UNL     1      45.456   8.466  12.895  0.00  0.00    +0.000 C 
BRANCH  18  19
ATOM     19  N   UNL     1      46.636   9.005  12.264  0.00  0.00    +0.000 N 
ATOM     20  C   UNL     1      47.743   9.416  12.955  0.00  0.00    +0.000 C 
ATOM     21  O   UNL     1      47.816   9.353  14.180  0.00  0.00    +0.000 OA
ATOM     22  H   UNL     1      46.499   9.319  11.309  0.00  0.00    +0.000 HD
BRANCH  20  23
ATOM     23  C   UNL     1      48.875   9.862  12.133  0.00  0.00    +0.000 A 
ATOM     24  C   UNL     1      49.004  11.203  11.795  0.00  0.00    +0.000 A 
ATOM     25  S   UNL     1      50.420  11.547  10.905  0.00  0.00    +0.000 S 
ATOM     26  C   UNL     1      50.884   9.910  10.900  0.00  0.00    +0.000 A 
ATOM     27  N   UNL     1      52.026   9.506  10.280  0.00  0.00    +0.000 NA
ATOM     28  C   UNL     1      52.242   8.232  10.336  0.00  0.00    +0.000 A 
ATOM     29  N   UNL     1      51.422   7.330  10.957  0.00  0.00    +0.000 N 
ATOM     30  C   UNL     1      50.280   7.697  11.626  0.00  0.00    +0.000 A 
ATOM     31  O   UNL     1      49.607   6.865  12.228  0.00  0.00    +0.000 OA
ATOM     32  C   UNL     1      49.980   9.114  11.580  0.00  0.00    +0.000 A 
ATOM     33  H   UNL     1      51.651   6.347  10.978  0.00  0.00    +0.000 HD
ENDBRANCH  20  23
ENDBRANCH  18  19
ENDBRANCH   4  18
TORSDOF 7
ENDMDL
MODEL 3
REMARK VINA RESULT:    -7.348      1.957      3.113
REMARK INTER + INTRA:         -11.516
REMARK INTER:                 -10.071
REMARK INTRA:                  -1.445
REMARK UNBOUND:                -1.161
REMARK  Name = 
REMARK  9 active torsions:
REMARK  status: ('A' for Active; 'I' for Inactive)
REMARK    1  A    between atoms: C_1  and  C_2
REMARK    2  A    between atoms: C_2  and  C_3
REMARK    3  A    between atoms: C_2  and  C_4
REMARK    4  A    between atoms: C_8  and  C_9
REMARK    5  A    between atoms: C_9  and  O_10
REMARK    6  A    between atoms: O_10  and  C_11
REMARK    7  A    between atoms: C_14  and  C_15
REMARK    8  A    between atoms: C_15  and  N_16
REMARK    9  A    between atoms: C_17  and  C_19
REMARK                            x       y       z     vdW  Elec       q    Type
REMARK                         _______ _______ _______ _____ _____    ______ ____
ROOT
ATOM      1  C   UNL     1      45.313   7.484  11.673  0.00  0.00    +0.000 A 
ATOM      2  C   UNL     1      46.419   6.678  11.420  0.00  0.00    +0.000 A 
ATOM      3  C   UNL     1      47.605   6.893  12.118  0.00  0.00    +0.000 A 
ATOM      4  C   UNL     1      47.666   7.932  13.039  0.00  0.00    +0.000 A 
ATOM      5  N   UNL     1      46.601   8.730  13.309  0.00  0.00    +0.000 NA
ATOM      6  C   UNL     1      45.460   8.490  12.617  0.00  0.00    +0.000 A 
ENDROOT
BRANCH   1   7
ATOM      7  O   UNL     1      44.103   7.399  11.042  0.00  0.00    +0.000 OA
BRANCH   7   8
ATOM      8  C   UNL     1      43.132   6.591  11.706  0.00  0.00    +0.000 C 
BRANCH   8  13
ATOM      9  C   UNL     1      44.234   3.410   9.898  0.00  0.00    +0.000 A 
ATOM     10  C   UNL     1      44.069   2.467  10.922  0.00  0.00    +0.000 A 
ATOM     11  C   UNL     1      43.549   2.840  12.162  0.00  0.00    +0.000 A 
ATOM     12  C   UNL     1      43.206   4.167  12.408  0.00  0.00    +0.000 A 
ATOM     13  C   UNL     1      43.384   5.134  11.413  0.00  0.00    +0.000 A 
ATOM     14  C   UNL     1      43.880   4.744  10.156  0.00  0.00    +0.000 A 
BRANCH   9  16
ATOM     15  C   UNL     1      45.739   4.018   7.967  0.00  0.00    +0.000 C 
ATOM     16  C   UNL     1      44.790   2.972   8.554  0.00  0.00    +0.000 C 
ATOM     17  C   UNL     1      45.474   1.604   8.629  0.00  0.00    +0.000 C 
ENDBRANCH   9  16
ENDBRANCH   8  13
ENDBRANCH   7   8
ENDBRANCH   1   7
BRANCH   4  18
ATOM     18  C   UNL     1      48.947   8.195  13.790  0.00  0.00    +0.000 C 
BRANCH  18  19
ATOM     19  N   UNL     1      49.120   7.290  14.899  0.00  0.00    +0.000 N 
ATOM     20  C   UNL     1      48.820   7.613  16.194  0.00  0.00    +0.000 C 
ATOM     21  O   UNL     1      48.372   8.712  16.512  0.00  0.00    +0.000 OA
ATOM     22  H   UNL     1      49.731   6.501  14.710  0.00  0.00    +0.000 HD
BRANCH  20  23
ATOM     23  C   UNL     1      48.988   6.532  17.173  0.00  0.00    +0.000 A 
ATOM     24  C   UNL     1      49.754   6.739  18.314  0.00  0.00    +0.000 A 
ATOM     25  S   UNL     1      49.772   5.401  19.375  0.00  0.00    +0.000 S 
ATOM     26  C   UNL     1      48.797   4.483  18.324  0.00  0.00    +0.000 A 
ATOM     27  N   UNL     1      48.439   3.208  18.635  0.00  0.00    +0.000 NA
ATOM     28  C   UNL     1      47.716   2.622  17.736  0.00  0.00    +0.000 A 
ATOM     29  N   UNL     1      47.318   3.198  16.560  0.00  0.00    +0.000 N 
ATOM     30  C   UNL     1      47.625   4.494  16.223  0.00  0.00    +0.000 A 
ATOM     31  O   UNL     1      47.193   4.995  15.189  0.00  0.00    +0.000 OA
ATOM     32  C   UNL     1      48.450   5.192  17.188  0.00  0.00    +0.000 A 
ATOM     33  H   UNL     1      46.742   2.693  15.902  0.00  0.00    +0.000 HD
ENDBRANCH  20  23
ENDBRANCH  18  19
ENDBRANCH   4  18
TORSDOF 7
ENDMDL
MODEL 4
REMARK VINA RESULT:    -7.321      2.901      3.563
REMARK INTER + INTRA:         -11.478
REMARK INTER:                 -10.956
REMARK INTRA:                  -0.522
REMARK UNBOUND:                -1.161
REMARK  Name = 
REMARK  9 active torsions:
REMARK  status: ('A' for Active; 'I' for Inactive)
REMARK    1  A    between atoms: C_1  and  C_2
REMARK    2  A    between atoms: C_2  and  C_3
REMARK    3  A    between atoms: C_2  and  C_4
REMARK    4  A    between atoms: C_8  and  C_9
REMARK    5  A    between atoms: C_9  and  O_10
REMARK    6  A    between atoms: O_10  and  C_11
REMARK    7  A    between atoms: C_14  and  C_15
REMARK    8  A    between atoms: C_15  and  N_16
REMARK    9  A    between atoms: C_17  and  C_19
REMARK                            x       y       z     vdW  Elec       q    Type
REMARK                         _______ _______ _______ _____ _____    ______ ____
ROOT
ATOM      1  C   UNL     1      46.474   5.694  12.217  0.00  0.00    +0.000 A 
ATOM      2  C   UNL     1      47.449   6.331  12.978  0.00  0.00    +0.000 A 
ATOM      3  C   UNL     1      47.723   5.882  14.268  0.00  0.00    +0.000 A 
ATOM      4  C   UNL     1      46.991   4.817  14.780  0.00  0.00    +0.000 A 
ATOM      5  N   UNL     1      46.038   4.175  14.058  0.00  0.00    +0.000 NA
ATOM      6  C   UNL     1      45.800   4.632  12.804  0.00  0.00    +0.000 A 
ENDROOT
BRANCH   1   7
ATOM      7  O   UNL     1      46.089   6.050  10.955  0.00  0.00    +0.000 OA
BRANCH   7   8
ATOM      8  C   UNL     1      44.801   5.577  10.562  0.00  0.00    +0.000 C 
BRANCH   8  13
ATOM      9  C   UNL     1      46.132   3.005   8.068  0.00  0.00    +0.000 A 
ATOM     10  C   UNL     1      45.364   1.888   8.424  0.00  0.00    +0.000 A 
ATOM     11  C   UNL     1      44.384   1.977   9.413  0.00  0.00    +0.000 A 
ATOM     12  C   UNL     1      44.170   3.180  10.080  0.00  0.00    +0.000 A 
ATOM     13  C   UNL     1      44.939   4.305   9.764  0.00  0.00    +0.000 A 
ATOM     14  C   UNL     1      45.904   4.214   8.745  0.00  0.00    +0.000 A 
BRANCH   9  16
ATOM     15  C   UNL     1      47.784   1.473   6.932  0.00  0.00    +0.000 C 
ATOM     16  C   UNL     1      47.182   2.880   6.978  0.00  0.00    +0.000 C 
ATOM     17  C   UNL     1      46.641   3.281   5.603  0.00  0.00    +0.000 C 
ENDBRANCH   9  16
ENDBRANCH   8  13
ENDBRANCH   7   8
ENDBRANCH   1   7
BRANCH   4  18
ATOM     18  C   UNL     1      47.256   4.329  16.182  0.00  0.00    +0.000 C 
BRANCH  18  19
ATOM     19  N   UNL     1      48.642   4.479  16.555  0.00  0.00    +0.000 N 
ATOM     20  C   UNL     1      49.228   3.791  17.582  0.00  0.00    +0.000 C 
ATOM     21  O   UNL     1      48.611   2.982  18.270  0.00  0.00    +0.000 OA
ATOM     22  H   UNL     1      49.087   5.318  16.197  0.00  0.00    +0.000 HD
BRANCH  20  23
ATOM     23  C   UNL     1      50.667   4.019  17.757  0.00  0.00    +0.000 A 
ATOM     24  C   UNL     1      51.145   5.300  18.003  0.00  0.00    +0.000 A 
ATOM     25  S   UNL     1      52.832   5.361  18.259  0.00  0.00    +0.000 S 
ATOM     26  C   UNL     1      52.989   3.686  18.002  0.00  0.00    +0.000 A 
ATOM     27  N   UNL     1      54.204   3.077  18.066  0.00  0.00    +0.000 NA
ATOM     28  C   UNL     1      54.178   1.806  17.828  0.00  0.00    +0.000 A 
ATOM     29  N   UNL     1      53.048   1.092  17.536  0.00  0.00    +0.000 N 
ATOM     30  C   UNL     1      51.797   1.658  17.498  0.00  0.00    +0.000 A 
ATOM     31  O   UNL     1      50.800   0.969  17.299  0.00  0.00    +0.000 OA
ATOM     32  C   UNL     1      51.770   3.086  17.740  0.00  0.00    +0.000 A 
ATOM     33  H   UNL     1      53.090   0.097  17.372  0.00  0.00    +0.000 HD
ENDBRANCH  20  23
ENDBRANCH  18  19
ENDBRANCH   4  18
TORSDOF 7
ENDMDL
MODEL 5
REMARK VINA RESULT:    -7.244      2.672      3.856
REMARK INTER + INTRA:         -11.369
REMARK INTER:                 -10.217
REMARK INTRA:                  -1.152
REMARK UNBOUND:                -1.161
REMARK  Name = 
REMARK  9 active torsions:
REMARK  status: ('A' for Active; 'I' for Inactive)
REMARK    1  A    between atoms: C_1  and  C_2
REMARK    2  A    between atoms: C_2  and  C_3
REMARK    3  A    between atoms: C_2  and  C_4
REMARK    4  A    between atoms: C_8  and  C_9
REMARK    5  A    between atoms: C_9  and  O_10
REMARK    6  A    between atoms: O_10  and  C_11
REMARK    7  A    between atoms: C_14  and  C_15
REMARK    8  A    between atoms: C_15  and  N_16
REMARK    9  A    between atoms: C_17  and  C_19
REMARK                            x       y       z     vdW  Elec       q    Type
REMARK                         _______ _______ _______ _____ _____    ______ ____
ROOT
ATOM      1  C   UNL     1      47.796   6.953  12.701  0.00  0.00    +0.000 A 
ATOM      2  C   UNL     1      48.330   8.184  13.069  0.00  0.00    +0.000 A 
ATOM      3  C   UNL     1      48.845   8.360  14.351  0.00  0.00    +0.000 A 
ATOM      4  C   UNL     1      48.790   7.301  15.250  0.00  0.00    +0.000 A 
ATOM      5  N   UNL     1      48.279   6.089  14.917  0.00  0.00    +0.000 NA
ATOM      6  C   UNL     1      47.792   5.949  13.659  0.00  0.00    +0.000 A 
ENDROOT
BRANCH   1   7
ATOM      7  O   UNL     1      47.236   6.656  11.491  0.00  0.00    +0.000 OA
BRANCH   7   8
ATOM      8  C   UNL     1      45.822   6.836  11.421  0.00  0.00    +0.000 C 
BRANCH   8  13
ATOM      9  C   UNL     1      45.067   3.723   9.338  0.00  0.00    +0.000 A 
ATOM     10  C   UNL     1      44.110   3.100  10.152  0.00  0.00    +0.000 A 
ATOM     11  C   UNL     1      43.666   3.706  11.328  0.00  0.00    +0.000 A 
ATOM     12  C   UNL     1      44.187   4.935  11.722  0.00  0.00    +0.000 A 
ATOM     13  C   UNL     1      45.162   5.567  10.943  0.00  0.00    +0.000 A 
ATOM     14  C   UNL     1      45.582   4.964   9.744  0.00  0.00    +0.000 A 
BRANCH   9  16
ATOM     15  C   UNL     1      46.550   3.890   7.303  0.00  0.00    +0.000 C 
ATOM     16  C   UNL     1      45.521   3.045   8.057  0.00  0.00    +0.000 C 
ATOM     17  C   UNL     1      46.062   1.634   8.308  0.00  0.00    +0.000 C 
ENDBRANCH   9  16
ENDBRANCH   8  13
ENDBRANCH   7   8
ENDBRANCH   1   7
BRANCH   4  18
ATOM     18  C   UNL     1      49.322   7.477  16.650  0.00  0.00    +0.000 C 
BRANCH  18  19
ATOM     19  N   UNL     1      50.305   6.475  16.986  0.00  0.00    +0.000 N 
ATOM     20  C   UNL     1      50.534   6.037  18.261  0.00  0.00    +0.000 C 
ATOM     21  O   UNL     1      49.911   6.467  19.228  0.00  0.00    +0.000 OA
ATOM     22  H   UNL     1      51.004   6.312  16.268  0.00  0.00    +0.000 HD
BRANCH  20  23
ATOM     23  C   UNL     1      51.518   4.956  18.392  0.00  0.00    +0.000 A 
ATOM     24  C   UNL     1      52.742   5.198  19.003  0.00  0.00    +0.000 A 
ATOM     25  S   UNL     1      53.724   3.808  19.138  0.00  0.00    +0.000 S 
ATOM     26  C   UNL     1      52.568   2.844  18.343  0.00  0.00    +0.000 A 
ATOM     27  N   UNL     1      52.793   1.522  18.116  0.00  0.00    +0.000 NA
ATOM     28  C   UNL     1      51.839   0.919  17.483  0.00  0.00    +0.000 A 
ATOM     29  N   UNL     1      50.684   1.518  17.061  0.00  0.00    +0.000 N 
ATOM     30  C   UNL     1      50.399   2.840  17.301  0.00  0.00    +0.000 A 
ATOM     31  O   UNL     1      49.321   3.323  16.966  0.00  0.00    +0.000 OA
ATOM     32  C   UNL     1      51.442   3.569  17.993  0.00  0.00    +0.000 A 
ATOM     33  H   UNL     1      49.969   0.990  16.582  0.00  0.00    +0.000 HD
ENDBRANCH  20  23
ENDBRANCH  18  19
ENDBRANCH   4  18
TORSDOF 7
ENDMDL
MODEL 6
REMARK VINA RESULT:    -7.215      3.206      4.891
REMARK INTER + INTRA:         -11.329
REMARK INTER:                 -10.335
REMARK INTRA:                  -0.994
REMARK UNBOUND:                -1.161
REMARK  Name = 
REMARK  9 active torsions:
REMARK  status: ('A' for Active; 'I' for Inactive)
REMARK    1  A    between atoms: C_1  and  C_2
REMARK    2  A    between atoms: C_2  and  C_3
REMARK    3  A    between atoms: C_2  and  C_4
REMARK    4  A    between atoms: C_8  and  C_9
REMARK    5  A    between atoms: C_9  and  O_10
REMARK    6  A    between atoms: O_10  and  C_11
REMARK    7  A    between atoms: C_14  and  C_15
REMARK    8  A    between atoms: C_15  and  N_16
REMARK    9  A    between atoms: C_17  and  C_19
REMARK                            x       y       z     vdW  Elec       q    Type
REMARK                         _______ _______ _______ _____ _____    ______ ____
ROOT
ATOM      1  C   UNL     1      47.453   5.460  13.628  0.00  0.00    +0.000 A 
ATOM      2  C   UNL     1      46.938   4.176  13.773  0.00  0.00    +0.000 A 
ATOM      3  C   UNL     1      47.044   3.523  14.999  0.00  0.00    +0.000 A 
ATOM      4  C   UNL     1      47.690   4.163  16.050  0.00  0.00    +0.000 A 
ATOM      5  N   UNL     1      48.196   5.417  15.938  0.00  0.00    +0.000 NA
ATOM      6  C   UNL     1      48.071   6.028  14.734  0.00  0.00    +0.000 A 
ENDROOT
BRANCH   1   7
ATOM      7  O   UNL     1      47.441   6.199  12.478  0.00  0.00    +0.000 OA
BRANCH   7   8
ATOM      8  C   UNL     1      46.258   6.969  12.268  0.00  0.00    +0.000 C 
BRANCH   8  13
ATOM      9  C   UNL     1      44.208   4.285  10.481  0.00  0.00    +0.000 A 
ATOM     10  C   UNL     1      43.091   4.216  11.326  0.00  0.00    +0.000 A 
ATOM     11  C   UNL     1      42.969   5.068  12.424  0.00  0.00    +0.000 A 
ATOM     12  C   UNL     1      43.973   5.989  12.710  0.00  0.00    +0.000 A 
ATOM     13  C   UNL     1      45.111   6.063  11.899  0.00  0.00    +0.000 A 
ATOM     14  C   UNL     1      45.211   5.220  10.778  0.00  0.00    +0.000 A 
BRANCH   9  16
ATOM     15  C   UNL     1      44.831   4.078   8.045  0.00  0.00    +0.000 C 
ATOM     16  C   UNL     1      44.305   3.353   9.286  0.00  0.00    +0.000 C 
ATOM     17  C   UNL     1      45.153   2.113   9.585  0.00  0.00    +0.000 C 
ENDBRANCH   9  16
ENDBRANCH   8  13
ENDBRANCH   7   8
ENDBRANCH   1   7
BRANCH   4  18
ATOM     18  C   UNL     1      47.834   3.465  17.379  0.00  0.00    +0.000 C 
BRANCH  18  19
ATOM     19  N   UNL     1      49.213   3.186  17.698  0.00  0.00    +0.000 N 
ATOM     20  C   UNL     1      49.975   2.273  17.023  0.00  0.00    +0.000 C 
ATOM     21  O   UNL     1      49.539   1.617  16.081  0.00  0.00    +0.000 OA
ATOM     22  H   UNL     1      49.505   3.499  18.618  0.00  0.00    +0.000 HD
BRANCH  20  23
ATOM     23  C   UNL     1      51.380   2.187  17.442  0.00  0.00    +0.000 A 
ATOM     24  C   UNL     1      51.970   0.946  17.647  0.00  0.00    +0.000 A 
ATOM     25  S   UNL     1      53.627   1.038  18.052  0.00  0.00    +0.000 S 
ATOM     26  C   UNL     1      53.600   2.740  18.014  0.00  0.00    +0.000 A 
ATOM     27  N   UNL     1      54.718   3.465  18.287  0.00  0.00    +0.000 NA
ATOM     28  C   UNL     1      54.548   4.747  18.243  0.00  0.00    +0.000 A 
ATOM     29  N   UNL     1      53.363   5.364  17.949  0.00  0.00    +0.000 N 
ATOM     30  C   UNL     1      52.220   4.672  17.631  0.00  0.00    +0.000 A 
ATOM     31  O   UNL     1      51.194   5.265  17.307  0.00  0.00    +0.000 OA
ATOM     32  C   UNL     1      52.350   3.230  17.682  0.00  0.00    +0.000 A 
ATOM     33  H   UNL     1      53.295   6.371  17.917  0.00  0.00    +0.000 HD
ENDBRANCH  20  23
ENDBRANCH  18  19
ENDBRANCH   4  18
TORSDOF 7
ENDMDL
MODEL 7
REMARK VINA RESULT:    -7.208      3.376      4.590
REMARK INTER + INTRA:         -11.319
REMARK INTER:                 -10.586
REMARK INTRA:                  -0.733
REMARK UNBOUND:                -1.161
REMARK  Name = 
REMARK  9 active torsions:
REMARK  status: ('A' for Active; 'I' for Inactive)
REMARK    1  A    between atoms: C_1  and  C_2
REMARK    2  A    between atoms: C_2  and  C_3
REMARK    3  A    between atoms: C_2  and  C_4
REMARK    4  A    between atoms: C_8  and  C_9
REMARK    5  A    between atoms: C_9  and  O_10
REMARK    6  A    between atoms: O_10  and  C_11
REMARK    7  A    between atoms: C_14  and  C_15
REMARK    8  A    between atoms: C_15  and  N_16
REMARK    9  A    between atoms: C_17  and  C_19
REMARK                            x       y       z     vdW  Elec       q    Type
REMARK                         _______ _______ _______ _____ _____    ______ ____
ROOT
ATOM      1  C   UNL     1      47.581   5.888  13.415  0.00  0.00    +0.000 A 
ATOM      2  C   UNL     1      46.911   4.744  13.835  0.00  0.00    +0.000 A 
ATOM      3  C   UNL     1      47.055   4.300  15.147  0.00  0.00    +0.000 A 
ATOM      4  C   UNL     1      47.893   5.001  16.007  0.00  0.00    +0.000 A 
ATOM      5  N   UNL     1      48.555   6.122  15.625  0.00  0.00    +0.000 NA
ATOM      6  C   UNL     1      48.388   6.531  14.343  0.00  0.00    +0.000 A 
ENDROOT
BRANCH   1   7
ATOM      7  O   UNL     1      47.550   6.413  12.153  0.00  0.00    +0.000 OA
BRANCH   7   8
ATOM      8  C   UNL     1      46.355   7.121  11.824  0.00  0.00    +0.000 C 
BRANCH   8  13
ATOM      9  C   UNL     1      44.846   4.444   9.553  0.00  0.00    +0.000 A 
ATOM     10  C   UNL     1      43.593   4.275  10.159  0.00  0.00    +0.000 A 
ATOM     11  C   UNL     1      43.212   5.059  11.249  0.00  0.00    +0.000 A 
ATOM     12  C   UNL     1      44.088   6.010  11.766  0.00  0.00    +0.000 A 
ATOM     13  C   UNL     1      45.354   6.182  11.198  0.00  0.00    +0.000 A 
ATOM     14  C   UNL     1      45.717   5.408  10.082  0.00  0.00    +0.000 A 
BRANCH   9  16
ATOM     15  C   UNL     1      46.459   4.132   7.638  0.00  0.00    +0.000 C 
ATOM     16  C   UNL     1      45.225   3.584   8.360  0.00  0.00    +0.000 C 
ATOM     17  C   UNL     1      45.434   2.117   8.745  0.00  0.00    +0.000 C 
ENDBRANCH   9  16
ENDBRANCH   8  13
ENDBRANCH   7   8
ENDBRANCH   1   7
BRANCH   4  18
ATOM     18  C   UNL     1      48.080   4.525  17.426  0.00  0.00    +0.000 C 
BRANCH  18  19
ATOM     19  N   UNL     1      49.474   4.428  17.786  0.00  0.00    +0.000 N 
ATOM     20  C   UNL     1      50.301   3.432  17.345  0.00  0.00    +0.000 C 
ATOM     21  O   UNL     1      49.915   2.536  16.599  0.00  0.00    +0.000 OA
ATOM     22  H   UNL     1      49.740   4.977  18.597  0.00  0.00    +0.000 HD
BRANCH  20  23
ATOM     23  C   UNL     1      51.706   3.548  17.754  0.00  0.00    +0.000 A 
ATOM     24  C   UNL     1      52.286   4.801  17.906  0.00  0.00    +0.000 A 
ATOM     25  S   UNL     1      53.900   4.742  18.462  0.00  0.00    +0.000 S 
ATOM     26  C   UNL     1      53.894   3.040  18.474  0.00  0.00    +0.000 A 
ATOM     27  N   UNL     1      54.997   2.338  18.847  0.00  0.00    +0.000 NA
ATOM     28  C   UNL     1      54.858   1.053  18.787  0.00  0.00    +0.000 A 
ATOM     29  N   UNL     1      53.717   0.411  18.391  0.00  0.00    +0.000 N 
ATOM     30  C   UNL     1      52.569   1.080  18.041  0.00  0.00    +0.000 A 
ATOM     31  O   UNL     1      51.544   0.466  17.756  0.00  0.00    +0.000 OA
ATOM     32  C   UNL     1      52.674   2.524  18.074  0.00  0.00    +0.000 A 
ATOM     33  H   UNL     1      53.665  -0.597  18.377  0.00  0.00    +0.000 HD
ENDBRANCH  20  23
ENDBRANCH  18  19
ENDBRANCH   4  18
TORSDOF 7
ENDMDL
MODEL 8
REMARK VINA RESULT:    -7.105      2.729      3.927
REMARK INTER + INTRA:         -11.174
REMARK INTER:                 -10.070
REMARK INTRA:                  -1.104
REMARK UNBOUND:                -1.161
REMARK  Name = 
REMARK  9 active torsions:
REMARK  status: ('A' for Active; 'I' for Inactive)
REMARK    1  A    between atoms: C_1  and  C_2
REMARK    2  A    between atoms: C_2  and  C_3
REMARK    3  A    between atoms: C_2  and  C_4
REMARK    4  A    between atoms: C_8  and  C_9
REMARK    5  A    between atoms: C_9  and  O_10
REMARK    6  A    between atoms: O_10  and  C_11
REMARK    7  A    between atoms: C_14  and  C_15
REMARK    8  A    between atoms: C_15  and  N_16
REMARK    9  A    between atoms: C_17  and  C_19
REMARK                            x       y       z     vdW  Elec       q    Type
REMARK                         _______ _______ _______ _____ _____    ______ ____
ROOT
ATOM      1  C   UNL     1      46.867   5.875  12.575  0.00  0.00    +0.000 A 
ATOM      2  C   UNL     1      46.409   4.754  13.261  0.00  0.00    +0.000 A 
ATOM      3  C   UNL     1      46.845   4.514  14.562  0.00  0.00    +0.000 A 
ATOM      4  C   UNL     1      47.755   5.391  15.141  0.00  0.00    +0.000 A 
ATOM      5  N   UNL     1      48.214   6.494  14.496  0.00  0.00    +0.000 NA
ATOM      6  C   UNL     1      47.765   6.703  13.234  0.00  0.00    +0.000 A 
ENDROOT
BRANCH   1   7
ATOM      7  O   UNL     1      46.543   6.212  11.291  0.00  0.00    +0.000 OA
BRANCH   7   8
ATOM      8  C   UNL     1      45.158   6.092  10.968  0.00  0.00    +0.000 C 
BRANCH   8  13
ATOM      9  C   UNL     1      45.408   3.146   8.547  0.00  0.00    +0.000 A 
ATOM     10  C   UNL     1      44.590   2.213   9.199  0.00  0.00    +0.000 A 
ATOM     11  C   UNL     1      43.914   2.549  10.373  0.00  0.00    +0.000 A 
ATOM     12  C   UNL     1      44.063   3.817  10.927  0.00  0.00    +0.000 A 
ATOM     13  C   UNL     1      44.893   4.760  10.312  0.00  0.00    +0.000 A 
ATOM     14  C   UNL     1      45.547   4.422   9.114  0.00  0.00    +0.000 A 
BRANCH   9  16
ATOM     15  C   UNL     1      46.994   3.894   6.732  0.00  0.00    +0.000 C 
ATOM     16  C   UNL     1      46.121   2.755   7.264  0.00  0.00    +0.000 C 
ATOM     17  C   UNL     1      46.944   1.474   7.425  0.00  0.00    +0.000 C 
ENDBRANCH   9  16
ENDBRANCH   8  13
ENDBRANCH   7   8
ENDBRANCH   1   7
BRANCH   4  18
ATOM     18  C   UNL     1      48.256   5.138  16.540  0.00  0.00    +0.000 C 
BRANCH  18  19
ATOM     19  N   UNL     1      47.874   6.189  17.451  0.00  0.00    +0.000 N 
ATOM     20  C   UNL     1      48.665   6.625  18.478  0.00  0.00    +0.000 C 
ATOM     21  O   UNL     1      49.775   6.149  18.703  0.00  0.00    +0.000 OA
ATOM     22  H   UNL     1      46.881   6.400  17.461  0.00  0.00    +0.000 HD
BRANCH  20  23
ATOM     23  C   UNL     1      48.138   7.759  19.248  0.00  0.00    +0.000 A 
ATOM     24  C   UNL     1      47.829   7.604  20.593  0.00  0.00    +0.000 A 
ATOM     25  S   UNL     1      47.306   9.046  21.343  0.00  0.00    +0.000 S 
ATOM     26  C   UNL     1      47.428   9.916  19.885  0.00  0.00    +0.000 A 
ATOM     27  N   UNL     1      47.107  11.236  19.827  0.00  0.00    +0.000 NA
ATOM     28  C   UNL     1      47.226  11.764  18.651  0.00  0.00    +0.000 A 
ATOM     29  N   UNL     1      47.638  11.090  17.534  0.00  0.00    +0.000 N 
ATOM     30  C   UNL     1      48.007   9.767  17.555  0.00  0.00    +0.000 A 
ATOM     31  O   UNL     1      48.435   9.217  16.544  0.00  0.00    +0.000 OA
ATOM     32  C   UNL     1      47.876   9.121  18.845  0.00  0.00    +0.000 A 
ATOM     33  H   UNL     1      47.723  11.560  16.645  0.00  0.00    +0.000 HD
ENDBRANCH  20  23
ENDBRANCH  18  19
ENDBRANCH   4  18
TORSDOF 7
ENDMDL
MODEL 9
REMARK VINA RESULT:    -7.073      3.382      8.699
REMARK INTER + INTRA:         -11.129
REMARK INTER:                  -9.656
REMARK INTRA:                  -1.473
REMARK UNBOUND:                -1.161
REMARK  Name = 
REMARK  9 active torsions:
REMARK  status: ('A' for Active; 'I' for Inactive)
REMARK    1  A    between atoms: C_1  and  C_2
REMARK    2  A    between atoms: C_2  and  C_3
REMARK    3  A    between atoms: C_2  and  C_4
REMARK    4  A    between atoms: C_8  and  C_9
REMARK    5  A    between atoms: C_9  and  O_10
REMARK    6  A    between atoms: O_10  and  C_11
REMARK    7  A    between atoms: C_14  and  C_15
REMARK    8  A    between atoms: C_15  and  N_16
REMARK    9  A    between atoms: C_17  and  C_19
REMARK                            x       y       z     vdW  Elec       q    Type
REMARK                         _______ _______ _______ _____ _____    ______ ____
ROOT
ATOM      1  C   UNL     1      49.758   8.538  15.577  0.00  0.00    +0.000 A 
ATOM      2  C   UNL     1      48.452   8.980  15.387  0.00  0.00    +0.000 A 
ATOM      3  C   UNL     1      47.826   8.778  14.159  0.00  0.00    +0.000 A 
ATOM      4  C   UNL     1      48.534   8.160  13.135  0.00  0.00    +0.000 A 
ATOM      5  N   UNL     1      49.806   7.715  13.295  0.00  0.00    +0.000 NA
ATOM      6  C   UNL     1      50.385   7.921  14.504  0.00  0.00    +0.000 A 
ENDROOT
BRANCH   1   7
ATOM      7  O   UNL     1      50.496   8.697  16.717  0.00  0.00    +0.000 OA
BRANCH   7   8
ATOM      8  C   UNL     1      50.753   7.494  17.441  0.00  0.00    +0.000 C 
BRANCH   8  13
ATOM      9  C   UNL     1      47.888   4.965  17.441  0.00  0.00    +0.000 A 
ATOM     10  C   UNL     1      47.166   5.402  18.560  0.00  0.00    +0.000 A 
ATOM     11  C   UNL     1      47.561   6.536  19.270  0.00  0.00    +0.000 A 
ATOM     12  C   UNL     1      48.698   7.241  18.887  0.00  0.00    +0.000 A 
ATOM     13  C   UNL     1      49.454   6.813  17.790  0.00  0.00    +0.000 A 
ATOM     14  C   UNL     1      49.032   5.686  17.062  0.00  0.00    +0.000 A 
BRANCH   9  16
ATOM     15  C   UNL     1      47.060   4.069  15.232  0.00  0.00    +0.000 C 
ATOM     16  C   UNL     1      47.426   3.735  16.680  0.00  0.00    +0.000 C 
ATOM     17  C   UNL     1      48.456   2.603  16.728  0.00  0.00    +0.000 C 
ENDBRANCH   9  16
ENDBRANCH   8  13
ENDBRANCH   7   8
ENDBRANCH   1   7
BRANCH   4  18
ATOM     18  C   UNL     1      47.882   7.951  11.792  0.00  0.00    +0.000 C 
BRANCH  18  19
ATOM     19  N   UNL     1      47.081   6.751  11.759  0.00  0.00    +0.000 N 
ATOM     20  C   UNL     1      45.714   6.754  11.757  0.00  0.00    +0.000 C 
ATOM     21  O   UNL     1      45.056   7.791  11.781  0.00  0.00    +0.000 OA
ATOM     22  H   UNL     1      47.579   5.904  12.014  0.00  0.00    +0.000 HD
BRANCH  20  23
ATOM     23  C   UNL     1      45.077   5.436  11.640  0.00  0.00    +0.000 A 
ATOM     24  C   UNL     1      44.377   4.903  12.715  0.00  0.00    +0.000 A 
ATOM     25  S   UNL     1      43.638   3.402  12.371  0.00  0.00    +0.000 S 
ATOM     26  C   UNL     1      44.267   3.391  10.790  0.00  0.00    +0.000 A 
ATOM     27  N   UNL     1      44.017   2.356   9.943  0.00  0.00    +0.000 NA
ATOM     28  C   UNL     1      44.577   2.468   8.782  0.00  0.00    +0.000 A 
ATOM     29  N   UNL     1      45.359   3.522   8.393  0.00  0.00    +0.000 N 
ATOM     30  C   UNL     1      45.607   4.604   9.202  0.00  0.00    +0.000 A 
ATOM     31  O   UNL     1      46.258   5.561   8.791  0.00  0.00    +0.000 OA
ATOM     32  C   UNL     1      45.018   4.522  10.523  0.00  0.00    +0.000 A 
ATOM     33  H   UNL     1      45.758   3.559   7.467  0.00  0.00    +0.000 HD
ENDBRANCH  20  23
ENDBRANCH  18  19
ENDBRANCH   4  18
TORSDOF 7
ENDMDL
