MODEL 1
REMARK VINA RESULT:    -7.997      0.000      0.000
REMARK INTER + INTRA:         -12.550
REMARK INTER:                 -11.503
REMARK INTRA:                  -1.046
REMARK UNBOUND:                -1.046
REMARK  Name = 
REMARK  8 active torsions:
REMARK  status: ('A' for Active; 'I' for Inactive)
REMARK    1  A    between atoms: N_1  and  C_2
REMARK    2  A    between atoms: C_2  and  C_3
REMARK    3  A    between atoms: C_2  and  C_24
REMARK    4  A    between atoms: C_3  and  C_4
REMARK    5  A    between atoms: C_7  and  C_8
REMARK    6  A    between atoms: C_8  and  N_9
REMARK    7  A    between atoms: C_10  and  C_12
REMARK    8  A    between atoms: C_24  and  C_26
REMARK                            x       y       z     vdW  Elec       q    Type
REMARK                         _______ _______ _______ _____ _____    ______ ____
ROOT
ATOM      1  C   UNL     1      45.601   4.494  12.104  0.00  0.00    +0.000 A 
ATOM      2  C   UNL     1      46.100   3.972  13.305  0.00  0.00    +0.000 A 
ATOM      3  C   UNL     1      46.984   4.715  14.096  0.00  0.00    +0.000 A 
ATOM      4  C   UNL     1      47.379   6.001  13.709  0.00  0.00    +0.000 A 
ATOM      5  C   UNL     1      46.882   6.523  12.508  0.00  0.00    +0.000 A 
ATOM      6  C   UNL     1      45.998   5.782  11.718  0.00  0.00    +0.000 A 
ENDROOT
BRANCH   1   7
ATOM      7  C   UNL     1      44.702   3.660  11.215  0.00  0.00    +0.000 C 
BRANCH   7   8
ATOM      8  C   UNL     1      44.812   3.866   9.690  0.00  0.00    +0.000 C 
BRANCH   8   9
ATOM      9  N   UNL     1      43.664   4.595   9.112  0.00  0.00    +0.000 NA
ATOM     10  H   UNL     1      43.678   5.568   9.408  0.00  0.00    +0.000 HD
ATOM     11  H   UNL     1      42.811   4.187   9.509  0.00  0.00    +0.000 HD
ENDBRANCH   8   9
BRANCH   8  12
ATOM     12  C   UNL     1      44.990   2.535   8.935  0.00  0.00    +0.000 C 
ATOM     13  O   UNL     1      44.343   1.530   9.238  0.00  0.00    +0.000 OA
BRANCH  12  14
ATOM     14  C   UNL     1      45.977   2.434   7.822  0.00  0.00    +0.000 A 
ATOM     15  C   UNL     1      46.155   3.399   6.829  0.00  0.00    +0.000 A 
ATOM     16  C   UNL     1      47.098   3.187   5.820  0.00  0.00    +0.000 A 
ATOM     17  C   UNL     1      47.841   2.019   5.842  0.00  0.00    +0.000 A 
ATOM     18  N   UNL     1      47.705   1.069   6.788  0.00  0.00    +0.000 NA
ATOM     19  C   UNL     1      46.776   1.296   7.753  0.00  0.00    +0.000 A 
ENDBRANCH  12  14
ENDBRANCH   8  12
ENDBRANCH   7   8
ENDBRANCH   1   7
BRANCH   4  20
ATOM     20  C   UNL     1      48.374   6.782  14.528  0.00  0.00    +0.000 C 
BRANCH  20  21
ATOM     21  N   UNL     1      48.176   6.548  15.938  0.00  0.00    +0.000 N 
ATOM     22  C   UNL     1      49.181   6.062  16.731  0.00  0.00    +0.000 C 
ATOM     23  O   UNL     1      50.304   5.828  16.289  0.00  0.00    +0.000 OA
ATOM     24  H   UNL     1      47.217   6.530  16.271  0.00  0.00    +0.000 HD
BRANCH  22  25
ATOM     25  C   UNL     1      48.873   5.898  18.158  0.00  0.00    +0.000 A 
ATOM     26  C   UNL     1      49.131   4.684  18.782  0.00  0.00    +0.000 A 
ATOM     27  S   UNL     1      48.782   4.682  20.450  0.00  0.00    +0.000 S 
ATOM     28  C   UNL     1      48.220   6.287  20.390  0.00  0.00    +0.000 A 
ATOM     29  N   UNL     1      47.747   6.904  21.506  0.00  0.00    +0.000 NA
ATOM     30  C   UNL     1      47.320   8.106  21.312  0.00  0.00    +0.000 A 
ATOM     31  N   UNL     1      47.327   8.750  20.102  0.00  0.00    +0.000 N 
ATOM     32  C   UNL     1      47.822   8.178  18.954  0.00  0.00    +0.000 A 
ATOM     33  O   UNL     1      47.849   8.798  17.896  0.00  0.00    +0.000 OA
ATOM     34  C   UNL     1      48.309   6.821  19.116  0.00  0.00    +0.000 A 
ATOM     35  H   UNL     1      46.981   9.694  20.016  0.00  0.00    +0.000 HD
ENDBRANCH  22  25
ENDBRANCH  20  21
ENDBRANCH   4  20
TORSDOF 8
ENDMDL
MODEL 2
REMARK VINA RESULT:    -7.923      1.369      1.975
REMARK INTER + INTRA:         -12.443
REMARK INTER:                 -11.515
REMARK INTRA:                  -0.928
REMARK UNBOUND:                -1.046
REMARK  Name = 
REMARK  8 active torsions:
REMARK  status: ('A' for Active; 'I' for Inactive)
REMARK    1  A    between atoms: N_1  and  C_2
REMARK    2  A    between atoms: C_2  and  C_3
REMARK    3  A    between atoms: C_2  and  C_24
REMARK    4  A    between atoms: C_3  and  C_4
REMARK    5  A    between atoms: C_7  and  C_8
REMARK    6  A    between atoms: C_8  and  N_9
REMARK    7  A    between atoms: C_10  and  C_12
REMARK    8  A    between atoms: C_24  and  C_26
REMARK                            x       y       z     vdW  Elec       q    Type
REMARK                         _______ _______ _______ _____ _____    ______ ____
ROOT
ATOM      1  C   UNL     1      45.745   4.898  11.910  0.00  0.00    +0.000 A 
ATOM      2  C   UNL     1      46.141   4.625  13.227  0.00  0.00    +0.000 A 
ATOM      3  C   UNL     1      47.023   5.476  13.902  0.00  0.00    +0.000 A 
ATOM      4  C   UNL     1      47.522   6.625  13.279  0.00  0.00    +0.000 A 
ATOM      5  C   UNL     1      47.129   6.901  11.962  0.00  0.00    +0.000 A 
ATOM      6  C   UNL     1      46.245   6.051  11.288  0.00  0.00    +0.000 A 
ENDROOT
BRANCH   1   7
ATOM      7  C   UNL     1      44.848   3.939  11.158  0.00  0.00    +0.000 C 
BRANCH   7   8
ATOM      8  C   UNL     1      44.860   4.004   9.617  0.00  0.00    +0.000 C 
BRANCH   8   9
ATOM      9  N   UNL     1      43.646   4.622   9.046  0.00  0.00    +0.000 NA
ATOM     10  H   UNL     1      43.474   4.265   8.109  0.00  0.00    +0.000 HD
ATOM     11  H   UNL     1      43.833   5.625   8.940  0.00  0.00    +0.000 HD
ENDBRANCH   8   9
BRANCH   8  12
ATOM     12  C   UNL     1      45.062   2.617   8.978  0.00  0.00    +0.000 C 
ATOM     13  O   UNL     1      44.469   1.621   9.397  0.00  0.00    +0.000 OA
BRANCH  12  14
ATOM     14  C   UNL     1      46.009   2.451   7.838  0.00  0.00    +0.000 A 
ATOM     15  C   UNL     1      46.208   3.394   6.828  0.00  0.00    +0.000 A 
ATOM     16  C   UNL     1      47.108   3.120   5.795  0.00  0.00    +0.000 A 
ATOM     17  C   UNL     1      47.788   1.913   5.809  0.00  0.00    +0.000 A 
ATOM     18  N   UNL     1      47.629   0.983   6.771  0.00  0.00    +0.000 NA
ATOM     19  C   UNL     1      46.743   1.270   7.760  0.00  0.00    +0.000 A 
ENDBRANCH  12  14
ENDBRANCH   8  12
ENDBRANCH   7   8
ENDBRANCH   1   7
BRANCH   4  20
ATOM     20  C   UNL     1      48.516   7.515  13.980  0.00  0.00    +0.000 C 
BRANCH  20  21
ATOM     21  N   UNL     1      48.339   7.454  15.411  0.00  0.00    +0.000 N 
ATOM     22  C   UNL     1      49.309   6.941  16.231  0.00  0.00    +0.000 C 
ATOM     23  O   UNL     1      50.382   6.533  15.794  0.00  0.00    +0.000 OA
ATOM     24  H   UNL     1      47.396   7.583  15.764  0.00  0.00    +0.000 HD
BRANCH  22  25
ATOM     25  C   UNL     1      49.031   6.965  17.673  0.00  0.00    +0.000 A 
ATOM     26  C   UNL     1      48.913   8.183  18.330  0.00  0.00    +0.000 A 
ATOM     27  S   UNL     1      48.522   8.037  19.982  0.00  0.00    +0.000 S 
ATOM     28  C   UNL     1      48.550   6.338  19.894  0.00  0.00    +0.000 A 
ATOM     29  N   UNL     1      48.310   5.578  20.996  0.00  0.00    +0.000 NA
ATOM     30  C   UNL     1      48.400   4.306  20.797  0.00  0.00    +0.000 A 
ATOM     31  N   UNL     1      48.703   3.724  19.594  0.00  0.00    +0.000 N 
ATOM     32  C   UNL     1      48.924   4.450  18.448  0.00  0.00    +0.000 A 
ATOM     33  O   UNL     1      49.155   3.895  17.378  0.00  0.00    +0.000 OA
ATOM     34  C   UNL     1      48.843   5.889  18.619  0.00  0.00    +0.000 A 
ATOM     35  H   UNL     1      48.755   2.720  19.502  0.00  0.00    +0.000 HD
ENDBRANCH  22  25
ENDBRANCH  20  21
ENDBRANCH   4  20
TORSDOF 8
ENDMDL
MODEL 3
REMARK VINA RESULT:    -7.807      3.148      4.590
REMARK INTER + INTRA:         -12.276
REMARK INTER:                 -11.126
REMARK INTRA:                  -1.151
REMARK UNBOUND:                -1.046
REMARK  Name = 
REMARK  8 active torsions:
REMARK  status: ('A' for Active; 'I' for Inactive)
REMARK    1  A    between atoms: N_1  and  C_2
REMARK    2  A    between atoms: C_2  and  C_3
REMARK    3  A    between atoms: C_2  and  C_24
REMARK    4  A    between atoms: C_3  and  C_4
REMARK    5  A    between atoms: C_7  and  C_8
REMARK    6  A    between atoms: C_8  and  N_9
REMARK    7  A    between atoms: C_10  and  C_12
REMARK    8  A    between atoms: C_24  and  C_26
REMARK                            x       y       z     vdW  Elec       q    Type
REMARK                         _______ _______ _______ _____ _____    ______ ____
ROOT
ATOM      1  C   UNL     1      46.660   4.778  13.792  0.00  0.00    +0.000 A 
ATOM      2  C   UNL     1      47.355   5.925  13.386  0.00  0.00    +0.000 A 
ATOM      3  C   UNL     1      48.268   6.551  14.241  0.00  0.00    +0.000 A 
ATOM      4  C   UNL     1      48.516   6.037  15.520  0.00  0.00    +0.000 A 
ATOM      5  C   UNL     1      47.822   4.890  15.928  0.00  0.00    +0.000 A 
ATOM      6  C   UNL     1      46.910   4.263  15.072  0.00  0.00    +0.000 A 
ENDROOT
BRANCH   1   7
ATOM      7  C   UNL     1      45.620   4.146  12.891  0.00  0.00    +0.000 C 
BRANCH   7   8
ATOM      8  C   UNL     1      44.767   5.085  12.014  0.00  0.00    +0.000 C 
BRANCH   8   9
ATOM      9  N   UNL     1      43.783   5.875  12.783  0.00  0.00    +0.000 NA
ATOM     10  H   UNL     1      42.911   5.360  12.874  0.00  0.00    +0.000 HD
ATOM     11  H   UNL     1      43.566   6.713  12.233  0.00  0.00    +0.000 HD
ENDBRANCH   8   9
BRANCH   8  12
ATOM     12  C   UNL     1      44.031   4.324  10.894  0.00  0.00    +0.000 C 
ATOM     13  O   UNL     1      42.812   4.151  10.925  0.00  0.00    +0.000 OA
BRANCH  12  14
ATOM     14  C   UNL     1      44.799   3.759   9.747  0.00  0.00    +0.000 A 
ATOM     15  C   UNL     1      44.987   2.396   9.512  0.00  0.00    +0.000 A 
ATOM     16  C   UNL     1      45.745   1.982   8.414  0.00  0.00    +0.000 A 
ATOM     17  C   UNL     1      46.286   2.946   7.580  0.00  0.00    +0.000 A 
ATOM     18  N   UNL     1      46.118   4.270   7.769  0.00  0.00    +0.000 NA
ATOM     19  C   UNL     1      45.383   4.646   8.847  0.00  0.00    +0.000 A 
ENDBRANCH  12  14
ENDBRANCH   8  12
ENDBRANCH   7   8
ENDBRANCH   1   7
BRANCH   4  20
ATOM     20  C   UNL     1      49.456   6.737  16.466  0.00  0.00    +0.000 C 
BRANCH  20  21
ATOM     21  N   UNL     1      50.513   5.852  16.891  0.00  0.00    +0.000 N 
ATOM     22  C   UNL     1      50.623   5.442  18.193  0.00  0.00    +0.000 C 
ATOM     23  O   UNL     1      49.816   5.785  19.054  0.00  0.00    +0.000 OA
ATOM     24  H   UNL     1      51.296   5.733  16.257  0.00  0.00    +0.000 HD
BRANCH  22  25
ATOM     25  C   UNL     1      51.718   4.512  18.500  0.00  0.00    +0.000 A 
ATOM     26  C   UNL     1      52.801   4.950  19.251  0.00  0.00    +0.000 A 
ATOM     27  S   UNL     1      53.948   3.732  19.576  0.00  0.00    +0.000 S 
ATOM     28  C   UNL     1      53.067   2.587  18.677  0.00  0.00    +0.000 A 
ATOM     29  N   UNL     1      53.518   1.311  18.537  0.00  0.00    +0.000 NA
ATOM     30  C   UNL     1      52.772   0.558  17.800  0.00  0.00    +0.000 A 
ATOM     31  N   UNL     1      51.611   0.964  17.195  0.00  0.00    +0.000 N 
ATOM     32  C   UNL     1      51.101   2.233  17.333  0.00  0.00    +0.000 A 
ATOM     33  O   UNL     1      50.038   2.551  16.809  0.00  0.00    +0.000 OA
ATOM     34  C   UNL     1      51.907   3.124  18.146  0.00  0.00    +0.000 A 
ATOM     35  H   UNL     1      51.069   0.325  16.633  0.00  0.00    +0.000 HD
ENDBRANCH  22  25
ENDBRANCH  20  21
ENDBRANCH   4  20
TORSDOF 8
ENDMDL
MODEL 4
REMARK VINA RESULT:    -7.749      2.041      2.859
REMARK INTER + INTRA:         -12.192
REMARK INTER:                 -10.886
REMARK INTRA:                  -1.306
REMARK UNBOUND:                -1.046
REMARK  Name = 
REMARK  8 active torsions:
REMARK  status: ('A' for Active; 'I' for Inactive)
REMARK    1  A    between atoms: N_1  and  C_2
REMARK    2  A    between atoms: C_2  and  C_3
REMARK    3  A    between atoms: C_2  and  C_24
REMARK    4  A    between atoms: C_3  and  C_4
REMARK    5  A    between atoms: C_7  and  C_8
REMARK    6  A    between atoms: C_8  and  N_9
REMARK    7  A    between atoms: C_10  and  C_12
REMARK    8  A    between atoms: C_24  and  C_26
REMARK                            x       y       z     vdW  Elec       q    Type
REMARK                         _______ _______ _______ _____ _____    ______ ____
ROOT
ATOM      1  C   UNL     1      45.210   5.666  13.167  0.00  0.00    +0.000 A 
ATOM      2  C   UNL     1      45.553   6.991  12.862  0.00  0.00    +0.000 A 
ATOM      3  C   UNL     1      46.846   7.470  13.102  0.00  0.00    +0.000 A 
ATOM      4  C   UNL     1      47.828   6.632  13.644  0.00  0.00    +0.000 A 
ATOM      5  C   UNL     1      47.487   5.308  13.950  0.00  0.00    +0.000 A 
ATOM      6  C   UNL     1      46.196   4.828  13.708  0.00  0.00    +0.000 A 
ENDROOT
BRANCH   1   7
ATOM      7  C   UNL     1      43.793   5.172  12.973  0.00  0.00    +0.000 C 
BRANCH   7   8
ATOM      8  C   UNL     1      43.278   5.024  11.526  0.00  0.00    +0.000 C 
BRANCH   8   9
ATOM      9  N   UNL     1      41.836   5.313  11.383  0.00  0.00    +0.000 NA
ATOM     10  H   UNL     1      41.503   5.007  10.472  0.00  0.00    +0.000 HD
ATOM     11  H   UNL     1      41.725   6.332  11.402  0.00  0.00    +0.000 HD
ENDBRANCH   8   9
BRANCH   8  12
ATOM     12  C   UNL     1      43.567   3.625  10.947  0.00  0.00    +0.000 C 
ATOM     13  O   UNL     1      43.049   2.612  11.419  0.00  0.00    +0.000 OA
BRANCH  12  14
ATOM     14  C   UNL     1      44.508   3.473   9.800  0.00  0.00    +0.000 A 
ATOM     15  C   UNL     1      44.912   2.249   9.262  0.00  0.00    +0.000 A 
ATOM     16  C   UNL     1      45.817   2.227   8.198  0.00  0.00    +0.000 A 
ATOM     17  C   UNL     1      46.285   3.432   7.701  0.00  0.00    +0.000 A 
ATOM     18  N   UNL     1      45.912   4.632   8.187  0.00  0.00    +0.000 NA
ATOM     19  C   UNL     1      45.037   4.626   9.226  0.00  0.00    +0.000 A 
ENDBRANCH  12  14
ENDBRANCH   8  12
ENDBRANCH   7   8
ENDBRANCH   1   7
BRANCH   4  20
ATOM     20  C   UNL     1      49.205   7.158  13.956  0.00  0.00    +0.000 C 
BRANCH  20  21
ATOM     21  N   UNL     1      49.530   6.953  15.347  0.00  0.00    +0.000 N 
ATOM     22  C   UNL     1      49.116   7.828  16.316  0.00  0.00    +0.000 C 
ATOM     23  O   UNL     1      48.427   8.812  16.053  0.00  0.00    +0.000 OA
ATOM     24  H   UNL     1      50.263   6.282  15.554  0.00  0.00    +0.000 HD
BRANCH  22  25
ATOM     25  C   UNL     1      49.477   7.496  17.700  0.00  0.00    +0.000 A 
ATOM     26  C   UNL     1      50.326   8.336  18.409  0.00  0.00    +0.000 A 
ATOM     27  S   UNL     1      50.589   7.846  20.020  0.00  0.00    +0.000 S 
ATOM     28  C   UNL     1      49.622   6.461  19.814  0.00  0.00    +0.000 A 
ATOM     29  N   UNL     1      49.439   5.578  20.832  0.00  0.00    +0.000 NA
ATOM     30  C   UNL     1      48.714   4.555  20.529  0.00  0.00    +0.000 A 
ATOM     31  N   UNL     1      48.150   4.336  19.299  0.00  0.00    +0.000 N 
ATOM     32  C   UNL     1      48.282   5.214  18.249  0.00  0.00    +0.000 A 
ATOM     33  O   UNL     1      47.730   5.006  17.173  0.00  0.00    +0.000 OA
ATOM     34  C   UNL     1      49.096   6.380  18.536  0.00  0.00    +0.000 A 
ATOM     35  H   UNL     1      47.589   3.515  19.125  0.00  0.00    +0.000 HD
ENDBRANCH  22  25
ENDBRANCH  20  21
ENDBRANCH   4  20
TORSDOF 8
ENDMDL
MODEL 5
REMARK VINA RESULT:    -7.727      2.978      3.722
REMARK INTER + INTRA:         -12.161
REMARK INTER:                 -10.786
REMARK INTRA:                  -1.376
REMARK UNBOUND:                -1.046
REMARK  Name = 
REMARK  8 active torsions:
REMARK  status: ('A' for Active; 'I' for Inactive)
REMARK    1  A    between atoms: N_1  and  C_2
REMARK    2  A    between atoms: C_2  and  C_3
REMARK    3  A    between atoms: C_2  and  C_24
REMARK    4  A    between atoms: C_3  and  C_4
REMARK    5  A    between atoms: C_7  and  C_8
REMARK    6  A    between atoms: C_8  and  N_9
REMARK    7  A    between atoms: C_10  and  C_12
REMARK    8  A    between atoms: C_24  and  C_26
REMARK                            x       y       z     vdW  Elec       q    Type
REMARK                         _______ _______ _______ _____ _____    ______ ____
ROOT
ATOM      1  C   UNL     1      45.327   6.041  12.902  0.00  0.00    +0.000 A 
ATOM      2  C   UNL     1      46.482   5.284  13.142  0.00  0.00    +0.000 A 
ATOM      3  C   UNL     1      47.749   5.877  13.102  0.00  0.00    +0.000 A 
ATOM      4  C   UNL     1      47.888   7.244  12.831  0.00  0.00    +0.000 A 
ATOM      5  C   UNL     1      46.735   8.002  12.591  0.00  0.00    +0.000 A 
ATOM      6  C   UNL     1      45.468   7.409  12.632  0.00  0.00    +0.000 A 
ENDROOT
BRANCH   1   7
ATOM      7  C   UNL     1      43.965   5.381  12.875  0.00  0.00    +0.000 C 
BRANCH   7   8
ATOM      8  C   UNL     1      43.311   5.143  11.498  0.00  0.00    +0.000 C 
BRANCH   8   9
ATOM      9  N   UNL     1      41.857   5.404  11.485  0.00  0.00    +0.000 NA
ATOM     10  H   UNL     1      41.657   6.263  10.979  0.00  0.00    +0.000 HD
ATOM     11  H   UNL     1      41.567   5.568  12.455  0.00  0.00    +0.000 HD
ENDBRANCH   8   9
BRANCH   8  12
ATOM     12  C   UNL     1      43.568   3.717  10.973  0.00  0.00    +0.000 C 
ATOM     13  O   UNL     1      43.040   2.733  11.493  0.00  0.00    +0.000 OA
BRANCH  12  14
ATOM     14  C   UNL     1      44.490   3.501   9.821  0.00  0.00    +0.000 A 
ATOM     15  C   UNL     1      44.867   2.250   9.329  0.00  0.00    +0.000 A 
ATOM     16  C   UNL     1      45.757   2.170   8.255  0.00  0.00    +0.000 A 
ATOM     17  C   UNL     1      46.236   3.345   7.700  0.00  0.00    +0.000 A 
ATOM     18  N   UNL     1      45.888   4.570   8.141  0.00  0.00    +0.000 NA
ATOM     19  C   UNL     1      45.028   4.621   9.191  0.00  0.00    +0.000 A 
ENDBRANCH  12  14
ENDBRANCH   8  12
ENDBRANCH   7   8
ENDBRANCH   1   7
BRANCH   4  20
ATOM     20  C   UNL     1      49.252   7.876  12.732  0.00  0.00    +0.000 C 
BRANCH  20  21
ATOM     21  N   UNL     1      50.161   7.293  13.688  0.00  0.00    +0.000 N 
ATOM     22  C   UNL     1      50.628   8.006  14.760  0.00  0.00    +0.000 C 
ATOM     23  O   UNL     1      50.277   9.164  14.974  0.00  0.00    +0.000 OA
ATOM     24  H   UNL     1      50.622   6.430  13.418  0.00  0.00    +0.000 HD
BRANCH  22  25
ATOM     25  C   UNL     1      51.520   7.295  15.686  0.00  0.00    +0.000 A 
ATOM     26  C   UNL     1      52.856   7.664  15.773  0.00  0.00    +0.000 A 
ATOM     27  S   UNL     1      53.735   6.789  16.941  0.00  0.00    +0.000 S 
ATOM     28  C   UNL     1      52.376   5.845  17.336  0.00  0.00    +0.000 A 
ATOM     29  N   UNL     1      52.454   4.867  18.278  0.00  0.00    +0.000 NA
ATOM     30  C   UNL     1      51.360   4.204  18.452  0.00  0.00    +0.000 A 
ATOM     31  N   UNL     1      50.192   4.434  17.773  0.00  0.00    +0.000 N 
ATOM     32  C   UNL     1      50.058   5.429  16.835  0.00  0.00    +0.000 A 
ATOM     33  O   UNL     1      48.986   5.633  16.273  0.00  0.00    +0.000 OA
ATOM     34  C   UNL     1      51.263   6.201  16.594  0.00  0.00    +0.000 A 
ATOM     35  H   UNL     1      49.368   3.882  17.958  0.00  0.00    +0.000 HD
ENDBRANCH  22  25
ENDBRANCH  20  21
ENDBRANCH   4  20
TORSDOF 8
ENDMDL
MODEL 6
REMARK VINA RESULT:    -7.425      2.211      3.187
REMARK INTER + INTRA:         -11.727
REMARK INTER:                 -10.687
REMARK INTRA:                  -1.040
REMARK UNBOUND:                -1.046
REMARK  Name = 
REMARK  8 active torsions:
REMARK  status: ('A' for Active; 'I' for Inactive)
REMARK    1  A    between atoms: N_1  and  C_2
REMARK    2  A    between atoms: C_2  and  C_3
REMARK    3  A    between atoms: C_2  and  C_24
REMARK    4  A    between atoms: C_3  and  C_4
REMARK    5  A    between atoms: C_7  and  C_8
REMARK    6  A    between atoms: C_8  and  N_9
REMARK    7  A    between atoms: C_10  and  C_12
REMARK    8  A    between atoms: C_24  and  C_26
REMARK                            x       y       z     vdW  Elec       q    Type
REMARK                         _______ _______ _______ _____ _____    ______ ____
ROOT
ATOM      1  C   UNL     1      46.331   4.912  12.856  0.00  0.00    +0.000 A 
ATOM      2  C   UNL     1      46.017   6.077  12.144  0.00  0.00    +0.000 A 
ATOM      3  C   UNL     1      46.539   7.316  12.530  0.00  0.00    +0.000 A 
ATOM      4  C   UNL     1      47.396   7.417  13.632  0.00  0.00    +0.000 A 
ATOM      5  C   UNL     1      47.711   6.254  14.346  0.00  0.00    +0.000 A 
ATOM      6  C   UNL     1      47.191   5.014  13.959  0.00  0.00    +0.000 A 
ENDROOT
BRANCH   1   7
ATOM      7  C   UNL     1      45.708   3.585  12.479  0.00  0.00    +0.000 C 
BRANCH   7   8
ATOM      8  C   UNL     1      44.198   3.568  12.160  0.00  0.00    +0.000 C 
BRANCH   8   9
ATOM      9  N   UNL     1      43.566   2.251  12.384  0.00  0.00    +0.000 NA
ATOM     10  H   UNL     1      44.242   1.596  12.769  0.00  0.00    +0.000 HD
ATOM     11  H   UNL     1      43.297   1.881  11.466  0.00  0.00    +0.000 HD
ENDBRANCH   8   9
BRANCH   8  12
ATOM     12  C   UNL     1      43.904   4.024  10.719  0.00  0.00    +0.000 C 
ATOM     13  O   UNL     1      42.947   4.754  10.455  0.00  0.00    +0.000 OA
BRANCH  12  14
ATOM     14  C   UNL     1      44.776   3.567   9.599  0.00  0.00    +0.000 A 
ATOM     15  C   UNL     1      45.038   2.230   9.290  0.00  0.00    +0.000 A 
ATOM     16  C   UNL     1      45.891   1.920   8.228  0.00  0.00    +0.000 A 
ATOM     17  C   UNL     1      46.450   2.958   7.502  0.00  0.00    +0.000 A 
ATOM     18  N   UNL     1      46.214   4.259   7.763  0.00  0.00    +0.000 NA
ATOM     19  C   UNL     1      45.388   4.534   8.805  0.00  0.00    +0.000 A 
ENDBRANCH  12  14
ENDBRANCH   8  12
ENDBRANCH   7   8
ENDBRANCH   1   7
BRANCH   4  20
ATOM     20  C   UNL     1      47.917   8.756  14.086  0.00  0.00    +0.000 C 
BRANCH  20  21
ATOM     21  N   UNL     1      47.626   8.975  15.482  0.00  0.00    +0.000 N 
ATOM     22  C   UNL     1      48.437   9.747  16.271  0.00  0.00    +0.000 C 
ATOM     23  O   UNL     1      49.433  10.312  15.823  0.00  0.00    +0.000 OA
ATOM     24  H   UNL     1      46.946   8.357  15.913  0.00  0.00    +0.000 HD
BRANCH  22  25
ATOM     25  C   UNL     1      48.020   9.927  17.667  0.00  0.00    +0.000 A 
ATOM     26  C   UNL     1      47.691  11.195  18.129  0.00  0.00    +0.000 A 
ATOM     27  S   UNL     1      47.162  11.221  19.748  0.00  0.00    +0.000 S 
ATOM     28  C   UNL     1      47.406   9.545  19.911  0.00  0.00    +0.000 A 
ATOM     29  N   UNL     1      47.155   8.913  21.089  0.00  0.00    +0.000 NA
ATOM     30  C   UNL     1      47.418   7.649  21.085  0.00  0.00    +0.000 A 
ATOM     31  N   UNL     1      47.905   6.958  20.007  0.00  0.00    +0.000 N 
ATOM     32  C   UNL     1      48.146   7.547  18.789  0.00  0.00    +0.000 A 
ATOM     33  O   UNL     1      48.545   6.890  17.833  0.00  0.00    +0.000 OA
ATOM     34  C   UNL     1      47.874   8.971  18.742  0.00  0.00    +0.000 A 
ATOM     35  H   UNL     1      48.087   5.967  20.066  0.00  0.00    +0.000 HD
ENDBRANCH  22  25
ENDBRANCH  20  21
ENDBRANCH   4  20
TORSDOF 8
ENDMDL
MODEL 7
REMARK VINA RESULT:    -7.294      3.129      4.270
REMARK INTER + INTRA:         -11.539
REMARK INTER:                 -10.386
REMARK INTRA:                  -1.153
REMARK UNBOUND:                -1.046
REMARK  Name = 
REMARK  8 active torsions:
REMARK  status: ('A' for Active; 'I' for Inactive)
REMARK    1  A    between atoms: N_1  and  C_2
REMARK    2  A    between atoms: C_2  and  C_3
REMARK    3  A    between atoms: C_2  and  C_24
REMARK    4  A    between atoms: C_3  and  C_4
REMARK    5  A    between atoms: C_7  and  C_8
REMARK    6  A    between atoms: C_8  and  N_9
REMARK    7  A    between atoms: C_10  and  C_12
REMARK    8  A    between atoms: C_24  and  C_26
REMARK                            x       y       z     vdW  Elec       q    Type
REMARK                         _______ _______ _______ _____ _____    ______ ____
ROOT
ATOM      1  C   UNL     1      45.340   5.949  12.945  0.00  0.00    +0.000 A 
ATOM      2  C   UNL     1      46.510   5.233  13.237  0.00  0.00    +0.000 A 
ATOM      3  C   UNL     1      47.756   5.868  13.244  0.00  0.00    +0.000 A 
ATOM      4  C   UNL     1      47.861   7.237  12.969  0.00  0.00    +0.000 A 
ATOM      5  C   UNL     1      46.694   7.954  12.676  0.00  0.00    +0.000 A 
ATOM      6  C   UNL     1      45.447   7.320  12.671  0.00  0.00    +0.000 A 
ENDROOT
BRANCH   1   7
ATOM      7  C   UNL     1      44.003   5.244  12.868  0.00  0.00    +0.000 C 
BRANCH   7   8
ATOM      8  C   UNL     1      43.365   5.068  11.474  0.00  0.00    +0.000 C 
BRANCH   8   9
ATOM      9  N   UNL     1      41.920   5.372  11.447  0.00  0.00    +0.000 NA
ATOM     10  H   UNL     1      41.707   6.011  10.685  0.00  0.00    +0.000 HD
ATOM     11  H   UNL     1      41.696   5.874  12.313  0.00  0.00    +0.000 HD
ENDBRANCH   8   9
BRANCH   8  12
ATOM     12  C   UNL     1      43.589   3.653  10.908  0.00  0.00    +0.000 C 
ATOM     13  O   UNL     1      43.027   2.668  11.391  0.00  0.00    +0.000 OA
BRANCH  12  14
ATOM     14  C   UNL     1      44.518   3.447   9.760  0.00  0.00    +0.000 A 
ATOM     15  C   UNL     1      44.966   2.202   9.314  0.00  0.00    +0.000 A 
ATOM     16  C   UNL     1      45.856   2.132   8.239  0.00  0.00    +0.000 A 
ATOM     17  C   UNL     1      46.265   3.311   7.638  0.00  0.00    +0.000 A 
ATOM     18  N   UNL     1      45.848   4.530   8.034  0.00  0.00    +0.000 NA
ATOM     19  C   UNL     1      44.989   4.571   9.086  0.00  0.00    +0.000 A 
ENDBRANCH  12  14
ENDBRANCH   8  12
ENDBRANCH   7   8
ENDBRANCH   1   7
BRANCH   4  20
ATOM     20  C   UNL     1      49.206   7.914  12.920  0.00  0.00    +0.000 C 
BRANCH  20  21
ATOM     21  N   UNL     1      50.130   7.290  13.835  0.00  0.00    +0.000 N 
ATOM     22  C   UNL     1      50.126   7.588  15.172  0.00  0.00    +0.000 C 
ATOM     23  O   UNL     1      49.322   8.379  15.660  0.00  0.00    +0.000 OA
ATOM     24  H   UNL     1      50.926   6.809  13.428  0.00  0.00    +0.000 HD
BRANCH  22  25
ATOM     25  C   UNL     1      51.089   6.863  16.011  0.00  0.00    +0.000 A 
ATOM     26  C   UNL     1      50.629   6.068  17.053  0.00  0.00    +0.000 A 
ATOM     27  S   UNL     1      51.867   5.241  17.883  0.00  0.00    +0.000 S 
ATOM     28  C   UNL     1      53.069   5.959  16.916  0.00  0.00    +0.000 A 
ATOM     29  N   UNL     1      54.386   5.684  17.119  0.00  0.00    +0.000 NA
ATOM     30  C   UNL     1      55.192   6.324  16.340  0.00  0.00    +0.000 A 
ATOM     31  N   UNL     1      54.800   7.210  15.371  0.00  0.00    +0.000 N 
ATOM     32  C   UNL     1      53.481   7.496  15.109  0.00  0.00    +0.000 A 
ATOM     33  O   UNL     1      53.164   8.266  14.207  0.00  0.00    +0.000 OA
ATOM     34  C   UNL     1      52.532   6.808  15.965  0.00  0.00    +0.000 A 
ATOM     35  H   UNL     1      55.480   7.677  14.790  0.00  0.00    +0.000 HD
ENDBRANCH  22  25
ENDBRANCH  20  21
ENDBRANCH   4  20
TORSDOF 8
ENDMDL
MODEL 8
REMARK VINA RESULT:    -7.101      2.997      9.520
REMARK INTER + INTRA:         -11.261
REMARK INTER:                  -9.589
REMARK INTRA:                  -1.673
REMARK UNBOUND:                -1.046
REMARK  Name = 
REMARK  8 active torsions:
REMARK  status: ('A' for Active; 'I' for Inactive)
REMARK    1  A    between atoms: N_1  and  C_2
REMARK    2  A    between atoms: C_2  and  C_3
REMARK    3  A    between atoms: C_2  and  C_24
REMARK    4  A    between atoms: C_3  and  C_4
REMARK    5  A    between atoms: C_7  and  C_8
REMARK    6  A    between atoms: C_8  and  N_9
REMARK    7  A    between atoms: C_10  and  C_12
REMARK    8  A    between atoms: C_24  and  C_26
REMARK                            x       y       z     vdW  Elec       q    Type
REMARK                         _______ _______ _______ _____ _____    ______ ____
ROOT
ATOM      1  C   UNL     1      48.990   8.082  16.259  0.00  0.00    +0.000 A 
ATOM      2  C   UNL     1      48.180   9.086  15.710  0.00  0.00    +0.000 A 
ATOM      3  C   UNL     1      47.717   8.993  14.393  0.00  0.00    +0.000 A 
ATOM      4  C   UNL     1      48.044   7.889  13.598  0.00  0.00    +0.000 A 
ATOM      5  C   UNL     1      48.854   6.884  14.144  0.00  0.00    +0.000 A 
ATOM      6  C   UNL     1      49.316   6.976  15.461  0.00  0.00    +0.000 A 
ENDROOT
BRANCH   1   7
ATOM      7  C   UNL     1      49.548   8.220  17.659  0.00  0.00    +0.000 C 
BRANCH   7   8
ATOM      8  C   UNL     1      48.761   7.562  18.812  0.00  0.00    +0.000 C 
BRANCH   8   9
ATOM      9  N   UNL     1      48.760   8.362  20.054  0.00  0.00    +0.000 NA
ATOM     10  H   UNL     1      48.449   7.796  20.839  0.00  0.00    +0.000 HD
ATOM     11  H   UNL     1      48.060   9.103  19.940  0.00  0.00    +0.000 HD
ENDBRANCH   8   9
BRANCH   8  12
ATOM     12  C   UNL     1      49.275   6.145  19.131  0.00  0.00    +0.000 C 
ATOM     13  O   UNL     1      50.060   5.937  20.058  0.00  0.00    +0.000 OA
BRANCH  12  14
ATOM     14  C   UNL     1      48.840   4.988  18.297  0.00  0.00    +0.000 A 
ATOM     15  C   UNL     1      47.515   4.713  17.950  0.00  0.00    +0.000 A 
ATOM     16  C   UNL     1      47.223   3.585  17.180  0.00  0.00    +0.000 A 
ATOM     17  C   UNL     1      48.267   2.771  16.772  0.00  0.00    +0.000 A 
ATOM     18  N   UNL     1      49.557   3.009  17.078  0.00  0.00    +0.000 NA
ATOM     19  C   UNL     1      49.814   4.108  17.835  0.00  0.00    +0.000 A 
ENDBRANCH  12  14
ENDBRANCH   8  12
ENDBRANCH   7   8
ENDBRANCH   1   7
BRANCH   4  20
ATOM     20  C   UNL     1      47.595   7.810  12.162  0.00  0.00    +0.000 C 
BRANCH  20  21
ATOM     21  N   UNL     1      46.912   6.566  11.903  0.00  0.00    +0.000 N 
ATOM     22  C   UNL     1      45.565   6.431  12.113  0.00  0.00    +0.000 C 
ATOM     23  O   UNL     1      44.870   7.366  12.504  0.00  0.00    +0.000 OA
ATOM     24  H   UNL     1      47.490   5.739  11.790  0.00  0.00    +0.000 HD
BRANCH  22  25
ATOM     25  C   UNL     1      44.975   5.128  11.780  0.00  0.00    +0.000 A 
ATOM     26  C   UNL     1      44.299   4.410  12.759  0.00  0.00    +0.000 A 
ATOM     27  S   UNL     1      43.616   2.955  12.194  0.00  0.00    +0.000 S 
ATOM     28  C   UNL     1      44.246   3.202  10.633  0.00  0.00    +0.000 A 
ATOM     29  N   UNL     1      44.037   2.293   9.642  0.00  0.00    +0.000 NA
ATOM     30  C   UNL     1      44.601   2.586   8.519  0.00  0.00    +0.000 A 
ATOM     31  N   UNL     1      45.352   3.711   8.294  0.00  0.00    +0.000 N 
ATOM     32  C   UNL     1      45.565   4.671   9.254  0.00  0.00    +0.000 A 
ATOM     33  O   UNL     1      46.211   5.685   9.007  0.00  0.00    +0.000 OA
ATOM     34  C   UNL     1      44.958   4.385  10.541  0.00  0.00    +0.000 A 
ATOM     35  H   UNL     1      45.765   3.885   7.390  0.00  0.00    +0.000 HD
ENDBRANCH  22  25
ENDBRANCH  20  21
ENDBRANCH   4  20
TORSDOF 8
ENDMDL
MODEL 9
REMARK VINA RESULT:    -7.047      5.215      7.532
REMARK INTER + INTRA:         -11.183
REMARK INTER:                  -9.942
REMARK INTRA:                  -1.241
REMARK UNBOUND:                -1.046
REMARK  Name = 
REMARK  8 active torsions:
REMARK  status: ('A' for Active; 'I' for Inactive)
REMARK    1  A    between atoms: N_1  and  C_2
REMARK    2  A    between atoms: C_2  and  C_3
REMARK    3  A    between atoms: C_2  and  C_24
REMARK    4  A    between atoms: C_3  and  C_4
REMARK    5  A    between atoms: C_7  and  C_8
REMARK    6  A    between atoms: C_8  and  N_9
REMARK    7  A    between atoms: C_10  and  C_12
REMARK    8  A    between atoms: C_24  and  C_26
REMARK                            x       y       z     vdW  Elec       q    Type
REMARK                         _______ _______ _______ _____ _____    ______ ____
ROOT
ATOM      1  C   UNL     1      46.189   5.794  12.467  0.00  0.00    +0.000 A 
ATOM      2  C   UNL     1      46.913   5.611  13.654  0.00  0.00    +0.000 A 
ATOM      3  C   UNL     1      48.144   6.248  13.848  0.00  0.00    +0.000 A 
ATOM      4  C   UNL     1      48.675   7.090  12.864  0.00  0.00    +0.000 A 
ATOM      5  C   UNL     1      47.953   7.274  11.677  0.00  0.00    +0.000 A 
ATOM      6  C   UNL     1      46.722   6.639  11.483  0.00  0.00    +0.000 A 
ENDROOT
BRANCH   1   7
ATOM      7  C   UNL     1      44.894   5.048  12.231  0.00  0.00    +0.000 C 
BRANCH   7   8
ATOM      8  C   UNL     1      44.335   5.020  10.793  0.00  0.00    +0.000 C 
BRANCH   8   9
ATOM      9  N   UNL     1      42.982   5.603  10.678  0.00  0.00    +0.000 NA
ATOM     10  H   UNL     1      42.406   5.039  10.058  0.00  0.00    +0.000 HD
ATOM     11  H   UNL     1      43.080   6.517  10.225  0.00  0.00    +0.000 HD
ENDBRANCH   8   9
BRANCH   8  12
ATOM     12  C   UNL     1      44.317   3.596  10.205  0.00  0.00    +0.000 C 
ATOM     13  O   UNL     1      43.574   2.722  10.652  0.00  0.00    +0.000 OA
BRANCH  12  14
ATOM     14  C   UNL     1      45.230   3.243   9.079  0.00  0.00    +0.000 A 
ATOM     15  C   UNL     1      45.631   1.945   8.759  0.00  0.00    +0.000 A 
ATOM     16  C   UNL     1      46.509   1.735   7.692  0.00  0.00    +0.000 A 
ATOM     17  C   UNL     1      46.953   2.833   6.974  0.00  0.00    +0.000 A 
ATOM     18  N   UNL     1      46.582   4.099   7.247  0.00  0.00    +0.000 NA
ATOM     19  C   UNL     1      45.734   4.276   8.293  0.00  0.00    +0.000 A 
ENDBRANCH  12  14
ENDBRANCH   8  12
ENDBRANCH   7   8
ENDBRANCH   1   7
BRANCH   4  20
ATOM     20  C   UNL     1      50.025   7.733  13.044  0.00  0.00    +0.000 C 
BRANCH  20  21
ATOM     21  N   UNL     1      50.551   8.188  11.780  0.00  0.00    +0.000 N 
ATOM     22  C   UNL     1      51.429   9.236  11.704  0.00  0.00    +0.000 C 
ATOM     23  O   UNL     1      51.831   9.822  12.707  0.00  0.00    +0.000 OA
ATOM     24  H   UNL     1      50.077   7.867  10.942  0.00  0.00    +0.000 HD
BRANCH  22  25
ATOM     25  C   UNL     1      51.924   9.585  10.366  0.00  0.00    +0.000 A 
ATOM     26  C   UNL     1      51.824  10.896   9.917  0.00  0.00    +0.000 A 
ATOM     27  S   UNL     1      52.506  11.147   8.375  0.00  0.00    +0.000 S 
ATOM     28  C   UNL     1      52.912   9.501   8.228  0.00  0.00    +0.000 A 
ATOM     29  N   UNL     1      53.523   9.030   7.107  0.00  0.00    +0.000 NA
ATOM     30  C   UNL     1      53.741   7.758   7.111  0.00  0.00    +0.000 A 
ATOM     31  N   UNL     1      53.408   6.914   8.138  0.00  0.00    +0.000 N 
ATOM     32  C   UNL     1      52.817   7.348   9.301  0.00  0.00    +0.000 A 
ATOM     33  O   UNL     1      52.568   6.570  10.217  0.00  0.00    +0.000 OA
ATOM     34  C   UNL     1      52.543   8.772   9.344  0.00  0.00    +0.000 A 
ATOM     35  H   UNL     1      53.608   5.926   8.083  0.00  0.00    +0.000 HD
ENDBRANCH  22  25
ENDBRANCH  20  21
ENDBRANCH   4  20
TORSDOF 8
ENDMDL
