MODEL 1
REMARK VINA RESULT:    -8.002      0.000      0.000
REMARK INTER + INTRA:         -12.023
REMARK INTER:                 -11.276
REMARK INTRA:                  -0.746
REMARK UNBOUND:                -0.746
REMARK  Name = 
REMARK  7 active torsions:
REMARK  status: ('A' for Active; 'I' for Inactive)
REMARK    1  A    between atoms: C_2  and  C_11
REMARK    2  A    between atoms: N_3  and  C_4
REMARK    3  A    between atoms: C_4  and  C_5
REMARK    4  A    between atoms: C_14  and  C_15
REMARK    5  A    between atoms: C_15  and  N_16
REMARK    6  A    between atoms: N_16  and  C_17
REMARK    7  A    between atoms: C_17  and  C_18
REMARK                            x       y       z     vdW  Elec       q    Type
REMARK                         _______ _______ _______ _____ _____    ______ ____
ROOT
ATOM      1  C   UNL     1      46.749   5.430  13.323  0.00  0.00    +0.000 A 
ATOM      2  C   UNL     1      46.396   6.413  12.392  0.00  0.00    +0.000 A 
ATOM      3  C   UNL     1      45.425   6.145  11.422  0.00  0.00    +0.000 A 
ATOM      4  C   UNL     1      44.787   4.894  11.366  0.00  0.00    +0.000 A 
ATOM      5  C   UNL     1      45.152   3.912  12.298  0.00  0.00    +0.000 A 
ATOM      6  C   UNL     1      46.117   4.180  13.275  0.00  0.00    +0.000 A 
ENDROOT
BRANCH   1   8
ATOM      7  O   UNL     1      48.785   6.372  14.053  0.00  0.00    +0.000 OA
ATOM      8  C   UNL     1      47.772   5.745  14.358  0.00  0.00    +0.000 C 
ATOM      9  N   UNL     1      47.509   5.277  15.627  0.00  0.00    +0.000 N 
ATOM     10  H   UNL     1      46.689   4.708  15.785  0.00  0.00    +0.000 HD
BRANCH   9  11
ATOM     11  C   UNL     1      48.398   5.500  16.752  0.00  0.00    +0.000 C 
BRANCH  11  12
ATOM     12  C   UNL     1      48.137   4.506  17.903  0.00  0.00    +0.000 C 
ATOM     13  C   UNL     1      49.347   4.392  18.845  0.00  0.00    +0.000 C 
ATOM     14  C   UNL     1      50.525   3.699  18.157  0.00  0.00    +0.000 C 
ATOM     15  N   UNL     1      50.158   2.358  17.702  0.00  0.00    +0.000 NA
ATOM     16  C   UNL     1      49.016   2.397  16.783  0.00  0.00    +0.000 C 
ATOM     17  C   UNL     1      47.801   3.090  17.406  0.00  0.00    +0.000 C 
ATOM     18  H   UNL     1      49.914   1.784  18.510  0.00  0.00    +0.000 HD
ENDBRANCH  11  12
ENDBRANCH   9  11
ENDBRANCH   1   8
BRANCH   4  19
ATOM     19  C   UNL     1      43.680   4.628  10.366  0.00  0.00    +0.000 C 
BRANCH  19  20
ATOM     20  N   UNL     1      44.074   3.616   9.387  0.00  0.00    +0.000 NA
ATOM     21  H   UNL     1      43.242   3.304   8.887  0.00  0.00    +0.000 HD
BRANCH  20  22
ATOM     22  C   UNL     1      45.041   4.137   8.421  0.00  0.00    +0.000 C 
BRANCH  22  23
ATOM     23  C   UNL     1      45.857   3.022   7.818  0.00  0.00    +0.000 A 
ATOM     24  C   UNL     1      46.640   3.210   6.673  0.00  0.00    +0.000 A 
ATOM     25  C   UNL     1      47.396   2.153   6.167  0.00  0.00    +0.000 A 
ATOM     26  C   UNL     1      47.337   0.934   6.821  0.00  0.00    +0.000 A 
ATOM     27  N   UNL     1      46.581   0.705   7.914  0.00  0.00    +0.000 NA
ATOM     28  C   UNL     1      45.859   1.750   8.383  0.00  0.00    +0.000 A 
ENDBRANCH  22  23
ENDBRANCH  20  22
ENDBRANCH  19  20
ENDBRANCH   4  19
TORSDOF 7
ENDMDL
MODEL 2
REMARK VINA RESULT:    -7.275      1.692      2.095
REMARK INTER + INTRA:         -10.999
REMARK INTER:                 -10.384
REMARK INTRA:                  -0.615
REMARK UNBOUND:                -0.746
REMARK  Name = 
REMARK  7 active torsions:
REMARK  status: ('A' for Active; 'I' for Inactive)
REMARK    1  A    between atoms: C_2  and  C_11
REMARK    2  A    between atoms: N_3  and  C_4
REMARK    3  A    between atoms: C_4  and  C_5
REMARK    4  A    between atoms: C_14  and  C_15
REMARK    5  A    between atoms: C_15  and  N_16
REMARK    6  A    between atoms: N_16  and  C_17
REMARK    7  A    between atoms: C_17  and  C_18
REMARK                            x       y       z     vdW  Elec       q    Type
REMARK                         _______ _______ _______ _____ _____    ______ ____
ROOT
ATOM      1  C   UNL     1      46.898   4.829  14.010  0.00  0.00    +0.000 A 
ATOM      2  C   UNL     1      47.137   6.062  13.394  0.00  0.00    +0.000 A 
ATOM      3  C   UNL     1      46.502   6.379  12.189  0.00  0.00    +0.000 A 
ATOM      4  C   UNL     1      45.616   5.474  11.579  0.00  0.00    +0.000 A 
ATOM      5  C   UNL     1      45.388   4.238  12.201  0.00  0.00    +0.000 A 
ATOM      6  C   UNL     1      46.015   3.920  13.411  0.00  0.00    +0.000 A 
ENDROOT
BRANCH   1   8
ATOM      7  O   UNL     1      47.646   3.360  15.696  0.00  0.00    +0.000 OA
ATOM      8  C   UNL     1      47.572   4.522  15.302  0.00  0.00    +0.000 C 
ATOM      9  N   UNL     1      48.064   5.604  15.998  0.00  0.00    +0.000 N 
ATOM     10  H   UNL     1      47.901   6.537  15.643  0.00  0.00    +0.000 HD
BRANCH   9  11
ATOM     11  C   UNL     1      48.751   5.481  17.270  0.00  0.00    +0.000 C 
BRANCH  11  12
ATOM     12  C   UNL     1      47.786   5.115  18.417  0.00  0.00    +0.000 C 
ATOM     13  C   UNL     1      47.268   6.365  19.147  0.00  0.00    +0.000 C 
ATOM     14  C   UNL     1      48.382   7.047  19.945  0.00  0.00    +0.000 C 
ATOM     15  N   UNL     1      48.962   6.134  20.931  0.00  0.00    +0.000 NA
ATOM     16  C   UNL     1      49.492   4.924  20.295  0.00  0.00    +0.000 C 
ATOM     17  C   UNL     1      48.428   4.196  19.469  0.00  0.00    +0.000 C 
ATOM     18  H   UNL     1      48.243   5.868  21.604  0.00  0.00    +0.000 HD
ENDBRANCH  11  12
ENDBRANCH   9  11
ENDBRANCH   1   8
BRANCH   4  19
ATOM     19  C   UNL     1      44.868   5.846  10.316  0.00  0.00    +0.000 C 
BRANCH  19  20
ATOM     20  N   UNL     1      45.516   5.297   9.127  0.00  0.00    +0.000 NA
ATOM     21  H   UNL     1      46.458   4.996   9.378  0.00  0.00    +0.000 HD
BRANCH  20  22
ATOM     22  C   UNL     1      44.782   4.155   8.582  0.00  0.00    +0.000 C 
BRANCH  22  23
ATOM     23  C   UNL     1      45.727   3.125   8.017  0.00  0.00    +0.000 A 
ATOM     24  C   UNL     1      46.640   3.432   7.001  0.00  0.00    +0.000 A 
ATOM     25  C   UNL     1      47.510   2.450   6.528  0.00  0.00    +0.000 A 
ATOM     26  C   UNL     1      47.432   1.185   7.082  0.00  0.00    +0.000 A 
ATOM     27  N   UNL     1      46.553   0.841   8.047  0.00  0.00    +0.000 NA
ATOM     28  C   UNL     1      45.723   1.815   8.487  0.00  0.00    +0.000 A 
ENDBRANCH  22  23
ENDBRANCH  20  22
ENDBRANCH  19  20
ENDBRANCH   4  19
TORSDOF 7
ENDMDL
MODEL 3
REMARK VINA RESULT:    -7.137      1.626      2.473
REMARK INTER + INTRA:         -10.805
REMARK INTER:                  -9.948
REMARK INTRA:                  -0.857
REMARK UNBOUND:                -0.746
REMARK  Name = 
REMARK  7 active torsions:
REMARK  status: ('A' for Active; 'I' for Inactive)
REMARK    1  A    between atoms: C_2  and  C_11
REMARK    2  A    between atoms: N_3  and  C_4
REMARK    3  A    between atoms: C_4  and  C_5
REMARK    4  A    between atoms: C_14  and  C_15
REMARK    5  A    between atoms: C_15  and  N_16
REMARK    6  A    between atoms: N_16  and  C_17
REMARK    7  A    between atoms: C_17  and  C_18
REMARK                            x       y       z     vdW  Elec       q    Type
REMARK                         _______ _______ _______ _____ _____    ______ ____
ROOT
ATOM      1  C   UNL     1      46.794   5.918  13.141  0.00  0.00    +0.000 A 
ATOM      2  C   UNL     1      46.181   4.726  13.538  0.00  0.00    +0.000 A 
ATOM      3  C   UNL     1      45.022   4.282  12.893  0.00  0.00    +0.000 A 
ATOM      4  C   UNL     1      44.457   5.019  11.837  0.00  0.00    +0.000 A 
ATOM      5  C   UNL     1      45.074   6.217  11.450  0.00  0.00    +0.000 A 
ATOM      6  C   UNL     1      46.238   6.659  12.088  0.00  0.00    +0.000 A 
ENDROOT
BRANCH   1   8
ATOM      7  O   UNL     1      49.087   6.466  13.200  0.00  0.00    +0.000 OA
ATOM      8  C   UNL     1      48.038   6.360  13.831  0.00  0.00    +0.000 C 
ATOM      9  N   UNL     1      47.921   6.610  15.181  0.00  0.00    +0.000 N 
ATOM     10  H   UNL     1      47.040   6.432  15.644  0.00  0.00    +0.000 HD
BRANCH   9  11
ATOM     11  C   UNL     1      49.033   7.053  16.002  0.00  0.00    +0.000 C 
BRANCH  11  12
ATOM     12  C   UNL     1      49.639   5.899  16.827  0.00  0.00    +0.000 C 
ATOM     13  C   UNL     1      48.552   5.044  17.499  0.00  0.00    +0.000 C 
ATOM     14  C   UNL     1      47.841   5.821  18.610  0.00  0.00    +0.000 C 
ATOM     15  N   UNL     1      48.787   6.265  19.634  0.00  0.00    +0.000 NA
ATOM     16  C   UNL     1      49.846   7.102  19.059  0.00  0.00    +0.000 C 
ATOM     17  C   UNL     1      50.593   6.388  17.929  0.00  0.00    +0.000 C 
ATOM     18  H   UNL     1      49.212   5.449  20.075  0.00  0.00    +0.000 HD
ENDBRANCH  11  12
ENDBRANCH   9  11
ENDBRANCH   1   8
BRANCH   4  19
ATOM     19  C   UNL     1      43.248   4.502  11.086  0.00  0.00    +0.000 C 
BRANCH  19  20
ATOM     20  N   UNL     1      43.603   4.053   9.741  0.00  0.00    +0.000 NA
ATOM     21  H   UNL     1      44.189   4.764   9.303  0.00  0.00    +0.000 HD
BRANCH  20  22
ATOM     22  C   UNL     1      44.332   2.785   9.763  0.00  0.00    +0.000 C 
BRANCH  22  23
ATOM     23  C   UNL     1      45.385   2.747   8.685  0.00  0.00    +0.000 A 
ATOM     24  C   UNL     1      46.068   1.571   8.354  0.00  0.00    +0.000 A 
ATOM     25  C   UNL     1      47.016   1.582   7.331  0.00  0.00    +0.000 A 
ATOM     26  C   UNL     1      47.259   2.777   6.677  0.00  0.00    +0.000 A 
ATOM     27  N   UNL     1      46.638   3.937   6.977  0.00  0.00    +0.000 NA
ATOM     28  C   UNL     1      45.722   3.895   7.972  0.00  0.00    +0.000 A 
ENDBRANCH  22  23
ENDBRANCH  20  22
ENDBRANCH  19  20
ENDBRANCH   4  19
TORSDOF 7
ENDMDL
MODEL 4
REMARK VINA RESULT:    -6.790      3.270      4.675
REMARK INTER + INTRA:         -10.316
REMARK INTER:                  -9.338
REMARK INTRA:                  -0.978
REMARK UNBOUND:                -0.746
REMARK  Name = 
REMARK  7 active torsions:
REMARK  status: ('A' for Active; 'I' for Inactive)
REMARK    1  A    between atoms: C_2  and  C_11
REMARK    2  A    between atoms: N_3  and  C_4
REMARK    3  A    between atoms: C_4  and  C_5
REMARK    4  A    between atoms: C_14  and  C_15
REMARK    5  A    between atoms: C_15  and  N_16
REMARK    6  A    between atoms: N_16  and  C_17
REMARK    7  A    between atoms: C_17  and  C_18
REMARK                            x       y       z     vdW  Elec       q    Type
REMARK                         _______ _______ _______ _____ _____    ______ ____
ROOT
ATOM      1  C   UNL     1      46.601   6.170  12.370  0.00  0.00    +0.000 A 
ATOM      2  C   UNL     1      46.142   5.163  13.225  0.00  0.00    +0.000 A 
ATOM      3  C   UNL     1      45.223   4.215  12.764  0.00  0.00    +0.000 A 
ATOM      4  C   UNL     1      44.748   4.253  11.441  0.00  0.00    +0.000 A 
ATOM      5  C   UNL     1      45.208   5.270  10.593  0.00  0.00    +0.000 A 
ATOM      6  C   UNL     1      46.134   6.215  11.048  0.00  0.00    +0.000 A 
ENDROOT
BRANCH   1   8
ATOM      7  O   UNL     1      47.214   8.156  13.485  0.00  0.00    +0.000 OA
ATOM      8  C   UNL     1      47.594   7.157  12.878  0.00  0.00    +0.000 C 
ATOM      9  N   UNL     1      48.915   6.878  12.603  0.00  0.00    +0.000 N 
ATOM     10  H   UNL     1      49.144   6.073  12.036  0.00  0.00    +0.000 HD
BRANCH   9  11
ATOM     11  C   UNL     1      50.009   7.731  13.029  0.00  0.00    +0.000 C 
BRANCH  11  12
ATOM     12  C   UNL     1      50.414   8.742  11.937  0.00  0.00    +0.000 C 
ATOM     13  C   UNL     1      51.788   8.409  11.332  0.00  0.00    +0.000 C 
ATOM     14  C   UNL     1      52.914   8.643  12.343  0.00  0.00    +0.000 C 
ATOM     15  N   UNL     1      52.929  10.032  12.804  0.00  0.00    +0.000 NA
ATOM     16  C   UNL     1      51.648  10.410  13.409  0.00  0.00    +0.000 C 
ATOM     17  C   UNL     1      50.473  10.189  12.453  0.00  0.00    +0.000 C 
ATOM     18  H   UNL     1      53.117  10.647  12.012  0.00  0.00    +0.000 HD
ENDBRANCH  11  12
ENDBRANCH   9  11
ENDBRANCH   1   8
BRANCH   4  19
ATOM     19  C   UNL     1      43.813   3.183  10.917  0.00  0.00    +0.000 C 
BRANCH  19  20
ATOM     20  N   UNL     1      43.948   3.013   9.472  0.00  0.00    +0.000 NA
ATOM     21  H   UNL     1      44.445   3.819   9.094  0.00  0.00    +0.000 HD
BRANCH  20  22
ATOM     22  C   UNL     1      44.685   1.797   9.131  0.00  0.00    +0.000 C 
BRANCH  22  23
ATOM     23  C   UNL     1      45.814   2.098   8.179  0.00  0.00    +0.000 A 
ATOM     24  C   UNL     1      45.983   3.363   7.602  0.00  0.00    +0.000 A 
ATOM     25  C   UNL     1      47.058   3.599   6.746  0.00  0.00    +0.000 A 
ATOM     26  C   UNL     1      47.927   2.555   6.484  0.00  0.00    +0.000 A 
ATOM     27  N   UNL     1      47.790   1.316   7.001  0.00  0.00    +0.000 NA
ATOM     28  C   UNL     1      46.739   1.117   7.830  0.00  0.00    +0.000 A 
ENDBRANCH  22  23
ENDBRANCH  20  22
ENDBRANCH  19  20
ENDBRANCH   4  19
TORSDOF 7
ENDMDL
MODEL 5
REMARK VINA RESULT:    -6.698      1.882      2.563
REMARK INTER + INTRA:         -10.185
REMARK INTER:                  -9.465
REMARK INTRA:                  -0.720
REMARK UNBOUND:                -0.746
REMARK  Name = 
REMARK  7 active torsions:
REMARK  status: ('A' for Active; 'I' for Inactive)
REMARK    1  A    between atoms: C_2  and  C_11
REMARK    2  A    between atoms: N_3  and  C_4
REMARK    3  A    between atoms: C_4  and  C_5
REMARK    4  A    between atoms: C_14  and  C_15
REMARK    5  A    between atoms: C_15  and  N_16
REMARK    6  A    between atoms: N_16  and  C_17
REMARK    7  A    between atoms: C_17  and  C_18
REMARK                            x       y       z     vdW  Elec       q    Type
REMARK                         _______ _______ _______ _____ _____    ______ ____
ROOT
ATOM      1  C   UNL     1      46.672   4.583  14.037  0.00  0.00    +0.000 A 
ATOM      2  C   UNL     1      46.666   5.825  13.394  0.00  0.00    +0.000 A 
ATOM      3  C   UNL     1      45.982   5.987  12.185  0.00  0.00    +0.000 A 
ATOM      4  C   UNL     1      45.289   4.914  11.598  0.00  0.00    +0.000 A 
ATOM      5  C   UNL     1      45.306   3.670  12.246  0.00  0.00    +0.000 A 
ATOM      6  C   UNL     1      45.983   3.507  13.460  0.00  0.00    +0.000 A 
ENDROOT
BRANCH   1   8
ATOM      7  O   UNL     1      47.419   3.353  15.906  0.00  0.00    +0.000 OA
ATOM      8  C   UNL     1      47.392   4.440  15.333  0.00  0.00    +0.000 C 
ATOM      9  N   UNL     1      47.983   5.584  15.823  0.00  0.00    +0.000 N 
ATOM     10  H   UNL     1      47.857   6.458  15.330  0.00  0.00    +0.000 HD
BRANCH   9  11
ATOM     11  C   UNL     1      48.727   5.619  17.069  0.00  0.00    +0.000 C 
BRANCH  11  12
ATOM     12  C   UNL     1      50.198   6.029  16.854  0.00  0.00    +0.000 C 
ATOM     13  C   UNL     1      50.812   6.640  18.125  0.00  0.00    +0.000 C 
ATOM     14  C   UNL     1      50.197   8.006  18.440  0.00  0.00    +0.000 C 
ATOM     15  N   UNL     1      50.389   8.941  17.330  0.00  0.00    +0.000 NA
ATOM     16  C   UNL     1      49.810   8.424  16.087  0.00  0.00    +0.000 C 
ATOM     17  C   UNL     1      50.375   7.050  15.717  0.00  0.00    +0.000 C 
ATOM     18  H   UNL     1      51.388   9.097  17.192  0.00  0.00    +0.000 HD
ENDBRANCH  11  12
ENDBRANCH   9  11
ENDBRANCH   1   8
BRANCH   4  19
ATOM     19  C   UNL     1      44.483   5.106  10.330  0.00  0.00    +0.000 C 
BRANCH  19  20
ATOM     20  N   UNL     1      44.317   3.848   9.605  0.00  0.00    +0.000 NA
ATOM     21  H   UNL     1      43.345   3.551   9.685  0.00  0.00    +0.000 HD
BRANCH  20  22
ATOM     22  C   UNL     1      44.655   3.985   8.188  0.00  0.00    +0.000 C 
BRANCH  22  23
ATOM     23  C   UNL     1      45.685   2.964   7.778  0.00  0.00    +0.000 A 
ATOM     24  C   UNL     1      46.665   3.242   6.817  0.00  0.00    +0.000 A 
ATOM     25  C   UNL     1      47.611   2.272   6.488  0.00  0.00    +0.000 A 
ATOM     26  C   UNL     1      47.541   1.046   7.127  0.00  0.00    +0.000 A 
ATOM     27  N   UNL     1      46.602   0.730   8.043  0.00  0.00    +0.000 NA
ATOM     28  C   UNL     1      45.698   1.692   8.343  0.00  0.00    +0.000 A 
ENDBRANCH  22  23
ENDBRANCH  20  22
ENDBRANCH  19  20
ENDBRANCH   4  19
TORSDOF 7
ENDMDL
MODEL 6
REMARK VINA RESULT:    -6.690      2.485      3.223
REMARK INTER + INTRA:         -10.174
REMARK INTER:                  -9.328
REMARK INTRA:                  -0.845
REMARK UNBOUND:                -0.746
REMARK  Name = 
REMARK  7 active torsions:
REMARK  status: ('A' for Active; 'I' for Inactive)
REMARK    1  A    between atoms: C_2  and  C_11
REMARK    2  A    between atoms: N_3  and  C_4
REMARK    3  A    between atoms: C_4  and  C_5
REMARK    4  A    between atoms: C_14  and  C_15
REMARK    5  A    between atoms: C_15  and  N_16
REMARK    6  A    between atoms: N_16  and  C_17
REMARK    7  A    between atoms: C_17  and  C_18
REMARK                            x       y       z     vdW  Elec       q    Type
REMARK                         _______ _______ _______ _____ _____    ______ ____
ROOT
ATOM      1  C   UNL     1      46.433   5.936  12.744  0.00  0.00    +0.000 A 
ATOM      2  C   UNL     1      45.921   6.308  11.497  0.00  0.00    +0.000 A 
ATOM      3  C   UNL     1      45.123   5.418  10.771  0.00  0.00    +0.000 A 
ATOM      4  C   UNL     1      44.820   4.142  11.278  0.00  0.00    +0.000 A 
ATOM      5  C   UNL     1      45.344   3.774  12.526  0.00  0.00    +0.000 A 
ATOM      6  C   UNL     1      46.136   4.666  13.258  0.00  0.00    +0.000 A 
ENDROOT
BRANCH   1   8
ATOM      7  O   UNL     1      47.406   8.056  13.091  0.00  0.00    +0.000 OA
ATOM      8  C   UNL     1      47.265   6.908  13.507  0.00  0.00    +0.000 C 
ATOM      9  N   UNL     1      47.853   6.427  14.656  0.00  0.00    +0.000 N 
ATOM     10  H   UNL     1      47.748   5.450  14.895  0.00  0.00    +0.000 HD
BRANCH   9  11
ATOM     11  C   UNL     1      48.689   7.242  15.518  0.00  0.00    +0.000 C 
BRANCH  11  12
ATOM     12  C   UNL     1      50.190   7.053  15.215  0.00  0.00    +0.000 C 
ATOM     13  C   UNL     1      51.052   7.218  16.478  0.00  0.00    +0.000 C 
ATOM     14  C   UNL     1      51.059   8.670  16.962  0.00  0.00    +0.000 C 
ATOM     15  N   UNL     1      51.566   9.571  15.926  0.00  0.00    +0.000 NA
ATOM     16  C   UNL     1      50.775   9.474  14.696  0.00  0.00    +0.000 C 
ATOM     17  C   UNL     1      50.717   8.041  14.161  0.00  0.00    +0.000 C 
ATOM     18  H   UNL     1      52.535   9.330  15.717  0.00  0.00    +0.000 HD
ENDBRANCH  11  12
ENDBRANCH   9  11
ENDBRANCH   1   8
BRANCH   4  19
ATOM     19  C   UNL     1      43.894   3.206  10.530  0.00  0.00    +0.000 C 
BRANCH  19  20
ATOM     20  N   UNL     1      44.344   2.990   9.156  0.00  0.00    +0.000 NA
ATOM     21  H   UNL     1      44.692   3.873   8.784  0.00  0.00    +0.000 HD
BRANCH  20  22
ATOM     22  C   UNL     1      45.409   1.990   9.080  0.00  0.00    +0.000 C 
BRANCH  22  23
ATOM     23  C   UNL     1      46.171   2.110   7.786  0.00  0.00    +0.000 A 
ATOM     24  C   UNL     1      46.084   3.248   6.974  0.00  0.00    +0.000 A 
ATOM     25  C   UNL     1      46.828   3.321   5.797  0.00  0.00    +0.000 A 
ATOM     26  C   UNL     1      47.632   2.245   5.463  0.00  0.00    +0.000 A 
ATOM     27  N   UNL     1      47.730   1.123   6.205  0.00  0.00    +0.000 NA
ATOM     28  C   UNL     1      46.998   1.081   7.342  0.00  0.00    +0.000 A 
ENDBRANCH  22  23
ENDBRANCH  20  22
ENDBRANCH  19  20
ENDBRANCH   4  19
TORSDOF 7
ENDMDL
MODEL 7
REMARK VINA RESULT:    -6.431      3.163      9.820
REMARK INTER + INTRA:          -9.808
REMARK INTER:                  -8.637
REMARK INTRA:                  -1.172
REMARK UNBOUND:                -0.746
REMARK  Name = 
REMARK  7 active torsions:
REMARK  status: ('A' for Active; 'I' for Inactive)
REMARK    1  A    between atoms: C_2  and  C_11
REMARK    2  A    between atoms: N_3  and  C_4
REMARK    3  A    between atoms: C_4  and  C_5
REMARK    4  A    between atoms: C_14  and  C_15
REMARK    5  A    between atoms: C_15  and  N_16
REMARK    6  A    between atoms: N_16  and  C_17
REMARK    7  A    between atoms: C_17  and  C_18
REMARK                            x       y       z     vdW  Elec       q    Type
REMARK                         _______ _______ _______ _____ _____    ______ ____
ROOT
ATOM      1  C   UNL     1      47.540   4.279  15.880  0.00  0.00    +0.000 A 
ATOM      2  C   UNL     1      47.382   3.205  16.762  0.00  0.00    +0.000 A 
ATOM      3  C   UNL     1      47.919   3.271  18.052  0.00  0.00    +0.000 A 
ATOM      4  C   UNL     1      48.619   4.411  18.485  0.00  0.00    +0.000 A 
ATOM      5  C   UNL     1      48.777   5.480  17.591  0.00  0.00    +0.000 A 
ATOM      6  C   UNL     1      48.235   5.420  16.303  0.00  0.00    +0.000 A 
ENDROOT
BRANCH   1   8
ATOM      7  O   UNL     1      47.027   3.148  13.874  0.00  0.00    +0.000 OA
ATOM      8  C   UNL     1      46.943   4.192  14.517  0.00  0.00    +0.000 C 
ATOM      9  N   UNL     1      46.334   5.337  14.053  0.00  0.00    +0.000 N 
ATOM     10  H   UNL     1      46.368   6.179  14.612  0.00  0.00    +0.000 HD
BRANCH   9  11
ATOM     11  C   UNL     1      45.700   5.423  12.750  0.00  0.00    +0.000 C 
BRANCH  11  12
ATOM     12  C   UNL     1      44.168   5.566  12.860  0.00  0.00    +0.000 C 
ATOM     13  C   UNL     1      43.512   4.285  13.404  0.00  0.00    +0.000 C 
ATOM     14  C   UNL     1      43.602   3.140  12.391  0.00  0.00    +0.000 C 
ATOM     15  N   UNL     1      42.953   3.499  11.129  0.00  0.00    +0.000 NA
ATOM     16  C   UNL     1      43.545   4.708  10.547  0.00  0.00    +0.000 C 
ATOM     17  C   UNL     1      43.499   5.893  11.515  0.00  0.00    +0.000 C 
ATOM     18  H   UNL     1      41.961   3.663  11.297  0.00  0.00    +0.000 HD
ENDBRANCH  11  12
ENDBRANCH   9  11
ENDBRANCH   1   8
BRANCH   4  19
ATOM     19  C   UNL     1      49.133   4.517  19.905  0.00  0.00    +0.000 C 
BRANCH  19  20
ATOM     20  N   UNL     1      48.072   4.905  20.832  0.00  0.00    +0.000 NA
ATOM     21  H   UNL     1      47.894   4.130  21.470  0.00  0.00    +0.000 HD
BRANCH  20  22
ATOM     22  C   UNL     1      48.435   6.088  21.614  0.00  0.00    +0.000 C 
BRANCH  22  23
ATOM     23  C   UNL     1      48.499   7.314  20.741  0.00  0.00    +0.000 A 
ATOM     24  C   UNL     1      47.375   7.807  20.067  0.00  0.00    +0.000 A 
ATOM     25  C   UNL     1      47.480   8.960  19.290  0.00  0.00    +0.000 A 
ATOM     26  C   UNL     1      48.713   9.580  19.202  0.00  0.00    +0.000 A 
ATOM     27  N   UNL     1      49.826   9.128  19.818  0.00  0.00    +0.000 NA
ATOM     28  C   UNL     1      49.693   8.009  20.567  0.00  0.00    +0.000 A 
ENDBRANCH  22  23
ENDBRANCH  20  22
ENDBRANCH  19  20
ENDBRANCH   4  19
TORSDOF 7
ENDMDL
MODEL 8
REMARK VINA RESULT:    -6.331      2.714      3.514
REMARK INTER + INTRA:          -9.668
REMARK INTER:                  -8.879
REMARK INTRA:                  -0.789
REMARK UNBOUND:                -0.746
REMARK  Name = 
REMARK  7 active torsions:
REMARK  status: ('A' for Active; 'I' for Inactive)
REMARK    1  A    between atoms: C_2  and  C_11
REMARK    2  A    between atoms: N_3  and  C_4
REMARK    3  A    between atoms: C_4  and  C_5
REMARK    4  A    between atoms: C_14  and  C_15
REMARK    5  A    between atoms: C_15  and  N_16
REMARK    6  A    between atoms: N_16  and  C_17
REMARK    7  A    between atoms: C_17  and  C_18
REMARK                            x       y       z     vdW  Elec       q    Type
REMARK                         _______ _______ _______ _____ _____    ______ ____
ROOT
ATOM      1  C   UNL     1      47.641   6.168  14.015  0.00  0.00    +0.000 A 
ATOM      2  C   UNL     1      47.001   6.509  12.819  0.00  0.00    +0.000 A 
ATOM      3  C   UNL     1      46.135   5.601  12.202  0.00  0.00    +0.000 A 
ATOM      4  C   UNL     1      45.891   4.337  12.769  0.00  0.00    +0.000 A 
ATOM      5  C   UNL     1      46.543   4.001  13.964  0.00  0.00    +0.000 A 
ATOM      6  C   UNL     1      47.403   4.911  14.588  0.00  0.00    +0.000 A 
ENDROOT
BRANCH   1   8
ATOM      7  O   UNL     1      49.744   6.917  14.778  0.00  0.00    +0.000 OA
ATOM      8  C   UNL     1      48.545   7.160  14.663  0.00  0.00    +0.000 C 
ATOM      9  N   UNL     1      47.944   8.313  15.120  0.00  0.00    +0.000 N 
ATOM     10  H   UNL     1      46.940   8.409  15.052  0.00  0.00    +0.000 HD
BRANCH   9  11
ATOM     11  C   UNL     1      48.678   9.382  15.770  0.00  0.00    +0.000 C 
BRANCH  11  12
ATOM     12  C   UNL     1      48.125   9.693  17.176  0.00  0.00    +0.000 C 
ATOM     13  C   UNL     1      48.983  10.738  17.909  0.00  0.00    +0.000 C 
ATOM     14  C   UNL     1      50.355  10.171  18.282  0.00  0.00    +0.000 C 
ATOM     15  N   UNL     1      50.224   8.989  19.136  0.00  0.00    +0.000 NA
ATOM     16  C   UNL     1      49.428   7.943  18.486  0.00  0.00    +0.000 C 
ATOM     17  C   UNL     1      48.042   8.448  18.075  0.00  0.00    +0.000 C 
ATOM     18  H   UNL     1      49.772   9.256  20.011  0.00  0.00    +0.000 HD
ENDBRANCH  11  12
ENDBRANCH   9  11
ENDBRANCH   1   8
BRANCH   4  19
ATOM     19  C   UNL     1      44.895   3.382  12.145  0.00  0.00    +0.000 C 
BRANCH  19  20
ATOM     20  N   UNL     1      44.468   3.840  10.824  0.00  0.00    +0.000 NA
ATOM     21  H   UNL     1      45.178   4.469  10.451  0.00  0.00    +0.000 HD
BRANCH  20  22
ATOM     22  C   UNL     1      44.284   2.726   9.893  0.00  0.00    +0.000 C 
BRANCH  22  23
ATOM     23  C   UNL     1      45.324   2.757   8.802  0.00  0.00    +0.000 A 
ATOM     24  C   UNL     1      46.003   1.604   8.390  0.00  0.00    +0.000 A 
ATOM     25  C   UNL     1      46.939   1.680   7.359  0.00  0.00    +0.000 A 
ATOM     26  C   UNL     1      47.174   2.913   6.778  0.00  0.00    +0.000 A 
ATOM     27  N   UNL     1      46.558   4.051   7.158  0.00  0.00    +0.000 NA
ATOM     28  C   UNL     1      45.653   3.947   8.159  0.00  0.00    +0.000 A 
ENDBRANCH  22  23
ENDBRANCH  20  22
ENDBRANCH  19  20
ENDBRANCH   4  19
TORSDOF 7
ENDMDL
MODEL 9
REMARK VINA RESULT:    -6.029      4.024      5.203
REMARK INTER + INTRA:          -9.243
REMARK INTER:                  -8.457
REMARK INTRA:                  -0.786
REMARK UNBOUND:                -0.746
REMARK  Name = 
REMARK  7 active torsions:
REMARK  status: ('A' for Active; 'I' for Inactive)
REMARK    1  A    between atoms: C_2  and  C_11
REMARK    2  A    between atoms: N_3  and  C_4
REMARK    3  A    between atoms: C_4  and  C_5
REMARK    4  A    between atoms: C_14  and  C_15
REMARK    5  A    between atoms: C_15  and  N_16
REMARK    6  A    between atoms: N_16  and  C_17
REMARK    7  A    between atoms: C_17  and  C_18
REMARK                            x       y       z     vdW  Elec       q    Type
REMARK                         _______ _______ _______ _____ _____    ______ ____
ROOT
ATOM      1  C   UNL     1      48.105   6.877  13.070  0.00  0.00    +0.000 A 
ATOM      2  C   UNL     1      47.697   7.155  11.762  0.00  0.00    +0.000 A 
ATOM      3  C   UNL     1      46.593   6.493  11.216  0.00  0.00    +0.000 A 
ATOM      4  C   UNL     1      45.875   5.545  11.966  0.00  0.00    +0.000 A 
ATOM      5  C   UNL     1      46.296   5.268  13.274  0.00  0.00    +0.000 A 
ATOM      6  C   UNL     1      47.395   5.934  13.827  0.00  0.00    +0.000 A 
ENDROOT
BRANCH   1   8
ATOM      7  O   UNL     1      49.446   7.642  14.854  0.00  0.00    +0.000 OA
ATOM      8  C   UNL     1      49.273   7.608  13.637  0.00  0.00    +0.000 C 
ATOM      9  N   UNL     1      50.093   8.233  12.724  0.00  0.00    +0.000 N 
ATOM     10  H   UNL     1      49.845   8.220  11.744  0.00  0.00    +0.000 HD
BRANCH   9  11
ATOM     11  C   UNL     1      51.276   8.983  13.106  0.00  0.00    +0.000 C 
BRANCH  11  12
ATOM     12  C   UNL     1      52.534   8.505  12.354  0.00  0.00    +0.000 C 
ATOM     13  C   UNL     1      53.745   9.411  12.632  0.00  0.00    +0.000 C 
ATOM     14  C   UNL     1      53.565  10.792  11.997  0.00  0.00    +0.000 C 
ATOM     15  N   UNL     1      53.379  10.689  10.549  0.00  0.00    +0.000 NA
ATOM     16  C   UNL     1      52.225   9.848  10.215  0.00  0.00    +0.000 C 
ATOM     17  C   UNL     1      52.336   8.450  10.830  0.00  0.00    +0.000 C 
ATOM     18  H   UNL     1      54.217  10.284  10.132  0.00  0.00    +0.000 HD
ENDBRANCH  11  12
ENDBRANCH   9  11
ENDBRANCH   1   8
BRANCH   4  19
ATOM     19  C   UNL     1      44.633   4.884  11.404  0.00  0.00    +0.000 C 
BRANCH  19  20
ATOM     20  N   UNL     1      44.587   4.981   9.946  0.00  0.00    +0.000 NA
ATOM     21  H   UNL     1      45.524   5.186   9.602  0.00  0.00    +0.000 HD
BRANCH  20  22
ATOM     22  C   UNL     1      44.116   3.740   9.331  0.00  0.00    +0.000 C 
BRANCH  22  23
ATOM     23  C   UNL     1      45.225   3.059   8.571  0.00  0.00    +0.000 A 
ATOM     24  C   UNL     1      46.044   3.753   7.671  0.00  0.00    +0.000 A 
ATOM     25  C   UNL     1      47.073   3.083   7.009  0.00  0.00    +0.000 A 
ATOM     26  C   UNL     1      47.245   1.733   7.262  0.00  0.00    +0.000 A 
ATOM     27  N   UNL     1      46.466   1.023   8.105  0.00  0.00    +0.000 NA
ATOM     28  C   UNL     1      45.477   1.700   8.734  0.00  0.00    +0.000 A 
ENDBRANCH  22  23
ENDBRANCH  20  22
ENDBRANCH  19  20
ENDBRANCH   4  19
TORSDOF 7
ENDMDL
