MODEL 1
REMARK VINA RESULT:    -7.952      0.000      0.000
REMARK INTER + INTRA:         -11.915
REMARK INTER:                 -10.741
REMARK INTRA:                  -1.175
REMARK UNBOUND:                -1.175
REMARK  Name = 
REMARK  7 active torsions:
REMARK  status: ('A' for Active; 'I' for Inactive)
REMARK    1  A    between atoms: C_1  and  O_2
REMARK    2  A    between atoms: O_2  and  C_3
REMARK    3  A    between atoms: C_8  and  C_9
REMARK    4  A    between atoms: C_9  and  C_10
REMARK    5  A    between atoms: C_13  and  C_14
REMARK    6  A    between atoms: C_14  and  N_15
REMARK    7  A    between atoms: C_16  and  C_18
REMARK                            x       y       z     vdW  Elec       q    Type
REMARK                         _______ _______ _______ _____ _____    ______ ____
ROOT
ATOM      1  C   UNL     1      47.545   8.408  13.722  0.00  0.00    +0.000 C 
ENDROOT
BRANCH   1   5
ATOM      2  C   UNL     1      44.831   6.260  11.128  0.00  0.00    +0.000 A 
ATOM      3  C   UNL     1      46.056   5.694  11.503  0.00  0.00    +0.000 A 
ATOM      4  C   UNL     1      46.956   6.408  12.300  0.00  0.00    +0.000 A 
ATOM      5  C   UNL     1      46.643   7.696  12.751  0.00  0.00    +0.000 A 
ATOM      6  C   UNL     1      45.454   8.292  12.310  0.00  0.00    +0.000 A 
ATOM      7  C   UNL     1      44.554   7.579  11.512  0.00  0.00    +0.000 A 
BRANCH   2   8
ATOM      8  C   UNL     1      43.833   5.447  10.333  0.00  0.00    +0.000 C 
BRANCH   8  14
ATOM      9  C   UNL     1      44.132   2.916  10.025  0.00  0.00    +0.000 A 
ATOM     10  C   UNL     1      44.762   1.845   9.374  0.00  0.00    +0.000 A 
ATOM     11  C   UNL     1      45.659   2.073   8.329  0.00  0.00    +0.000 A 
ATOM     12  C   UNL     1      45.914   3.371   7.905  0.00  0.00    +0.000 A 
ATOM     13  C   UNL     1      45.287   4.444   8.538  0.00  0.00    +0.000 A 
ATOM     14  C   UNL     1      44.406   4.236   9.616  0.00  0.00    +0.000 A 
BRANCH   9  16
ATOM     15  C   UNL     1      43.776   2.740  12.372  0.00  0.00    +0.000 C 
ATOM     16  O   UNL     1      43.237   2.761  11.053  0.00  0.00    +0.000 OA
ENDBRANCH   9  16
ENDBRANCH   8  14
ENDBRANCH   2   8
ENDBRANCH   1   5
BRANCH   1  17
ATOM     17  N   UNL     1      47.826   7.620  14.893  0.00  0.00    +0.000 N 
ATOM     18  C   UNL     1      49.044   6.999  15.035  0.00  0.00    +0.000 C 
ATOM     19  O   UNL     1      49.947   7.148  14.216  0.00  0.00    +0.000 OA
ATOM     20  H   UNL     1      47.033   7.306  15.445  0.00  0.00    +0.000 HD
BRANCH  18  21
ATOM     21  C   UNL     1      49.238   6.190  16.243  0.00  0.00    +0.000 A 
ATOM     22  C   UNL     1      50.263   6.510  17.123  0.00  0.00    +0.000 A 
ATOM     23  S   UNL     1      50.326   5.502  18.497  0.00  0.00    +0.000 S 
ATOM     24  C   UNL     1      49.018   4.570  17.938  0.00  0.00    +0.000 A 
ATOM     25  N   UNL     1      48.566   3.503  18.649  0.00  0.00    +0.000 NA
ATOM     26  C   UNL     1      47.591   2.865  18.092  0.00  0.00    +0.000 A 
ATOM     27  N   UNL     1      47.021   3.202  16.891  0.00  0.00    +0.000 N 
ATOM     28  C   UNL     1      47.427   4.287  16.153  0.00  0.00    +0.000 A 
ATOM     29  O   UNL     1      46.871   4.584  15.098  0.00  0.00    +0.000 OA
ATOM     30  C   UNL     1      48.529   5.030  16.730  0.00  0.00    +0.000 A 
ATOM     31  H   UNL     1      46.254   2.666  16.513  0.00  0.00    +0.000 HD
ENDBRANCH  18  21
ENDBRANCH   1  17
TORSDOF 6
ENDMDL
MODEL 2
REMARK VINA RESULT:    -7.273      2.288      2.837
REMARK INTER + INTRA:         -10.999
REMARK INTER:                  -9.798
REMARK INTRA:                  -1.201
REMARK UNBOUND:                -1.175
REMARK  Name = 
REMARK  7 active torsions:
REMARK  status: ('A' for Active; 'I' for Inactive)
REMARK    1  A    between atoms: C_1  and  O_2
REMARK    2  A    between atoms: O_2  and  C_3
REMARK    3  A    between atoms: C_8  and  C_9
REMARK    4  A    between atoms: C_9  and  C_10
REMARK    5  A    between atoms: C_13  and  C_14
REMARK    6  A    between atoms: C_14  and  N_15
REMARK    7  A    between atoms: C_16  and  C_18
REMARK                            x       y       z     vdW  Elec       q    Type
REMARK                         _______ _______ _______ _____ _____    ______ ____
ROOT
ATOM      1  C   UNL     1      48.693   6.946  14.493  0.00  0.00    +0.000 C 
ENDROOT
BRANCH   1   5
ATOM      2  C   UNL     1      45.430   6.014  11.812  0.00  0.00    +0.000 A 
ATOM      3  C   UNL     1      45.962   7.308  11.865  0.00  0.00    +0.000 A 
ATOM      4  C   UNL     1      46.982   7.624  12.767  0.00  0.00    +0.000 A 
ATOM      5  C   UNL     1      47.503   6.646  13.624  0.00  0.00    +0.000 A 
ATOM      6  C   UNL     1      46.917   5.374  13.627  0.00  0.00    +0.000 A 
ATOM      7  C   UNL     1      45.896   5.058  12.725  0.00  0.00    +0.000 A 
BRANCH   2   8
ATOM      8  C   UNL     1      44.383   5.666  10.777  0.00  0.00    +0.000 C 
BRANCH   8  14
ATOM      9  C   UNL     1      44.179   3.232   9.986  0.00  0.00    +0.000 A 
ATOM     10  C   UNL     1      44.619   2.192   9.154  0.00  0.00    +0.000 A 
ATOM     11  C   UNL     1      45.610   2.414   8.196  0.00  0.00    +0.000 A 
ATOM     12  C   UNL     1      46.152   3.684   8.041  0.00  0.00    +0.000 A 
ATOM     13  C   UNL     1      45.717   4.729   8.856  0.00  0.00    +0.000 A 
ATOM     14  C   UNL     1      44.743   4.516   9.850  0.00  0.00    +0.000 A 
BRANCH   9  16
ATOM     15  C   UNL     1      43.582   2.403  12.135  0.00  0.00    +0.000 C 
ATOM     16  O   UNL     1      43.206   3.082  10.941  0.00  0.00    +0.000 OA
ENDBRANCH   9  16
ENDBRANCH   8  14
ENDBRANCH   2   8
ENDBRANCH   1   5
BRANCH   1  17
ATOM     17  N   UNL     1      48.418   6.747  15.892  0.00  0.00    +0.000 N 
ATOM     18  C   UNL     1      49.361   6.168  16.708  0.00  0.00    +0.000 C 
ATOM     19  O   UNL     1      50.478   5.868  16.297  0.00  0.00    +0.000 OA
ATOM     20  H   UNL     1      47.446   6.772  16.184  0.00  0.00    +0.000 HD
BRANCH  18  21
ATOM     21  C   UNL     1      48.989   5.973  18.114  0.00  0.00    +0.000 A 
ATOM     22  C   UNL     1      49.196   4.736  18.711  0.00  0.00    +0.000 A 
ATOM     23  S   UNL     1      48.753   4.688  20.357  0.00  0.00    +0.000 S 
ATOM     24  C   UNL     1      48.219   6.302  20.315  0.00  0.00    +0.000 A 
ATOM     25  N   UNL     1      47.685   6.891  21.418  0.00  0.00    +0.000 NA
ATOM     26  C   UNL     1      47.291   8.107  21.236  0.00  0.00    +0.000 A 
ATOM     27  N   UNL     1      47.387   8.791  20.052  0.00  0.00    +0.000 N 
ATOM     28  C   UNL     1      47.943   8.246  18.920  0.00  0.00    +0.000 A 
ATOM     29  O   UNL     1      48.048   8.898  17.885  0.00  0.00    +0.000 OA
ATOM     30  C   UNL     1      48.392   6.875  19.069  0.00  0.00    +0.000 A 
ATOM     31  H   UNL     1      47.067   9.744  19.977  0.00  0.00    +0.000 HD
ENDBRANCH  18  21
ENDBRANCH   1  17
TORSDOF 6
ENDMDL
MODEL 3
REMARK VINA RESULT:    -7.147      1.906      2.347
REMARK INTER + INTRA:         -10.828
REMARK INTER:                  -9.610
REMARK INTRA:                  -1.218
REMARK UNBOUND:                -1.175
REMARK  Name = 
REMARK  7 active torsions:
REMARK  status: ('A' for Active; 'I' for Inactive)
REMARK    1  A    between atoms: C_1  and  O_2
REMARK    2  A    between atoms: O_2  and  C_3
REMARK    3  A    between atoms: C_8  and  C_9
REMARK    4  A    between atoms: C_9  and  C_10
REMARK    5  A    between atoms: C_13  and  C_14
REMARK    6  A    between atoms: C_14  and  N_15
REMARK    7  A    between atoms: C_16  and  C_18
REMARK                            x       y       z     vdW  Elec       q    Type
REMARK                         _______ _______ _______ _____ _____    ______ ____
ROOT
ATOM      1  C   UNL     1      48.772   6.947  14.401  0.00  0.00    +0.000 C 
ENDROOT
BRANCH   1   5
ATOM      2  C   UNL     1      45.486   6.010  11.748  0.00  0.00    +0.000 A 
ATOM      3  C   UNL     1      46.015   7.306  11.799  0.00  0.00    +0.000 A 
ATOM      4  C   UNL     1      47.042   7.623  12.691  0.00  0.00    +0.000 A 
ATOM      5  C   UNL     1      47.574   6.645  13.542  0.00  0.00    +0.000 A 
ATOM      6  C   UNL     1      46.992   5.371  13.549  0.00  0.00    +0.000 A 
ATOM      7  C   UNL     1      45.963   5.054  12.656  0.00  0.00    +0.000 A 
BRANCH   2   8
ATOM      8  C   UNL     1      44.430   5.661  10.723  0.00  0.00    +0.000 C 
BRANCH   8  14
ATOM      9  C   UNL     1      44.190   3.219   9.971  0.00  0.00    +0.000 A 
ATOM     10  C   UNL     1      44.612   2.160   9.152  0.00  0.00    +0.000 A 
ATOM     11  C   UNL     1      45.602   2.354   8.188  0.00  0.00    +0.000 A 
ATOM     12  C   UNL     1      46.161   3.613   8.012  0.00  0.00    +0.000 A 
ATOM     13  C   UNL     1      45.743   4.676   8.812  0.00  0.00    +0.000 A 
ATOM     14  C   UNL     1      44.771   4.493   9.813  0.00  0.00    +0.000 A 
BRANCH   9  16
ATOM     15  C   UNL     1      43.588   2.425  12.132  0.00  0.00    +0.000 C 
ATOM     16  O   UNL     1      43.218   3.097  10.931  0.00  0.00    +0.000 OA
ENDBRANCH   9  16
ENDBRANCH   8  14
ENDBRANCH   2   8
ENDBRANCH   1   5
BRANCH   1  17
ATOM     17  N   UNL     1      48.474   6.878  15.807  0.00  0.00    +0.000 N 
ATOM     18  C   UNL     1      49.187   7.636  16.705  0.00  0.00    +0.000 C 
ATOM     19  O   UNL     1      50.043   8.438  16.341  0.00  0.00    +0.000 OA
ATOM     20  H   UNL     1      47.948   6.073  16.133  0.00  0.00    +0.000 HD
BRANCH  18  21
ATOM     21  C   UNL     1      48.840   7.483  18.122  0.00  0.00    +0.000 A 
ATOM     22  C   UNL     1      48.422   8.592  18.847  0.00  0.00    +0.000 A 
ATOM     23  S   UNL     1      48.014   8.239  20.465  0.00  0.00    +0.000 S 
ATOM     24  C   UNL     1      48.433   6.602  20.268  0.00  0.00    +0.000 A 
ATOM     25  N   UNL     1      48.340   5.727  21.304  0.00  0.00    +0.000 NA
ATOM     26  C   UNL     1      48.721   4.525  21.024  0.00  0.00    +0.000 A 
ATOM     27  N   UNL     1      49.181   4.117  19.799  0.00  0.00    +0.000 N 
ATOM     28  C   UNL     1      49.266   4.959  18.717  0.00  0.00    +0.000 A 
ATOM     29  O   UNL     1      49.648   4.553  17.622  0.00  0.00    +0.000 OA
ATOM     30  C   UNL     1      48.860   6.325  18.983  0.00  0.00    +0.000 A 
ATOM     31  H   UNL     1      49.456   3.159  19.642  0.00  0.00    +0.000 HD
ENDBRANCH  18  21
ENDBRANCH   1  17
TORSDOF 6
ENDMDL
MODEL 4
REMARK VINA RESULT:    -7.118      3.874      6.063
REMARK INTER + INTRA:         -10.790
REMARK INTER:                  -9.996
REMARK INTRA:                  -0.794
REMARK UNBOUND:                -1.175
REMARK  Name = 
REMARK  7 active torsions:
REMARK  status: ('A' for Active; 'I' for Inactive)
REMARK    1  A    between atoms: C_1  and  O_2
REMARK    2  A    between atoms: O_2  and  C_3
REMARK    3  A    between atoms: C_8  and  C_9
REMARK    4  A    between atoms: C_9  and  C_10
REMARK    5  A    between atoms: C_13  and  C_14
REMARK    6  A    between atoms: C_14  and  N_15
REMARK    7  A    between atoms: C_16  and  C_18
REMARK                            x       y       z     vdW  Elec       q    Type
REMARK                         _______ _______ _______ _____ _____    ______ ____
ROOT
ATOM      1  C   UNL     1      44.877   4.385   9.444  0.00  0.00    +0.000 C 
ENDROOT
BRANCH   1   5
ATOM      2  C   UNL     1      46.773   1.632   6.697  0.00  0.00    +0.000 A 
ATOM      3  C   UNL     1      46.617   2.983   6.360  0.00  0.00    +0.000 A 
ATOM      4  C   UNL     1      45.960   3.863   7.224  0.00  0.00    +0.000 A 
ATOM      5  C   UNL     1      45.458   3.413   8.453  0.00  0.00    +0.000 A 
ATOM      6  C   UNL     1      45.542   2.048   8.754  0.00  0.00    +0.000 A 
ATOM      7  C   UNL     1      46.200   1.167   7.889  0.00  0.00    +0.000 A 
BRANCH   2   8
ATOM      8  C   UNL     1      47.556   0.710   5.790  0.00  0.00    +0.000 C 
BRANCH   8  14
ATOM      9  C   UNL     1      46.591  -1.093   4.238  0.00  0.00    +0.000 A 
ATOM     10  C   UNL     1      45.990  -1.442   3.019  0.00  0.00    +0.000 A 
ATOM     11  C   UNL     1      45.627  -0.461   2.095  0.00  0.00    +0.000 A 
ATOM     12  C   UNL     1      45.835   0.880   2.391  0.00  0.00    +0.000 A 
ATOM     13  C   UNL     1      46.423   1.241   3.603  0.00  0.00    +0.000 A 
ATOM     14  C   UNL     1      46.827   0.264   4.533  0.00  0.00    +0.000 A 
BRANCH   9  16
ATOM     15  C   UNL     1      46.589  -3.361   4.959  0.00  0.00    +0.000 C 
ATOM     16  O   UNL     1      46.966  -2.007   5.190  0.00  0.00    +0.000 OA
ENDBRANCH   9  16
ENDBRANCH   8  14
ENDBRANCH   2   8
ENDBRANCH   1   5
BRANCH   1  17
ATOM     17  N   UNL     1      45.821   4.763  10.462  0.00  0.00    +0.000 N 
ATOM     18  C   UNL     1      45.656   5.936  11.160  0.00  0.00    +0.000 C 
ATOM     19  O   UNL     1      44.677   6.658  10.991  0.00  0.00    +0.000 OA
ATOM     20  H   UNL     1      46.729   4.309  10.448  0.00  0.00    +0.000 HD
BRANCH  18  21
ATOM     21  C   UNL     1      46.679   6.261  12.159  0.00  0.00    +0.000 A 
ATOM     22  C   UNL     1      47.606   7.260  11.889  0.00  0.00    +0.000 A 
ATOM     23  S   UNL     1      48.697   7.546  13.168  0.00  0.00    +0.000 S 
ATOM     24  C   UNL     1      48.003   6.309  14.106  0.00  0.00    +0.000 A 
ATOM     25  N   UNL     1      48.494   6.006  15.337  0.00  0.00    +0.000 NA
ATOM     26  C   UNL     1      47.895   5.024  15.925  0.00  0.00    +0.000 A 
ATOM     27  N   UNL     1      46.843   4.321  15.395  0.00  0.00    +0.000 N 
ATOM     28  C   UNL     1      46.298   4.610  14.168  0.00  0.00    +0.000 A 
ATOM     29  O   UNL     1      45.332   3.984  13.738  0.00  0.00    +0.000 OA
ATOM     30  C   UNL     1      46.944   5.698  13.461  0.00  0.00    +0.000 A 
ATOM     31  H   UNL     1      46.413   3.568  15.910  0.00  0.00    +0.000 HD
ENDBRANCH  18  21
ENDBRANCH   1  17
TORSDOF 6
ENDMDL
MODEL 5
REMARK VINA RESULT:    -7.114      1.962      3.071
REMARK INTER + INTRA:         -10.784
REMARK INTER:                 -10.419
REMARK INTRA:                  -0.365
REMARK UNBOUND:                -1.175
REMARK  Name = 
REMARK  7 active torsions:
REMARK  status: ('A' for Active; 'I' for Inactive)
REMARK    1  A    between atoms: C_1  and  O_2
REMARK    2  A    between atoms: O_2  and  C_3
REMARK    3  A    between atoms: C_8  and  C_9
REMARK    4  A    between atoms: C_9  and  C_10
REMARK    5  A    between atoms: C_13  and  C_14
REMARK    6  A    between atoms: C_14  and  N_15
REMARK    7  A    between atoms: C_16  and  C_18
REMARK                            x       y       z     vdW  Elec       q    Type
REMARK                         _______ _______ _______ _____ _____    ______ ____
ROOT
ATOM      1  C   UNL     1      45.130   6.759  12.504  0.00  0.00    +0.000 C 
ENDROOT
BRANCH   1   5
ATOM      2  C   UNL     1      45.122   3.368   9.819  0.00  0.00    +0.000 A 
ATOM      3  C   UNL     1      44.913   3.190  11.193  0.00  0.00    +0.000 A 
ATOM      4  C   UNL     1      44.966   4.279  12.069  0.00  0.00    +0.000 A 
ATOM      5  C   UNL     1      45.213   5.570  11.586  0.00  0.00    +0.000 A 
ATOM      6  C   UNL     1      45.500   5.736  10.225  0.00  0.00    +0.000 A 
ATOM      7  C   UNL     1      45.448   4.647   9.349  0.00  0.00    +0.000 A 
BRANCH   2   8
ATOM      8  C   UNL     1      44.982   2.195   8.873  0.00  0.00    +0.000 C 
BRANCH   8  14
ATOM      9  C   UNL     1      46.742   1.148   7.325  0.00  0.00    +0.000 A 
ATOM     10  C   UNL     1      47.627   1.275   6.244  0.00  0.00    +0.000 A 
ATOM     11  C   UNL     1      47.685   2.455   5.502  0.00  0.00    +0.000 A 
ATOM     12  C   UNL     1      46.840   3.512   5.815  0.00  0.00    +0.000 A 
ATOM     13  C   UNL     1      45.948   3.396   6.881  0.00  0.00    +0.000 A 
ATOM     14  C   UNL     1      45.899   2.226   7.662  0.00  0.00    +0.000 A 
BRANCH   9  16
ATOM     15  C   UNL     1      46.690  -1.230   7.399  0.00  0.00    +0.000 C 
ATOM     16  O   UNL     1      46.631   0.015   8.089  0.00  0.00    +0.000 OA
ENDBRANCH   9  16
ENDBRANCH   8  14
ENDBRANCH   2   8
ENDBRANCH   1   5
BRANCH   1  17
ATOM     17  N   UNL     1      45.986   6.628  13.653  0.00  0.00    +0.000 N 
ATOM     18  C   UNL     1      47.352   6.695  13.511  0.00  0.00    +0.000 C 
ATOM     19  O   UNL     1      47.881   6.935  12.429  0.00  0.00    +0.000 OA
ATOM     20  H   UNL     1      45.587   6.209  14.487  0.00  0.00    +0.000 HD
BRANCH  18  21
ATOM     21  C   UNL     1      48.153   6.521  14.728  0.00  0.00    +0.000 A 
ATOM     22  C   UNL     1      49.111   7.472  15.058  0.00  0.00    +0.000 A 
ATOM     23  S   UNL     1      49.922   7.147  16.522  0.00  0.00    +0.000 S 
ATOM     24  C   UNL     1      49.061   5.697  16.739  0.00  0.00    +0.000 A 
ATOM     25  N   UNL     1      49.298   4.897  17.812  0.00  0.00    +0.000 NA
ATOM     26  C   UNL     1      48.597   3.811  17.834  0.00  0.00    +0.000 A 
ATOM     27  N   UNL     1      47.676   3.457  16.882  0.00  0.00    +0.000 N 
ATOM     28  C   UNL     1      47.386   4.246  15.796  0.00  0.00    +0.000 A 
ATOM     29  O   UNL     1      46.528   3.916  14.980  0.00  0.00    +0.000 OA
ATOM     30  C   UNL     1      48.155   5.472  15.719  0.00  0.00    +0.000 A 
ATOM     31  H   UNL     1      47.155   2.596  16.961  0.00  0.00    +0.000 HD
ENDBRANCH  18  21
ENDBRANCH   1  17
TORSDOF 6
ENDMDL
MODEL 6
REMARK VINA RESULT:    -6.905      2.979      3.965
REMARK INTER + INTRA:         -10.501
REMARK INTER:                  -9.279
REMARK INTRA:                  -1.222
REMARK UNBOUND:                -1.175
REMARK  Name = 
REMARK  7 active torsions:
REMARK  status: ('A' for Active; 'I' for Inactive)
REMARK    1  A    between atoms: C_1  and  O_2
REMARK    2  A    between atoms: O_2  and  C_3
REMARK    3  A    between atoms: C_8  and  C_9
REMARK    4  A    between atoms: C_9  and  C_10
REMARK    5  A    between atoms: C_13  and  C_14
REMARK    6  A    between atoms: C_14  and  N_15
REMARK    7  A    between atoms: C_16  and  C_18
REMARK                            x       y       z     vdW  Elec       q    Type
REMARK                         _______ _______ _______ _____ _____    ______ ____
ROOT
ATOM      1  C   UNL     1      48.828   6.266  15.204  0.00  0.00    +0.000 C 
ENDROOT
BRANCH   1   5
ATOM      2  C   UNL     1      45.913   5.959  12.022  0.00  0.00    +0.000 A 
ATOM      3  C   UNL     1      45.983   4.981  13.023  0.00  0.00    +0.000 A 
ATOM      4  C   UNL     1      46.957   5.051  14.023  0.00  0.00    +0.000 A 
ATOM      5  C   UNL     1      47.873   6.112  14.052  0.00  0.00    +0.000 A 
ATOM      6  C   UNL     1      47.854   7.045  13.008  0.00  0.00    +0.000 A 
ATOM      7  C   UNL     1      46.880   6.974  12.007  0.00  0.00    +0.000 A 
BRANCH   2   8
ATOM      8  C   UNL     1      44.805   5.914  10.994  0.00  0.00    +0.000 C 
BRANCH   8  14
ATOM      9  C   UNL     1      44.190   3.639   9.976  0.00  0.00    +0.000 A 
ATOM     10  C   UNL     1      44.428   2.640   9.020  0.00  0.00    +0.000 A 
ATOM     11  C   UNL     1      45.403   2.810   8.036  0.00  0.00    +0.000 A 
ATOM     12  C   UNL     1      46.131   3.991   7.980  0.00  0.00    +0.000 A 
ATOM     13  C   UNL     1      45.899   4.996   8.918  0.00  0.00    +0.000 A 
ATOM     14  C   UNL     1      44.943   4.829   9.938  0.00  0.00    +0.000 A 
BRANCH   9  16
ATOM     15  C   UNL     1      43.453   2.529  11.948  0.00  0.00    +0.000 C 
ATOM     16  O   UNL     1      43.243   3.537  10.963  0.00  0.00    +0.000 OA
ENDBRANCH   9  16
ENDBRANCH   8  14
ENDBRANCH   2   8
ENDBRANCH   1   5
BRANCH   1  17
ATOM     17  N   UNL     1      48.303   7.107  16.247  0.00  0.00    +0.000 N 
ATOM     18  C   UNL     1      48.871   7.095  17.499  0.00  0.00    +0.000 C 
ATOM     19  O   UNL     1      49.872   6.431  17.751  0.00  0.00    +0.000 OA
ATOM     20  H   UNL     1      47.363   7.471  16.124  0.00  0.00    +0.000 HD
BRANCH  18  21
ATOM     21  C   UNL     1      48.256   7.959  18.513  0.00  0.00    +0.000 A 
ATOM     22  C   UNL     1      47.910   7.425  19.747  0.00  0.00    +0.000 A 
ATOM     23  S   UNL     1      47.248   8.568  20.826  0.00  0.00    +0.000 S 
ATOM     24  C   UNL     1      47.350   9.804  19.663  0.00  0.00    +0.000 A 
ATOM     25  N   UNL     1      46.915  11.062  19.939  0.00  0.00    +0.000 NA
ATOM     26  C   UNL     1      47.021  11.892  18.955  0.00  0.00    +0.000 A 
ATOM     27  N   UNL     1      47.530  11.580  17.721  0.00  0.00    +0.000 N 
ATOM     28  C   UNL     1      48.005  10.330  17.406  0.00  0.00    +0.000 A 
ATOM     29  O   UNL     1      48.489  10.092  16.302  0.00  0.00    +0.000 OA
ATOM     30  C   UNL     1      47.897   9.357  18.474  0.00  0.00    +0.000 A 
ATOM     31  H   UNL     1      47.593  12.278  16.995  0.00  0.00    +0.000 HD
ENDBRANCH  18  21
ENDBRANCH   1  17
TORSDOF 6
ENDMDL
MODEL 7
REMARK VINA RESULT:    -6.807      3.486      7.803
REMARK INTER + INTRA:         -10.369
REMARK INTER:                  -9.106
REMARK INTRA:                  -1.263
REMARK UNBOUND:                -1.175
REMARK  Name = 
REMARK  7 active torsions:
REMARK  status: ('A' for Active; 'I' for Inactive)
REMARK    1  A    between atoms: C_1  and  O_2
REMARK    2  A    between atoms: O_2  and  C_3
REMARK    3  A    between atoms: C_8  and  C_9
REMARK    4  A    between atoms: C_9  and  C_10
REMARK    5  A    between atoms: C_13  and  C_14
REMARK    6  A    between atoms: C_14  and  N_15
REMARK    7  A    between atoms: C_16  and  C_18
REMARK                            x       y       z     vdW  Elec       q    Type
REMARK                         _______ _______ _______ _____ _____    ______ ____
ROOT
ATOM      1  C   UNL     1      48.596   7.566  12.614  0.00  0.00    +0.000 C 
ENDROOT
BRANCH   1   5
ATOM      2  C   UNL     1      49.779   6.172  16.535  0.00  0.00    +0.000 A 
ATOM      3  C   UNL     1      48.510   5.872  16.024  0.00  0.00    +0.000 A 
ATOM      4  C   UNL     1      48.107   6.364  14.780  0.00  0.00    +0.000 A 
ATOM      5  C   UNL     1      48.973   7.154  14.012  0.00  0.00    +0.000 A 
ATOM      6  C   UNL     1      50.210   7.520  14.557  0.00  0.00    +0.000 A 
ATOM      7  C   UNL     1      50.612   7.028  15.803  0.00  0.00    +0.000 A 
BRANCH   2   8
ATOM      8  C   UNL     1      50.231   5.568  17.846  0.00  0.00    +0.000 C 
BRANCH   8  14
ATOM      9  C   UNL     1      50.691   3.049  17.662  0.00  0.00    +0.000 A 
ATOM     10  C   UNL     1      51.609   1.988  17.636  0.00  0.00    +0.000 A 
ATOM     11  C   UNL     1      52.982   2.231  17.673  0.00  0.00    +0.000 A 
ATOM     12  C   UNL     1      53.455   3.536  17.708  0.00  0.00    +0.000 A 
ATOM     13  C   UNL     1      52.554   4.601  17.725  0.00  0.00    +0.000 A 
ATOM     14  C   UNL     1      51.164   4.375  17.723  0.00  0.00    +0.000 A 
BRANCH   9  16
ATOM     15  C   UNL     1      48.800   2.242  16.463  0.00  0.00    +0.000 C 
ATOM     16  O   UNL     1      49.331   2.879  17.621  0.00  0.00    +0.000 OA
ENDBRANCH   9  16
ENDBRANCH   8  14
ENDBRANCH   2   8
ENDBRANCH   1   5
BRANCH   1  17
ATOM     17  N   UNL     1      47.828   6.558  11.931  0.00  0.00    +0.000 N 
ATOM     18  C   UNL     1      46.521   6.801  11.583  0.00  0.00    +0.000 C 
ATOM     19  O   UNL     1      45.990   7.891  11.776  0.00  0.00    +0.000 OA
ATOM     20  H   UNL     1      48.169   5.603  11.975  0.00  0.00    +0.000 HD
BRANCH  18  21
ATOM     21  C   UNL     1      45.800   5.710  10.917  0.00  0.00    +0.000 A 
ATOM     22  C   UNL     1      45.869   5.589   9.535  0.00  0.00    +0.000 A 
ATOM     23  S   UNL     1      45.015   4.246   8.922  0.00  0.00    +0.000 S 
ATOM     24  C   UNL     1      44.478   3.812  10.476  0.00  0.00    +0.000 A 
ATOM     25  N   UNL     1      43.665   2.738  10.659  0.00  0.00    +0.000 NA
ATOM     26  C   UNL     1      43.307   2.543  11.885  0.00  0.00    +0.000 A 
ATOM     27  N   UNL     1      43.694   3.321  12.946  0.00  0.00    +0.000 N 
ATOM     28  C   UNL     1      44.536   4.398  12.811  0.00  0.00    +0.000 A 
ATOM     29  O   UNL     1      44.893   5.053  13.787  0.00  0.00    +0.000 OA
ATOM     30  C   UNL     1      44.957   4.667  11.451  0.00  0.00    +0.000 A 
ATOM     31  H   UNL     1      43.385   3.110  13.883  0.00  0.00    +0.000 HD
ENDBRANCH  18  21
ENDBRANCH   1  17
TORSDOF 6
ENDMDL
MODEL 8
REMARK VINA RESULT:    -6.697      1.533      2.401
REMARK INTER + INTRA:         -10.221
REMARK INTER:                  -8.730
REMARK INTRA:                  -1.491
REMARK UNBOUND:                -1.175
REMARK  Name = 
REMARK  7 active torsions:
REMARK  status: ('A' for Active; 'I' for Inactive)
REMARK    1  A    between atoms: C_1  and  O_2
REMARK    2  A    between atoms: O_2  and  C_3
REMARK    3  A    between atoms: C_8  and  C_9
REMARK    4  A    between atoms: C_9  and  C_10
REMARK    5  A    between atoms: C_13  and  C_14
REMARK    6  A    between atoms: C_14  and  N_15
REMARK    7  A    between atoms: C_16  and  C_18
REMARK                            x       y       z     vdW  Elec       q    Type
REMARK                         _______ _______ _______ _____ _____    ______ ____
ROOT
ATOM      1  C   UNL     1      49.123   8.534  14.154  0.00  0.00    +0.000 C 
ENDROOT
BRANCH   1   5
ATOM      2  C   UNL     1      45.762   7.245  11.754  0.00  0.00    +0.000 A 
ATOM      3  C   UNL     1      47.014   6.632  11.617  0.00  0.00    +0.000 A 
ATOM      4  C   UNL     1      48.113   7.081  12.354  0.00  0.00    +0.000 A 
ATOM      5  C   UNL     1      47.979   8.143  13.258  0.00  0.00    +0.000 A 
ATOM      6  C   UNL     1      46.749   8.807  13.337  0.00  0.00    +0.000 A 
ATOM      7  C   UNL     1      45.649   8.359  12.598  0.00  0.00    +0.000 A 
BRANCH   2   8
ATOM      8  C   UNL     1      44.564   6.698  11.011  0.00  0.00    +0.000 C 
BRANCH   8  14
ATOM      9  C   UNL     1      44.452   4.249  10.250  0.00  0.00    +0.000 A 
ATOM     10  C   UNL     1      44.079   2.921  10.507  0.00  0.00    +0.000 A 
ATOM     11  C   UNL     1      43.526   2.559  11.736  0.00  0.00    +0.000 A 
ATOM     12  C   UNL     1      43.366   3.514  12.732  0.00  0.00    +0.000 A 
ATOM     13  C   UNL     1      43.742   4.835  12.494  0.00  0.00    +0.000 A 
ATOM     14  C   UNL     1      44.269   5.227  11.249  0.00  0.00    +0.000 A 
BRANCH   9  16
ATOM     15  C   UNL     1      45.151   3.687   8.046  0.00  0.00    +0.000 C 
ATOM     16  O   UNL     1      45.006   4.669   9.068  0.00  0.00    +0.000 OA
ENDBRANCH   9  16
ENDBRANCH   8  14
ENDBRANCH   2   8
ENDBRANCH   1   5
BRANCH   1  17
ATOM     17  N   UNL     1      49.224   7.694  15.317  0.00  0.00    +0.000 N 
ATOM     18  C   UNL     1      48.699   8.107  16.519  0.00  0.00    +0.000 C 
ATOM     19  O   UNL     1      48.075   9.159  16.627  0.00  0.00    +0.000 OA
ATOM     20  H   UNL     1      49.919   6.954  15.300  0.00  0.00    +0.000 HD
BRANCH  18  21
ATOM     21  C   UNL     1      48.872   7.204  17.662  0.00  0.00    +0.000 A 
ATOM     22  C   UNL     1      49.310   7.715  18.877  0.00  0.00    +0.000 A 
ATOM     23  S   UNL     1      49.416   6.545  20.114  0.00  0.00    +0.000 S 
ATOM     24  C   UNL     1      48.931   5.306  19.055  0.00  0.00    +0.000 A 
ATOM     25  N   UNL     1      48.838   4.018  19.482  0.00  0.00    +0.000 NA
ATOM     26  C   UNL     1      48.492   3.176  18.566  0.00  0.00    +0.000 A 
ATOM     27  N   UNL     1      48.224   3.505  17.262  0.00  0.00    +0.000 N 
ATOM     28  C   UNL     1      48.280   4.795  16.794  0.00  0.00    +0.000 A 
ATOM     29  O   UNL     1      47.998   5.062  15.628  0.00  0.00    +0.000 OA
ATOM     30  C   UNL     1      48.676   5.779  17.781  0.00  0.00    +0.000 A 
ATOM     31  H   UNL     1      47.950   2.799  16.596  0.00  0.00    +0.000 HD
ENDBRANCH  18  21
ENDBRANCH   1  17
TORSDOF 6
ENDMDL
MODEL 9
REMARK VINA RESULT:    -6.479      3.489      8.166
REMARK INTER + INTRA:          -9.926
REMARK INTER:                  -8.668
REMARK INTRA:                  -1.258
REMARK UNBOUND:                -1.175
REMARK  Name = 
REMARK  7 active torsions:
REMARK  status: ('A' for Active; 'I' for Inactive)
REMARK    1  A    between atoms: C_1  and  O_2
REMARK    2  A    between atoms: O_2  and  C_3
REMARK    3  A    between atoms: C_8  and  C_9
REMARK    4  A    between atoms: C_9  and  C_10
REMARK    5  A    between atoms: C_13  and  C_14
REMARK    6  A    between atoms: C_14  and  N_15
REMARK    7  A    between atoms: C_16  and  C_18
REMARK                            x       y       z     vdW  Elec       q    Type
REMARK                         _______ _______ _______ _____ _____    ______ ____
ROOT
ATOM      1  C   UNL     1      47.835   7.997  11.812  0.00  0.00    +0.000 C 
ENDROOT
BRANCH   1   5
ATOM      2  C   UNL     1      49.589   8.112  15.765  0.00  0.00    +0.000 A 
ATOM      3  C   UNL     1      48.332   8.681  15.525  0.00  0.00    +0.000 A 
ATOM      4  C   UNL     1      47.786   8.690  14.238  0.00  0.00    +0.000 A 
ATOM      5  C   UNL     1      48.480   8.114  13.166  0.00  0.00    +0.000 A 
ATOM      6  C   UNL     1      49.770   7.618  13.389  0.00  0.00    +0.000 A 
ATOM      7  C   UNL     1      50.317   7.609  14.677  0.00  0.00    +0.000 A 
BRANCH   2   8
ATOM      8  C   UNL     1      50.132   8.037  17.174  0.00  0.00    +0.000 C 
BRANCH   8  14
ATOM      9  C   UNL     1      48.963   5.966  18.140  0.00  0.00    +0.000 A 
ATOM     10  C   UNL     1      48.049   5.408  19.047  0.00  0.00    +0.000 A 
ATOM     11  C   UNL     1      47.398   6.208  19.988  0.00  0.00    +0.000 A 
ATOM     12  C   UNL     1      47.672   7.568  20.050  0.00  0.00    +0.000 A 
ATOM     13  C   UNL     1      48.585   8.134  19.160  0.00  0.00    +0.000 A 
ATOM     14  C   UNL     1      49.226   7.350  18.183  0.00  0.00    +0.000 A 
BRANCH   9  16
ATOM     15  C   UNL     1      50.765   4.489  17.655  0.00  0.00    +0.000 C 
ATOM     16  O   UNL     1      49.641   5.236  17.198  0.00  0.00    +0.000 OA
ENDBRANCH   9  16
ENDBRANCH   8  14
ENDBRANCH   2   8
ENDBRANCH   1   5
BRANCH   1  17
ATOM     17  N   UNL     1      47.100   6.770  11.656  0.00  0.00    +0.000 N 
ATOM     18  C   UNL     1      45.730   6.762  11.784  0.00  0.00    +0.000 C 
ATOM     19  O   UNL     1      45.090   7.794  11.963  0.00  0.00    +0.000 OA
ATOM     20  H   UNL     1      47.618   5.901  11.740  0.00  0.00    +0.000 HD
BRANCH  18  21
ATOM     21  C   UNL     1      45.060   5.465  11.641  0.00  0.00    +0.000 A 
ATOM     22  C   UNL     1      44.369   4.931  12.721  0.00  0.00    +0.000 A 
ATOM     23  S   UNL     1      43.610   3.442  12.379  0.00  0.00    +0.000 S 
ATOM     24  C   UNL     1      44.225   3.433  10.793  0.00  0.00    +0.000 A 
ATOM     25  N   UNL     1      43.966   2.399   9.949  0.00  0.00    +0.000 NA
ATOM     26  C   UNL     1      44.522   2.506   8.788  0.00  0.00    +0.000 A 
ATOM     27  N   UNL     1      45.309   3.557   8.392  0.00  0.00    +0.000 N 
ATOM     28  C   UNL     1      45.576   4.634   9.202  0.00  0.00    +0.000 A 
ATOM     29  O   UNL     1      46.255   5.577   8.804  0.00  0.00    +0.000 OA
ATOM     30  C   UNL     1      44.983   4.557  10.522  0.00  0.00    +0.000 A 
ATOM     31  H   UNL     1      45.709   3.584   7.466  0.00  0.00    +0.000 HD
ENDBRANCH  18  21
ENDBRANCH   1  17
TORSDOF 6
ENDMDL
