MODEL 1
REMARK VINA RESULT:    -7.795      0.000      0.000
REMARK INTER + INTRA:         -11.707
REMARK INTER:                 -10.529
REMARK INTRA:                  -1.178
REMARK UNBOUND:                -1.178
REMARK  Name = 
REMARK  7 active torsions:
REMARK  status: ('A' for Active; 'I' for Inactive)
REMARK    1  A    between atoms: C_1  and  O_2
REMARK    2  A    between atoms: O_2  and  C_3
REMARK    3  A    between atoms: C_8  and  C_9
REMARK    4  A    between atoms: C_9  and  C_10
REMARK    5  A    between atoms: C_13  and  C_14
REMARK    6  A    between atoms: C_14  and  N_15
REMARK    7  A    between atoms: C_16  and  C_18
REMARK                            x       y       z     vdW  Elec       q    Type
REMARK                         _______ _______ _______ _____ _____    ______ ____
ROOT
ATOM      1  C   UNL     1      47.738   8.356  13.954  0.00  0.00    +0.000 C 
ENDROOT
BRANCH   1   5
ATOM      2  C   UNL     1      44.994   6.392  11.251  0.00  0.00    +0.000 A 
ATOM      3  C   UNL     1      46.196   5.773  11.617  0.00  0.00    +0.000 A 
ATOM      4  C   UNL     1      47.113   6.429  12.444  0.00  0.00    +0.000 A 
ATOM      5  C   UNL     1      46.836   7.711  12.935  0.00  0.00    +0.000 A 
ATOM      6  C   UNL     1      45.679   8.366  12.496  0.00  0.00    +0.000 A 
ATOM      7  C   UNL     1      44.764   7.711  11.667  0.00  0.00    +0.000 A 
BRANCH   2   8
ATOM      8  C   UNL     1      43.956   5.633  10.455  0.00  0.00    +0.000 C 
BRANCH   8  14
ATOM      9  C   UNL     1      44.117   3.101  10.077  0.00  0.00    +0.000 A 
ATOM     10  C   UNL     1      44.691   2.014   9.403  0.00  0.00    +0.000 A 
ATOM     11  C   UNL     1      45.621   2.217   8.382  0.00  0.00    +0.000 A 
ATOM     12  C   UNL     1      45.969   3.510   8.008  0.00  0.00    +0.000 A 
ATOM     13  C   UNL     1      45.401   4.599   8.667  0.00  0.00    +0.000 A 
ATOM     14  C   UNL     1      44.485   4.413   9.720  0.00  0.00    +0.000 A 
BRANCH   9  16
ATOM     15  C   UNL     1      43.692   2.784  12.397  0.00  0.00    +0.000 C 
ATOM     16  O   UNL     1      43.189   2.974  11.079  0.00  0.00    +0.000 OA
ENDBRANCH   9  16
ENDBRANCH   8  14
ENDBRANCH   2   8
ENDBRANCH   1   5
BRANCH   1  17
ATOM     17  N   UNL     1      47.970   7.515  15.097  0.00  0.00    +0.000 N 
ATOM     18  C   UNL     1      49.224   7.011  15.342  0.00  0.00    +0.000 C 
ATOM     19  O   UNL     1      50.189   7.298  14.639  0.00  0.00    +0.000 OA
ATOM     20  H   UNL     1      47.159   7.084  15.531  0.00  0.00    +0.000 HD
BRANCH  18  21
ATOM     21  C   UNL     1      49.372   6.162  16.528  0.00  0.00    +0.000 A 
ATOM     22  C   UNL     1      50.365   6.447  17.458  0.00  0.00    +0.000 A 
ATOM     23  S   UNL     1      50.363   5.401  18.804  0.00  0.00    +0.000 S 
ATOM     24  C   UNL     1      49.072   4.494  18.165  0.00  0.00    +0.000 A 
ATOM     25  N   UNL     1      48.583   3.412  18.828  0.00  0.00    +0.000 NA
ATOM     26  C   UNL     1      47.627   2.800  18.212  0.00  0.00    +0.000 A 
ATOM     27  N   UNL     1      47.112   3.174  16.999  0.00  0.00    +0.000 N 
ATOM     28  C   UNL     1      47.555   4.274  16.304  0.00  0.00    +0.000 A 
ATOM     29  O   UNL     1      47.052   4.601  15.236  0.00  0.00    +0.000 OA
ATOM     30  C   UNL     1      48.638   4.995  16.952  0.00  0.00    +0.000 A 
ATOM     31  H   UNL     1      46.361   2.653  16.571  0.00  0.00    +0.000 HD
ENDBRANCH  18  21
ENDBRANCH   1  17
TORSDOF 6
ENDMDL
MODEL 2
REMARK VINA RESULT:    -7.270      1.721      2.121
REMARK INTER + INTRA:         -10.999
REMARK INTER:                  -9.972
REMARK INTRA:                  -1.027
REMARK UNBOUND:                -1.178
REMARK  Name = 
REMARK  7 active torsions:
REMARK  status: ('A' for Active; 'I' for Inactive)
REMARK    1  A    between atoms: C_1  and  O_2
REMARK    2  A    between atoms: O_2  and  C_3
REMARK    3  A    between atoms: C_8  and  C_9
REMARK    4  A    between atoms: C_9  and  C_10
REMARK    5  A    between atoms: C_13  and  C_14
REMARK    6  A    between atoms: C_14  and  N_15
REMARK    7  A    between atoms: C_16  and  C_18
REMARK                            x       y       z     vdW  Elec       q    Type
REMARK                         _______ _______ _______ _____ _____    ______ ____
ROOT
ATOM      1  C   UNL     1      48.856   7.000  14.138  0.00  0.00    +0.000 C 
ENDROOT
BRANCH   1   5
ATOM      2  C   UNL     1      45.409   6.034  11.714  0.00  0.00    +0.000 A 
ATOM      3  C   UNL     1      46.117   7.224  11.501  0.00  0.00    +0.000 A 
ATOM      4  C   UNL     1      47.196   7.568  12.320  0.00  0.00    +0.000 A 
ATOM      5  C   UNL     1      47.599   6.719  13.358  0.00  0.00    +0.000 A 
ATOM      6  C   UNL     1      46.836   5.576  13.630  0.00  0.00    +0.000 A 
ATOM      7  C   UNL     1      45.755   5.234  12.811  0.00  0.00    +0.000 A 
BRANCH   2   8
ATOM      8  C   UNL     1      44.320   5.611  10.753  0.00  0.00    +0.000 C 
BRANCH   8  14
ATOM      9  C   UNL     1      44.148   3.166   9.994  0.00  0.00    +0.000 A 
ATOM     10  C   UNL     1      44.582   2.127   9.159  0.00  0.00    +0.000 A 
ATOM     11  C   UNL     1      45.545   2.356   8.175  0.00  0.00    +0.000 A 
ATOM     12  C   UNL     1      46.067   3.632   7.999  0.00  0.00    +0.000 A 
ATOM     13  C   UNL     1      45.640   4.675   8.820  0.00  0.00    +0.000 A 
ATOM     14  C   UNL     1      44.692   4.456   9.838  0.00  0.00    +0.000 A 
BRANCH   9  16
ATOM     15  C   UNL     1      43.622   2.409  12.188  0.00  0.00    +0.000 C 
ATOM     16  O   UNL     1      43.197   3.014  10.971  0.00  0.00    +0.000 OA
ENDBRANCH   9  16
ENDBRANCH   8  14
ENDBRANCH   2   8
ENDBRANCH   1   5
BRANCH   1  17
ATOM     17  N   UNL     1      48.607   7.174  15.543  0.00  0.00    +0.000 N 
ATOM     18  C   UNL     1      49.499   6.691  16.469  0.00  0.00    +0.000 C 
ATOM     19  O   UNL     1      50.551   6.150  16.138  0.00  0.00    +0.000 OA
ATOM     20  H   UNL     1      47.656   7.391  15.824  0.00  0.00    +0.000 HD
BRANCH  18  21
ATOM     21  C   UNL     1      49.168   6.910  17.881  0.00  0.00    +0.000 A 
ATOM     22  C   UNL     1      49.057   8.206  18.367  0.00  0.00    +0.000 A 
ATOM     23  S   UNL     1      48.609   8.284  20.010  0.00  0.00    +0.000 S 
ATOM     24  C   UNL     1      48.603   6.588  20.145  0.00  0.00    +0.000 A 
ATOM     25  N   UNL     1      48.314   5.982  21.327  0.00  0.00    +0.000 NA
ATOM     26  C   UNL     1      48.378   4.692  21.293  0.00  0.00    +0.000 A 
ATOM     27  N   UNL     1      48.698   3.955  20.184  0.00  0.00    +0.000 N 
ATOM     28  C   UNL     1      48.971   4.520  18.961  0.00  0.00    +0.000 A 
ATOM     29  O   UNL     1      49.223   3.831  17.979  0.00  0.00    +0.000 OA
ATOM     30  C   UNL     1      48.919   5.972  18.948  0.00  0.00    +0.000 A 
ATOM     31  H   UNL     1      48.729   2.947  20.222  0.00  0.00    +0.000 HD
ENDBRANCH  18  21
ENDBRANCH   1  17
TORSDOF 6
ENDMDL
MODEL 3
REMARK VINA RESULT:    -7.160      2.146      2.608
REMARK INTER + INTRA:         -10.850
REMARK INTER:                  -9.598
REMARK INTRA:                  -1.252
REMARK UNBOUND:                -1.178
REMARK  Name = 
REMARK  7 active torsions:
REMARK  status: ('A' for Active; 'I' for Inactive)
REMARK    1  A    between atoms: C_1  and  O_2
REMARK    2  A    between atoms: O_2  and  C_3
REMARK    3  A    between atoms: C_8  and  C_9
REMARK    4  A    between atoms: C_9  and  C_10
REMARK    5  A    between atoms: C_13  and  C_14
REMARK    6  A    between atoms: C_14  and  N_15
REMARK    7  A    between atoms: C_16  and  C_18
REMARK                            x       y       z     vdW  Elec       q    Type
REMARK                         _______ _______ _______ _____ _____    ______ ____
ROOT
ATOM      1  C   UNL     1      48.974   7.137  14.537  0.00  0.00    +0.000 C 
ENDROOT
BRANCH   1   5
ATOM      2  C   UNL     1      45.860   6.031  11.750  0.00  0.00    +0.000 A 
ATOM      3  C   UNL     1      46.076   5.277  12.910  0.00  0.00    +0.000 A 
ATOM      4  C   UNL     1      47.119   5.596  13.785  0.00  0.00    +0.000 A 
ATOM      5  C   UNL     1      47.956   6.688  13.522  0.00  0.00    +0.000 A 
ATOM      6  C   UNL     1      47.799   7.385  12.318  0.00  0.00    +0.000 A 
ATOM      7  C   UNL     1      46.757   7.063  11.443  0.00  0.00    +0.000 A 
BRANCH   2   8
ATOM      8  C   UNL     1      44.660   5.754  10.872  0.00  0.00    +0.000 C 
BRANCH   8  14
ATOM      9  C   UNL     1      44.148   3.387  10.024  0.00  0.00    +0.000 A 
ATOM     10  C   UNL     1      44.409   2.344   9.125  0.00  0.00    +0.000 A 
ATOM     11  C   UNL     1      45.343   2.501   8.100  0.00  0.00    +0.000 A 
ATOM     12  C   UNL     1      46.010   3.710   7.948  0.00  0.00    +0.000 A 
ATOM     13  C   UNL     1      45.756   4.757   8.832  0.00  0.00    +0.000 A 
ATOM     14  C   UNL     1      44.840   4.608   9.891  0.00  0.00    +0.000 A 
BRANCH   9  16
ATOM     15  C   UNL     1      43.612   2.534  12.180  0.00  0.00    +0.000 C 
ATOM     16  O   UNL     1      43.235   3.306  11.045  0.00  0.00    +0.000 OA
ENDBRANCH   9  16
ENDBRANCH   8  14
ENDBRANCH   2   8
ENDBRANCH   1   5
BRANCH   1  17
ATOM     17  N   UNL     1      48.625   6.753  15.877  0.00  0.00    +0.000 N 
ATOM     18  C   UNL     1      49.564   6.178  16.698  0.00  0.00    +0.000 C 
ATOM     19  O   UNL     1      50.729   6.021  16.345  0.00  0.00    +0.000 OA
ATOM     20  H   UNL     1      47.638   6.653  16.091  0.00  0.00    +0.000 HD
BRANCH  18  21
ATOM     21  C   UNL     1      49.124   5.815  18.050  0.00  0.00    +0.000 A 
ATOM     22  C   UNL     1      49.275   4.508  18.494  0.00  0.00    +0.000 A 
ATOM     23  S   UNL     1      48.770   4.269  20.104  0.00  0.00    +0.000 S 
ATOM     24  C   UNL     1      48.277   5.893  20.246  0.00  0.00    +0.000 A 
ATOM     25  N   UNL     1      47.720   6.355  21.397  0.00  0.00    +0.000 NA
ATOM     26  C   UNL     1      47.364   7.596  21.353  0.00  0.00    +0.000 A 
ATOM     27  N   UNL     1      47.520   8.416  20.268  0.00  0.00    +0.000 N 
ATOM     28  C   UNL     1      48.101   8.002  19.093  0.00  0.00    +0.000 A 
ATOM     29  O   UNL     1      48.255   8.769  18.150  0.00  0.00    +0.000 OA
ATOM     30  C   UNL     1      48.514   6.609  19.089  0.00  0.00    +0.000 A 
ATOM     31  H   UNL     1      47.222   9.380  20.298  0.00  0.00    +0.000 HD
ENDBRANCH  18  21
ENDBRANCH   1  17
TORSDOF 6
ENDMDL
MODEL 4
REMARK VINA RESULT:    -6.904      4.135      6.276
REMARK INTER + INTRA:         -10.504
REMARK INTER:                  -9.580
REMARK INTRA:                  -0.924
REMARK UNBOUND:                -1.178
REMARK  Name = 
REMARK  7 active torsions:
REMARK  status: ('A' for Active; 'I' for Inactive)
REMARK    1  A    between atoms: C_1  and  O_2
REMARK    2  A    between atoms: O_2  and  C_3
REMARK    3  A    between atoms: C_8  and  C_9
REMARK    4  A    between atoms: C_9  and  C_10
REMARK    5  A    between atoms: C_13  and  C_14
REMARK    6  A    between atoms: C_14  and  N_15
REMARK    7  A    between atoms: C_16  and  C_18
REMARK                            x       y       z     vdW  Elec       q    Type
REMARK                         _______ _______ _______ _____ _____    ______ ____
ROOT
ATOM      1  C   UNL     1      44.656   6.398  12.948  0.00  0.00    +0.000 C 
ENDROOT
BRANCH   1   5
ATOM      2  C   UNL     1      44.610   3.086  10.168  0.00  0.00    +0.000 A 
ATOM      3  C   UNL     1      43.939   4.278   9.865  0.00  0.00    +0.000 A 
ATOM      4  C   UNL     1      43.902   5.330  10.785  0.00  0.00    +0.000 A 
ATOM      5  C   UNL     1      44.551   5.215  12.021  0.00  0.00    +0.000 A 
ATOM      6  C   UNL     1      45.142   3.992  12.362  0.00  0.00    +0.000 A 
ATOM      7  C   UNL     1      45.177   2.940  11.442  0.00  0.00    +0.000 A 
BRANCH   2   8
ATOM      8  C   UNL     1      44.747   2.000   9.125  0.00  0.00    +0.000 C 
BRANCH   8  14
ATOM      9  C   UNL     1      46.718   1.237   7.671  0.00  0.00    +0.000 A 
ATOM     10  C   UNL     1      47.737   1.546   6.759  0.00  0.00    +0.000 A 
ATOM     11  C   UNL     1      47.877   2.841   6.256  0.00  0.00    +0.000 A 
ATOM     12  C   UNL     1      46.987   3.836   6.643  0.00  0.00    +0.000 A 
ATOM     13  C   UNL     1      45.966   3.540   7.545  0.00  0.00    +0.000 A 
ATOM     14  C   UNL     1      45.828   2.247   8.086  0.00  0.00    +0.000 A 
BRANCH   9  16
ATOM     15  C   UNL     1      46.638  -1.111   7.295  0.00  0.00    +0.000 C 
ATOM     16  O   UNL     1      46.515  -0.014   8.194  0.00  0.00    +0.000 OA
ENDBRANCH   9  16
ENDBRANCH   8  14
ENDBRANCH   2   8
ENDBRANCH   1   5
BRANCH   1  17
ATOM     17  N   UNL     1      45.365   7.500  12.357  0.00  0.00    +0.000 N 
ATOM     18  C   UNL     1      46.568   7.909  12.881  0.00  0.00    +0.000 C 
ATOM     19  O   UNL     1      47.099   7.325  13.821  0.00  0.00    +0.000 OA
ATOM     20  H   UNL     1      44.838   8.126  11.757  0.00  0.00    +0.000 HD
BRANCH  18  21
ATOM     21  C   UNL     1      47.224   9.041  12.220  0.00  0.00    +0.000 A 
ATOM     22  C   UNL     1      48.585   8.983  11.947  0.00  0.00    +0.000 A 
ATOM     23  S   UNL     1      49.177  10.353  11.123  0.00  0.00    +0.000 S 
ATOM     24  C   UNL     1      47.647  11.098  11.152  0.00  0.00    +0.000 A 
ATOM     25  N   UNL     1      47.462  12.335  10.618  0.00  0.00    +0.000 NA
ATOM     26  C   UNL     1      46.260  12.791  10.739  0.00  0.00    +0.000 A 
ATOM     27  N   UNL     1      45.226  12.121  11.339  0.00  0.00    +0.000 N 
ATOM     28  C   UNL     1      45.357  10.860  11.868  0.00  0.00    +0.000 A 
ATOM     29  O   UNL     1      44.405  10.274  12.370  0.00  0.00    +0.000 OA
ATOM     30  C   UNL     1      46.696  10.304  11.764  0.00  0.00    +0.000 A 
ATOM     31  H   UNL     1      44.307  12.533  11.399  0.00  0.00    +0.000 HD
ENDBRANCH  18  21
ENDBRANCH   1  17
TORSDOF 6
ENDMDL
MODEL 5
REMARK VINA RESULT:    -6.904      4.132      9.566
REMARK INTER + INTRA:         -10.504
REMARK INTER:                  -9.325
REMARK INTRA:                  -1.179
REMARK UNBOUND:                -1.178
REMARK  Name = 
REMARK  7 active torsions:
REMARK  status: ('A' for Active; 'I' for Inactive)
REMARK    1  A    between atoms: C_1  and  O_2
REMARK    2  A    between atoms: O_2  and  C_3
REMARK    3  A    between atoms: C_8  and  C_9
REMARK    4  A    between atoms: C_9  and  C_10
REMARK    5  A    between atoms: C_13  and  C_14
REMARK    6  A    between atoms: C_14  and  N_15
REMARK    7  A    between atoms: C_16  and  C_18
REMARK                            x       y       z     vdW  Elec       q    Type
REMARK                         _______ _______ _______ _____ _____    ______ ____
ROOT
ATOM      1  C   UNL     1      47.354   3.360  16.766  0.00  0.00    +0.000 C 
ENDROOT
BRANCH   1   5
ATOM      2  C   UNL     1      51.521   3.961  17.751  0.00  0.00    +0.000 A 
ATOM      3  C   UNL     1      51.047   2.686  17.414  0.00  0.00    +0.000 A 
ATOM      4  C   UNL     1      49.690   2.476  17.152  0.00  0.00    +0.000 A 
ATOM      5  C   UNL     1      48.783   3.543  17.205  0.00  0.00    +0.000 A 
ATOM      6  C   UNL     1      49.240   4.796  17.631  0.00  0.00    +0.000 A 
ATOM      7  C   UNL     1      50.597   5.004  17.895  0.00  0.00    +0.000 A 
BRANCH   2   8
ATOM      8  C   UNL     1      53.004   4.204  17.917  0.00  0.00    +0.000 C 
BRANCH   8  14
ATOM      9  C   UNL     1      54.393   2.546  19.297  0.00  0.00    +0.000 A 
ATOM     10  C   UNL     1      54.847   2.096  20.545  0.00  0.00    +0.000 A 
ATOM     11  C   UNL     1      54.513   2.779  21.716  0.00  0.00    +0.000 A 
ATOM     12  C   UNL     1      53.741   3.934  21.650  0.00  0.00    +0.000 A 
ATOM     13  C   UNL     1      53.288   4.394  20.414  0.00  0.00    +0.000 A 
ATOM     14  C   UNL     1      53.589   3.702  19.226  0.00  0.00    +0.000 A 
BRANCH   9  16
ATOM     15  C   UNL     1      54.207   0.605  17.933  0.00  0.00    +0.000 C 
ATOM     16  O   UNL     1      54.693   1.932  18.108  0.00  0.00    +0.000 OA
ENDBRANCH   9  16
ENDBRANCH   8  14
ENDBRANCH   2   8
ENDBRANCH   1   5
BRANCH   1  17
ATOM     17  N   UNL     1      46.914   4.398  15.874  0.00  0.00    +0.000 N 
ATOM     18  C   UNL     1      46.974   4.213  14.514  0.00  0.00    +0.000 C 
ATOM     19  O   UNL     1      47.348   3.154  14.018  0.00  0.00    +0.000 OA
ATOM     20  H   UNL     1      46.838   5.336  16.253  0.00  0.00    +0.000 HD
BRANCH  18  21
ATOM     21  C   UNL     1      46.506   5.322  13.677  0.00  0.00    +0.000 A 
ATOM     22  C   UNL     1      47.293   6.459  13.539  0.00  0.00    +0.000 A 
ATOM     23  S   UNL     1      46.632   7.625  12.486  0.00  0.00    +0.000 S 
ATOM     24  C   UNL     1      45.243   6.677  12.221  0.00  0.00    +0.000 A 
ATOM     25  N   UNL     1      44.241   7.116  11.414  0.00  0.00    +0.000 NA
ATOM     26  C   UNL     1      43.235   6.311  11.331  0.00  0.00    +0.000 A 
ATOM     27  N   UNL     1      43.143   5.106  11.974  0.00  0.00    +0.000 N 
ATOM     28  C   UNL     1      44.140   4.607  12.778  0.00  0.00    +0.000 A 
ATOM     29  O   UNL     1      44.041   3.510  13.315  0.00  0.00    +0.000 OA
ATOM     30  C   UNL     1      45.293   5.481  12.911  0.00  0.00    +0.000 A 
ATOM     31  H   UNL     1      42.328   4.520  11.865  0.00  0.00    +0.000 HD
ENDBRANCH  18  21
ENDBRANCH   1  17
TORSDOF 6
ENDMDL
MODEL 6
REMARK VINA RESULT:    -6.708      3.596      8.148
REMARK INTER + INTRA:         -10.239
REMARK INTER:                  -9.133
REMARK INTRA:                  -1.106
REMARK UNBOUND:                -1.178
REMARK  Name = 
REMARK  7 active torsions:
REMARK  status: ('A' for Active; 'I' for Inactive)
REMARK    1  A    between atoms: C_1  and  O_2
REMARK    2  A    between atoms: O_2  and  C_3
REMARK    3  A    between atoms: C_8  and  C_9
REMARK    4  A    between atoms: C_9  and  C_10
REMARK    5  A    between atoms: C_13  and  C_14
REMARK    6  A    between atoms: C_14  and  N_15
REMARK    7  A    between atoms: C_16  and  C_18
REMARK                            x       y       z     vdW  Elec       q    Type
REMARK                         _______ _______ _______ _____ _____    ______ ____
ROOT
ATOM      1  C   UNL     1      48.574   7.401  12.912  0.00  0.00    +0.000 C 
ENDROOT
BRANCH   1   5
ATOM      2  C   UNL     1      49.460   5.885  16.863  0.00  0.00    +0.000 A 
ATOM      3  C   UNL     1      48.268   5.531  16.216  0.00  0.00    +0.000 A 
ATOM      4  C   UNL     1      47.951   6.065  14.964  0.00  0.00    +0.000 A 
ATOM      5  C   UNL     1      48.829   6.951  14.326  0.00  0.00    +0.000 A 
ATOM      6  C   UNL     1      49.973   7.376  15.012  0.00  0.00    +0.000 A 
ATOM      7  C   UNL     1      50.289   6.844  16.265  0.00  0.00    +0.000 A 
BRANCH   2   8
ATOM      8  C   UNL     1      49.852   5.215  18.160  0.00  0.00    +0.000 C 
BRANCH   8  14
ATOM      9  C   UNL     1      52.027   3.868  18.359  0.00  0.00    +0.000 A 
ATOM     10  C   UNL     1      52.740   2.684  18.123  0.00  0.00    +0.000 A 
ATOM     11  C   UNL     1      52.119   1.580  17.537  0.00  0.00    +0.000 A 
ATOM     12  C   UNL     1      50.771   1.639  17.202  0.00  0.00    +0.000 A 
ATOM     13  C   UNL     1      50.049   2.808  17.437  0.00  0.00    +0.000 A 
ATOM     14  C   UNL     1      50.666   3.942  17.999  0.00  0.00    +0.000 A 
BRANCH   9  16
ATOM     15  C   UNL     1      53.925   5.278  18.620  0.00  0.00    +0.000 C 
ATOM     16  O   UNL     1      52.570   4.984  18.942  0.00  0.00    +0.000 OA
ENDBRANCH   9  16
ENDBRANCH   8  14
ENDBRANCH   2   8
ENDBRANCH   1   5
BRANCH   1  17
ATOM     17  N   UNL     1      47.808   6.447  12.158  0.00  0.00    +0.000 N 
ATOM     18  C   UNL     1      46.486   6.689  11.877  0.00  0.00    +0.000 C 
ATOM     19  O   UNL     1      45.932   7.735  12.205  0.00  0.00    +0.000 OA
ATOM     20  H   UNL     1      48.172   5.501  12.097  0.00  0.00    +0.000 HD
BRANCH  18  21
ATOM     21  C   UNL     1      45.778   5.663  11.104  0.00  0.00    +0.000 A 
ATOM     22  C   UNL     1      45.857   5.671   9.717  0.00  0.00    +0.000 A 
ATOM     23  S   UNL     1      45.028   4.379   8.977  0.00  0.00    +0.000 S 
ATOM     24  C   UNL     1      44.486   3.795  10.481  0.00  0.00    +0.000 A 
ATOM     25  N   UNL     1      43.690   2.695  10.558  0.00  0.00    +0.000 NA
ATOM     26  C   UNL     1      43.327   2.385  11.758  0.00  0.00    +0.000 A 
ATOM     27  N   UNL     1      43.693   3.069  12.886  0.00  0.00    +0.000 N 
ATOM     28  C   UNL     1      44.517   4.169  12.862  0.00  0.00    +0.000 A 
ATOM     29  O   UNL     1      44.852   4.740  13.893  0.00  0.00    +0.000 OA
ATOM     30  C   UNL     1      44.947   4.564  11.532  0.00  0.00    +0.000 A 
ATOM     31  H   UNL     1      43.377   2.772  13.798  0.00  0.00    +0.000 HD
ENDBRANCH  18  21
ENDBRANCH   1  17
TORSDOF 6
ENDMDL
MODEL 7
REMARK VINA RESULT:    -6.655      1.426      2.333
REMARK INTER + INTRA:         -10.167
REMARK INTER:                  -8.634
REMARK INTRA:                  -1.534
REMARK UNBOUND:                -1.178
REMARK  Name = 
REMARK  7 active torsions:
REMARK  status: ('A' for Active; 'I' for Inactive)
REMARK    1  A    between atoms: C_1  and  O_2
REMARK    2  A    between atoms: O_2  and  C_3
REMARK    3  A    between atoms: C_8  and  C_9
REMARK    4  A    between atoms: C_9  and  C_10
REMARK    5  A    between atoms: C_13  and  C_14
REMARK    6  A    between atoms: C_14  and  N_15
REMARK    7  A    between atoms: C_16  and  C_18
REMARK                            x       y       z     vdW  Elec       q    Type
REMARK                         _______ _______ _______ _____ _____    ______ ____
ROOT
ATOM      1  C   UNL     1      49.372   8.520  13.977  0.00  0.00    +0.000 C 
ENDROOT
BRANCH   1   5
ATOM      2  C   UNL     1      45.822   7.384  11.786  0.00  0.00    +0.000 A 
ATOM      3  C   UNL     1      46.960   6.568  11.768  0.00  0.00    +0.000 A 
ATOM      4  C   UNL     1      48.129   6.959  12.427  0.00  0.00    +0.000 A 
ATOM      5  C   UNL     1      48.177   8.169  13.131  0.00  0.00    +0.000 A 
ATOM      6  C   UNL     1      47.072   9.027  13.072  0.00  0.00    +0.000 A 
ATOM      7  C   UNL     1      45.904   8.636  12.411  0.00  0.00    +0.000 A 
BRANCH   2   8
ATOM      8  C   UNL     1      44.527   6.902  11.173  0.00  0.00    +0.000 C 
BRANCH   8  14
ATOM      9  C   UNL     1      44.235   4.460  10.444  0.00  0.00    +0.000 A 
ATOM     10  C   UNL     1      43.851   3.146  10.749  0.00  0.00    +0.000 A 
ATOM     11  C   UNL     1      43.431   2.805  12.036  0.00  0.00    +0.000 A 
ATOM     12  C   UNL     1      43.413   3.767  13.038  0.00  0.00    +0.000 A 
ATOM     13  C   UNL     1      43.797   5.076  12.749  0.00  0.00    +0.000 A 
ATOM     14  C   UNL     1      44.194   5.446  11.450  0.00  0.00    +0.000 A 
BRANCH   9  16
ATOM     15  C   UNL     1      45.490   3.946   8.489  0.00  0.00    +0.000 C 
ATOM     16  O   UNL     1      44.669   4.861   9.207  0.00  0.00    +0.000 OA
ENDBRANCH   9  16
ENDBRANCH   8  14
ENDBRANCH   2   8
ENDBRANCH   1   5
BRANCH   1  17
ATOM     17  N   UNL     1      49.471   7.707  15.158  0.00  0.00    +0.000 N 
ATOM     18  C   UNL     1      48.854   8.098  16.321  0.00  0.00    +0.000 C 
ATOM     19  O   UNL     1      48.162   9.111  16.381  0.00  0.00    +0.000 OA
ATOM     20  H   UNL     1      50.217   7.020  15.189  0.00  0.00    +0.000 HD
BRANCH  18  21
ATOM     21  C   UNL     1      49.006   7.211  17.479  0.00  0.00    +0.000 A 
ATOM     22  C   UNL     1      49.489   7.722  18.677  0.00  0.00    +0.000 A 
ATOM     23  S   UNL     1      49.547   6.574  19.936  0.00  0.00    +0.000 S 
ATOM     24  C   UNL     1      48.983   5.339  18.909  0.00  0.00    +0.000 A 
ATOM     25  N   UNL     1      48.824   4.069  19.366  0.00  0.00    +0.000 NA
ATOM     26  C   UNL     1      48.422   3.229  18.471  0.00  0.00    +0.000 A 
ATOM     27  N   UNL     1      48.159   3.545  17.165  0.00  0.00    +0.000 N 
ATOM     28  C   UNL     1      48.278   4.819  16.663  0.00  0.00    +0.000 A 
ATOM     29  O   UNL     1      48.004   5.076  15.497  0.00  0.00    +0.000 OA
ATOM     30  C   UNL     1      48.736   5.802  17.631  0.00  0.00    +0.000 A 
ATOM     31  H   UNL     1      47.843   2.841  16.514  0.00  0.00    +0.000 HD
ENDBRANCH  18  21
ENDBRANCH   1  17
TORSDOF 6
ENDMDL
MODEL 8
REMARK VINA RESULT:    -6.605      3.643      9.316
REMARK INTER + INTRA:         -10.100
REMARK INTER:                  -9.034
REMARK INTRA:                  -1.067
REMARK UNBOUND:                -1.178
REMARK  Name = 
REMARK  7 active torsions:
REMARK  status: ('A' for Active; 'I' for Inactive)
REMARK    1  A    between atoms: C_1  and  O_2
REMARK    2  A    between atoms: O_2  and  C_3
REMARK    3  A    between atoms: C_8  and  C_9
REMARK    4  A    between atoms: C_9  and  C_10
REMARK    5  A    between atoms: C_13  and  C_14
REMARK    6  A    between atoms: C_14  and  N_15
REMARK    7  A    between atoms: C_16  and  C_18
REMARK                            x       y       z     vdW  Elec       q    Type
REMARK                         _______ _______ _______ _____ _____    ______ ____
ROOT
ATOM      1  C   UNL     1      47.389   3.361  16.775  0.00  0.00    +0.000 C 
ENDROOT
BRANCH   1   5
ATOM      2  C   UNL     1      51.579   3.528  17.826  0.00  0.00    +0.000 A 
ATOM      3  C   UNL     1      50.811   4.698  17.780  0.00  0.00    +0.000 A 
ATOM      4  C   UNL     1      49.471   4.657  17.385  0.00  0.00    +0.000 A 
ATOM      5  C   UNL     1      48.869   3.439  17.043  0.00  0.00    +0.000 A 
ATOM      6  C   UNL     1      49.660   2.285  16.998  0.00  0.00    +0.000 A 
ATOM      7  C   UNL     1      51.001   2.328  17.392  0.00  0.00    +0.000 A 
BRANCH   2   8
ATOM      8  C   UNL     1      52.991   3.562  18.367  0.00  0.00    +0.000 C 
BRANCH   8  14
ATOM      9  C   UNL     1      53.872   5.840  19.153  0.00  0.00    +0.000 A 
ATOM     10  C   UNL     1      54.505   7.056  18.861  0.00  0.00    +0.000 A 
ATOM     11  C   UNL     1      54.995   7.318  17.580  0.00  0.00    +0.000 A 
ATOM     12  C   UNL     1      54.878   6.357  16.583  0.00  0.00    +0.000 A 
ATOM     13  C   UNL     1      54.256   5.141  16.862  0.00  0.00    +0.000 A 
ATOM     14  C   UNL     1      53.728   4.871  18.140  0.00  0.00    +0.000 A 
BRANCH   9  16
ATOM     15  C   UNL     1      53.435   6.526  21.389  0.00  0.00    +0.000 C 
ATOM     16  O   UNL     1      53.381   5.513  20.391  0.00  0.00    +0.000 OA
ENDBRANCH   9  16
ENDBRANCH   8  14
ENDBRANCH   2   8
ENDBRANCH   1   5
BRANCH   1  17
ATOM     17  N   UNL     1      46.937   4.381  15.868  0.00  0.00    +0.000 N 
ATOM     18  C   UNL     1      46.914   4.143  14.516  0.00  0.00    +0.000 C 
ATOM     19  O   UNL     1      47.220   3.052  14.042  0.00  0.00    +0.000 OA
ATOM     20  H   UNL     1      46.918   5.336  16.213  0.00  0.00    +0.000 HD
BRANCH  18  21
ATOM     21  C   UNL     1      46.441   5.237  13.662  0.00  0.00    +0.000 A 
ATOM     22  C   UNL     1      47.239   6.360  13.478  0.00  0.00    +0.000 A 
ATOM     23  S   UNL     1      46.569   7.508  12.411  0.00  0.00    +0.000 S 
ATOM     24  C   UNL     1      45.162   6.572  12.202  0.00  0.00    +0.000 A 
ATOM     25  N   UNL     1      44.147   7.005  11.406  0.00  0.00    +0.000 NA
ATOM     26  C   UNL     1      43.130   6.211  11.365  0.00  0.00    +0.000 A 
ATOM     27  N   UNL     1      43.037   5.023  12.041  0.00  0.00    +0.000 N 
ATOM     28  C   UNL     1      44.046   4.531  12.834  0.00  0.00    +0.000 A 
ATOM     29  O   UNL     1      43.946   3.449  13.401  0.00  0.00    +0.000 OA
ATOM     30  C   UNL     1      45.213   5.393  12.920  0.00  0.00    +0.000 A 
ATOM     31  H   UNL     1      42.213   4.445  11.965  0.00  0.00    +0.000 HD
ENDBRANCH  18  21
ENDBRANCH   1  17
TORSDOF 6
ENDMDL
MODEL 9
REMARK VINA RESULT:    -6.518      4.050      9.515
REMARK INTER + INTRA:          -9.983
REMARK INTER:                  -8.567
REMARK INTRA:                  -1.416
REMARK UNBOUND:                -1.178
REMARK  Name = 
REMARK  7 active torsions:
REMARK  status: ('A' for Active; 'I' for Inactive)
REMARK    1  A    between atoms: C_1  and  O_2
REMARK    2  A    between atoms: O_2  and  C_3
REMARK    3  A    between atoms: C_8  and  C_9
REMARK    4  A    between atoms: C_9  and  C_10
REMARK    5  A    between atoms: C_13  and  C_14
REMARK    6  A    between atoms: C_14  and  N_15
REMARK    7  A    between atoms: C_16  and  C_18
REMARK                            x       y       z     vdW  Elec       q    Type
REMARK                         _______ _______ _______ _____ _____    ______ ____
ROOT
ATOM      1  C   UNL     1      47.340   3.432  17.049  0.00  0.00    +0.000 C 
ENDROOT
BRANCH   1   5
ATOM      2  C   UNL     1      51.591   3.829  17.730  0.00  0.00    +0.000 A 
ATOM      3  C   UNL     1      51.031   2.578  17.443  0.00  0.00    +0.000 A 
ATOM      4  C   UNL     1      49.650   2.435  17.280  0.00  0.00    +0.000 A 
ATOM      5  C   UNL     1      48.804   3.546  17.384  0.00  0.00    +0.000 A 
ATOM      6  C   UNL     1      49.352   4.778  17.762  0.00  0.00    +0.000 A 
ATOM      7  C   UNL     1      50.733   4.919  17.927  0.00  0.00    +0.000 A 
BRANCH   2   8
ATOM      8  C   UNL     1      53.092   3.998  17.788  0.00  0.00    +0.000 C 
BRANCH   8  14
ATOM      9  C   UNL     1      54.540   2.231  18.955  0.00  0.00    +0.000 A 
ATOM     10  C   UNL     1      55.068   1.689  20.136  0.00  0.00    +0.000 A 
ATOM     11  C   UNL     1      54.824   2.293  21.371  0.00  0.00    +0.000 A 
ATOM     12  C   UNL     1      54.070   3.459  21.436  0.00  0.00    +0.000 A 
ATOM     13  C   UNL     1      53.544   4.010  20.268  0.00  0.00    +0.000 A 
ATOM     14  C   UNL     1      53.754   3.398  19.018  0.00  0.00    +0.000 A 
BRANCH   9  16
ATOM     15  C   UNL     1      54.249   0.384  17.483  0.00  0.00    +0.000 C 
ATOM     16  O   UNL     1      54.751   1.697  17.710  0.00  0.00    +0.000 OA
ENDBRANCH   9  16
ENDBRANCH   8  14
ENDBRANCH   2   8
ENDBRANCH   1   5
BRANCH   1  17
ATOM     17  N   UNL     1      46.919   4.402  16.076  0.00  0.00    +0.000 N 
ATOM     18  C   UNL     1      46.987   4.111  14.735  0.00  0.00    +0.000 C 
ATOM     19  O   UNL     1      47.350   3.011  14.326  0.00  0.00    +0.000 OA
ATOM     20  H   UNL     1      46.853   5.369  16.379  0.00  0.00    +0.000 HD
BRANCH  18  21
ATOM     21  C   UNL     1      46.539   5.156  13.810  0.00  0.00    +0.000 A 
ATOM     22  C   UNL     1      45.351   4.991  13.109  0.00  0.00    +0.000 A 
ATOM     23  S   UNL     1      44.947   6.323  12.124  0.00  0.00    +0.000 S 
ATOM     24  C   UNL     1      46.375   7.143  12.555  0.00  0.00    +0.000 A 
ATOM     25  N   UNL     1      46.664   8.365  12.031  0.00  0.00    +0.000 NA
ATOM     26  C   UNL     1      47.793   8.855  12.420  0.00  0.00    +0.000 A 
ATOM     27  N   UNL     1      48.656   8.239  13.288  0.00  0.00    +0.000 N 
ATOM     28  C   UNL     1      48.395   7.018  13.863  0.00  0.00    +0.000 A 
ATOM     29  O   UNL     1      49.173   6.508  14.661  0.00  0.00    +0.000 OA
ATOM     30  C   UNL     1      47.137   6.420  13.452  0.00  0.00    +0.000 A 
ATOM     31  H   UNL     1      49.525   8.678  13.555  0.00  0.00    +0.000 HD
ENDBRANCH  18  21
ENDBRANCH   1  17
TORSDOF 6
ENDMDL
