MODEL 1
REMARK VINA RESULT:    -6.901      0.000      0.000
REMARK INTER + INTRA:          -9.544
REMARK INTER:                  -9.120
REMARK INTRA:                  -0.424
REMARK UNBOUND:                -0.424
REMARK  Name = 
REMARK  6 active torsions:
REMARK  status: ('A' for Active; 'I' for Inactive)
REMARK    1  A    between atoms: C_2  and  C_3
REMARK    2  A    between atoms: C_7  and  C_8
REMARK    3  A    between atoms: C_8  and  C_9
REMARK    4  A    between atoms: C_9  and  C_10
REMARK    5  A    between atoms: C_14  and  C_15
REMARK    6  A    between atoms: C_15  and  N_16
REMARK                            x       y       z     vdW  Elec       q    Type
REMARK                         _______ _______ _______ _____ _____    ______ ____
ROOT
ATOM      1  C   UNL     1      44.134   2.495  10.154  0.00  0.00    +0.000 C 
ENDROOT
BRANCH   1   2
ATOM      2  C   UNL     1      45.137   2.842   9.074  0.00  0.00    +0.000 A 
ATOM      3  C   UNL     1      45.330   4.166   8.659  0.00  0.00    +0.000 A 
ATOM      4  C   UNL     1      46.246   4.459   7.643  0.00  0.00    +0.000 A 
ATOM      5  C   UNL     1      46.954   3.430   7.024  0.00  0.00    +0.000 A 
ATOM      6  C   UNL     1      46.765   2.097   7.409  0.00  0.00    +0.000 A 
ATOM      7  C   UNL     1      45.867   1.816   8.451  0.00  0.00    +0.000 A 
BRANCH   6   8
ATOM      8  C   UNL     1      47.509   0.988   6.711  0.00  0.00    +0.000 C 
BRANCH   8   9
ATOM      9  N   UNL     1      48.282   1.491   5.579  0.00  0.00    +0.000 NA
ATOM     10  H   UNL     1      49.156   1.882   5.929  0.00  0.00    +0.000 HD
ATOM     11  H   UNL     1      47.775   2.255   5.142  0.00  0.00    +0.000 HD
ENDBRANCH   8   9
ENDBRANCH   6   8
ENDBRANCH   1   2
BRANCH   1  12
ATOM     12  C   UNL     1      43.618   3.742  10.884  0.00  0.00    +0.000 C 
BRANCH  12  17
ATOM     13  C   UNL     1      45.644   6.211  12.757  0.00  0.00    +0.000 A 
ATOM     14  C   UNL     1      46.539   5.444  13.482  0.00  0.00    +0.000 A 
ATOM     15  C   UNL     1      46.424   4.061  13.403  0.00  0.00    +0.000 A 
ATOM     16  C   UNL     1      45.442   3.504  12.588  0.00  0.00    +0.000 A 
ATOM     17  C   UNL     1      44.610   4.349  11.853  0.00  0.00    +0.000 A 
ATOM     18  N   UNL     1      44.695   5.699  11.941  0.00  0.00    +0.000 NA
BRANCH  13  20
ATOM     19  C   UNL     1      45.708   8.835  12.924  0.00  0.00    +0.000 C 
ATOM     20  C   UNL     1      45.658   7.640  12.852  0.00  0.00    +0.000 C 
ENDBRANCH  13  20
ENDBRANCH  12  17
ENDBRANCH   1  12
TORSDOF 6
ENDMDL
MODEL 2
REMARK VINA RESULT:    -6.774      1.297      2.521
REMARK INTER + INTRA:          -9.376
REMARK INTER:                  -8.789
REMARK INTRA:                  -0.586
REMARK UNBOUND:                -0.424
REMARK  Name = 
REMARK  6 active torsions:
REMARK  status: ('A' for Active; 'I' for Inactive)
REMARK    1  A    between atoms: C_2  and  C_3
REMARK    2  A    between atoms: C_7  and  C_8
REMARK    3  A    between atoms: C_8  and  C_9
REMARK    4  A    between atoms: C_9  and  C_10
REMARK    5  A    between atoms: C_14  and  C_15
REMARK    6  A    between atoms: C_15  and  N_16
REMARK                            x       y       z     vdW  Elec       q    Type
REMARK                         _______ _______ _______ _____ _____    ______ ____
ROOT
ATOM      1  C   UNL     1      44.365   4.336   9.121  0.00  0.00    +0.000 C 
ENDROOT
BRANCH   1   2
ATOM      2  C   UNL     1      45.156   3.249   8.426  0.00  0.00    +0.000 A 
ATOM      3  C   UNL     1      45.293   1.975   8.991  0.00  0.00    +0.000 A 
ATOM      4  C   UNL     1      46.050   0.994   8.341  0.00  0.00    +0.000 A 
ATOM      5  C   UNL     1      46.690   1.289   7.139  0.00  0.00    +0.000 A 
ATOM      6  C   UNL     1      46.583   2.562   6.563  0.00  0.00    +0.000 A 
ATOM      7  C   UNL     1      45.796   3.529   7.207  0.00  0.00    +0.000 A 
BRANCH   6   8
ATOM      8  C   UNL     1      47.306   2.883   5.281  0.00  0.00    +0.000 C 
BRANCH   8   9
ATOM      9  N   UNL     1      48.375   1.925   5.014  0.00  0.00    +0.000 NA
ATOM     10  H   UNL     1      49.127   2.080   5.683  0.00  0.00    +0.000 HD
ATOM     11  H   UNL     1      48.764   2.108   4.093  0.00  0.00    +0.000 HD
ENDBRANCH   8   9
ENDBRANCH   6   8
ENDBRANCH   1   2
BRANCH   1  12
ATOM     12  C   UNL     1      44.272   4.105  10.635  0.00  0.00    +0.000 C 
BRANCH  12  17
ATOM     13  C   UNL     1      46.530   5.122  13.388  0.00  0.00    +0.000 A 
ATOM     14  C   UNL     1      47.045   6.340  12.979  0.00  0.00    +0.000 A 
ATOM     15  C   UNL     1      46.687   6.808  11.721  0.00  0.00    +0.000 A 
ATOM     16  C   UNL     1      45.816   6.057  10.936  0.00  0.00    +0.000 A 
ATOM     17  C   UNL     1      45.305   4.862  11.443  0.00  0.00    +0.000 A 
ATOM     18  N   UNL     1      45.665   4.382  12.658  0.00  0.00    +0.000 NA
BRANCH  13  20
ATOM     19  C   UNL     1      47.268   4.041  15.670  0.00  0.00    +0.000 C 
ATOM     20  C   UNL     1      46.917   4.545  14.641  0.00  0.00    +0.000 C 
ENDBRANCH  13  20
ENDBRANCH  12  17
ENDBRANCH   1  12
TORSDOF 6
ENDMDL
MODEL 3
REMARK VINA RESULT:    -6.752      1.881      6.335
REMARK INTER + INTRA:          -9.347
REMARK INTER:                  -8.818
REMARK INTRA:                  -0.529
REMARK UNBOUND:                -0.424
REMARK  Name = 
REMARK  6 active torsions:
REMARK  status: ('A' for Active; 'I' for Inactive)
REMARK    1  A    between atoms: C_2  and  C_3
REMARK    2  A    between atoms: C_7  and  C_8
REMARK    3  A    between atoms: C_8  and  C_9
REMARK    4  A    between atoms: C_9  and  C_10
REMARK    5  A    between atoms: C_14  and  C_15
REMARK    6  A    between atoms: C_15  and  N_16
REMARK                            x       y       z     vdW  Elec       q    Type
REMARK                         _______ _______ _______ _____ _____    ______ ____
ROOT
ATOM      1  C   UNL     1      43.981   4.931  10.757  0.00  0.00    +0.000 C 
ENDROOT
BRANCH   1   2
ATOM      2  C   UNL     1      45.129   5.453  11.594  0.00  0.00    +0.000 A 
ATOM      3  C   UNL     1      45.882   6.561  11.186  0.00  0.00    +0.000 A 
ATOM      4  C   UNL     1      46.953   7.011  11.965  0.00  0.00    +0.000 A 
ATOM      5  C   UNL     1      47.289   6.343  13.141  0.00  0.00    +0.000 A 
ATOM      6  C   UNL     1      46.562   5.222  13.562  0.00  0.00    +0.000 A 
ATOM      7  C   UNL     1      45.469   4.798  12.789  0.00  0.00    +0.000 A 
BRANCH   6   8
ATOM      8  C   UNL     1      46.953   4.486  14.817  0.00  0.00    +0.000 C 
BRANCH   8   9
ATOM      9  N   UNL     1      47.430   3.138  14.523  0.00  0.00    +0.000 NA
ATOM     10  H   UNL     1      48.448   3.142  14.537  0.00  0.00    +0.000 HD
ATOM     11  H   UNL     1      47.153   2.885  13.578  0.00  0.00    +0.000 HD
ENDBRANCH   8   9
ENDBRANCH   6   8
ENDBRANCH   1   2
BRANCH   1  12
ATOM     12  C   UNL     1      44.140   3.441  10.424  0.00  0.00    +0.000 C 
BRANCH  12  17
ATOM     13  C   UNL     1      46.292   1.678   7.980  0.00  0.00    +0.000 A 
ATOM     14  C   UNL     1      46.828   2.689   7.201  0.00  0.00    +0.000 A 
ATOM     15  C   UNL     1      46.411   3.992   7.447  0.00  0.00    +0.000 A 
ATOM     16  C   UNL     1      45.499   4.233   8.471  0.00  0.00    +0.000 A 
ATOM     17  C   UNL     1      45.043   3.163   9.242  0.00  0.00    +0.000 A 
ATOM     18  N   UNL     1      45.423   1.885   8.995  0.00  0.00    +0.000 NA
BRANCH  13  20
ATOM     19  C   UNL     1      46.893  -0.848   7.561  0.00  0.00    +0.000 C 
ATOM     20  C   UNL     1      46.621   0.307   7.731  0.00  0.00    +0.000 C 
ENDBRANCH  13  20
ENDBRANCH  12  17
ENDBRANCH   1  12
TORSDOF 6
ENDMDL
MODEL 4
REMARK VINA RESULT:    -6.197      2.073      6.384
REMARK INTER + INTRA:          -8.614
REMARK INTER:                  -8.003
REMARK INTRA:                  -0.611
REMARK UNBOUND:                -0.424
REMARK  Name = 
REMARK  6 active torsions:
REMARK  status: ('A' for Active; 'I' for Inactive)
REMARK    1  A    between atoms: C_2  and  C_3
REMARK    2  A    between atoms: C_7  and  C_8
REMARK    3  A    between atoms: C_8  and  C_9
REMARK    4  A    between atoms: C_9  and  C_10
REMARK    5  A    between atoms: C_14  and  C_15
REMARK    6  A    between atoms: C_15  and  N_16
REMARK                            x       y       z     vdW  Elec       q    Type
REMARK                         _______ _______ _______ _____ _____    ______ ____
ROOT
ATOM      1  C   UNL     1      44.829   6.078  11.384  0.00  0.00    +0.000 C 
ENDROOT
BRANCH   1   2
ATOM      2  C   UNL     1      45.974   6.206  12.365  0.00  0.00    +0.000 A 
ATOM      3  C   UNL     1      46.955   7.194  12.214  0.00  0.00    +0.000 A 
ATOM      4  C   UNL     1      48.017   7.277  13.120  0.00  0.00    +0.000 A 
ATOM      5  C   UNL     1      48.116   6.361  14.165  0.00  0.00    +0.000 A 
ATOM      6  C   UNL     1      47.157   5.352  14.326  0.00  0.00    +0.000 A 
ATOM      7  C   UNL     1      46.078   5.297  13.431  0.00  0.00    +0.000 A 
BRANCH   6   8
ATOM      8  C   UNL     1      47.291   4.344  15.439  0.00  0.00    +0.000 C 
BRANCH   8   9
ATOM      9  N   UNL     1      47.667   3.029  14.930  0.00  0.00    +0.000 NA
ATOM     10  H   UNL     1      48.681   2.994  14.835  0.00  0.00    +0.000 HD
ATOM     11  H   UNL     1      47.283   2.910  13.997  0.00  0.00    +0.000 HD
ENDBRANCH   8   9
ENDBRANCH   6   8
ENDBRANCH   1   2
BRANCH   1  12
ATOM     12  C   UNL     1      45.318   5.994   9.932  0.00  0.00    +0.000 C 
BRANCH  12  17
ATOM     13  C   UNL     1      45.907   3.132   7.657  0.00  0.00    +0.000 A 
ATOM     14  C   UNL     1      45.326   2.054   8.302  0.00  0.00    +0.000 A 
ATOM     15  C   UNL     1      44.781   2.267   9.563  0.00  0.00    +0.000 A 
ATOM     16  C   UNL     1      44.818   3.544  10.114  0.00  0.00    +0.000 A 
ATOM     17  C   UNL     1      45.381   4.587   9.378  0.00  0.00    +0.000 A 
ATOM     18  N   UNL     1      45.937   4.388   8.158  0.00  0.00    +0.000 NA
BRANCH  13  20
ATOM     19  C   UNL     1      47.084   2.791   5.330  0.00  0.00    +0.000 C 
ATOM     20  C   UNL     1      46.554   2.968   6.390  0.00  0.00    +0.000 C 
ENDBRANCH  13  20
ENDBRANCH  12  17
ENDBRANCH   1  12
TORSDOF 6
ENDMDL
MODEL 5
REMARK VINA RESULT:    -6.131      1.762      6.485
REMARK INTER + INTRA:          -8.526
REMARK INTER:                  -8.110
REMARK INTRA:                  -0.416
REMARK UNBOUND:                -0.424
REMARK  Name = 
REMARK  6 active torsions:
REMARK  status: ('A' for Active; 'I' for Inactive)
REMARK    1  A    between atoms: C_2  and  C_3
REMARK    2  A    between atoms: C_7  and  C_8
REMARK    3  A    between atoms: C_8  and  C_9
REMARK    4  A    between atoms: C_9  and  C_10
REMARK    5  A    between atoms: C_14  and  C_15
REMARK    6  A    between atoms: C_15  and  N_16
REMARK                            x       y       z     vdW  Elec       q    Type
REMARK                         _______ _______ _______ _____ _____    ______ ____
ROOT
ATOM      1  C   UNL     1      43.380   4.389  12.022  0.00  0.00    +0.000 C 
ENDROOT
BRANCH   1   2
ATOM      2  C   UNL     1      44.672   4.998  12.522  0.00  0.00    +0.000 A 
ATOM      3  C   UNL     1      45.631   4.224  13.188  0.00  0.00    +0.000 A 
ATOM      4  C   UNL     1      46.807   4.815  13.662  0.00  0.00    +0.000 A 
ATOM      5  C   UNL     1      47.019   6.181  13.492  0.00  0.00    +0.000 A 
ATOM      6  C   UNL     1      46.066   6.980  12.846  0.00  0.00    +0.000 A 
ATOM      7  C   UNL     1      44.905   6.372  12.346  0.00  0.00    +0.000 A 
BRANCH   6   8
ATOM      8  C   UNL     1      46.289   8.463  12.697  0.00  0.00    +0.000 C 
BRANCH   8   9
ATOM      9  N   UNL     1      45.062   9.216  12.941  0.00  0.00    +0.000 NA
ATOM     10  H   UNL     1      45.182  10.161  12.578  0.00  0.00    +0.000 HD
ATOM     11  H   UNL     1      44.919   9.305  13.943  0.00  0.00    +0.000 HD
ENDBRANCH   8   9
ENDBRANCH   6   8
ENDBRANCH   1   2
BRANCH   1  12
ATOM     12  C   UNL     1      43.605   3.028  11.349  0.00  0.00    +0.000 C 
BRANCH  12  17
ATOM     13  C   UNL     1      45.729   2.094   8.463  0.00  0.00    +0.000 A 
ATOM     14  C   UNL     1      45.923   3.282   7.779  0.00  0.00    +0.000 A 
ATOM     15  C   UNL     1      45.275   4.417   8.250  0.00  0.00    +0.000 A 
ATOM     16  C   UNL     1      44.482   4.326   9.391  0.00  0.00    +0.000 A 
ATOM     17  C   UNL     1      44.376   3.100  10.048  0.00  0.00    +0.000 A 
ATOM     18  N   UNL     1      44.983   1.980   9.585  0.00  0.00    +0.000 NA
BRANCH  13  20
ATOM     19  C   UNL     1      46.823  -0.141   7.611  0.00  0.00    +0.000 C 
ATOM     20  C   UNL     1      46.306   0.872   7.989  0.00  0.00    +0.000 C 
ENDBRANCH  13  20
ENDBRANCH  12  17
ENDBRANCH   1  12
TORSDOF 6
ENDMDL
MODEL 6
REMARK VINA RESULT:    -5.946      1.389      2.211
REMARK INTER + INTRA:          -8.282
REMARK INTER:                  -7.564
REMARK INTRA:                  -0.718
REMARK UNBOUND:                -0.424
REMARK  Name = 
REMARK  6 active torsions:
REMARK  status: ('A' for Active; 'I' for Inactive)
REMARK    1  A    between atoms: C_2  and  C_3
REMARK    2  A    between atoms: C_7  and  C_8
REMARK    3  A    between atoms: C_8  and  C_9
REMARK    4  A    between atoms: C_9  and  C_10
REMARK    5  A    between atoms: C_14  and  C_15
REMARK    6  A    between atoms: C_15  and  N_16
REMARK                            x       y       z     vdW  Elec       q    Type
REMARK                         _______ _______ _______ _____ _____    ______ ____
ROOT
ATOM      1  C   UNL     1      43.579   5.382  10.664  0.00  0.00    +0.000 C 
ENDROOT
BRANCH   1   2
ATOM      2  C   UNL     1      44.273   4.285   9.887  0.00  0.00    +0.000 A 
ATOM      3  C   UNL     1      44.047   2.933  10.176  0.00  0.00    +0.000 A 
ATOM      4  C   UNL     1      44.718   1.937   9.459  0.00  0.00    +0.000 A 
ATOM      5  C   UNL     1      45.633   2.287   8.468  0.00  0.00    +0.000 A 
ATOM      6  C   UNL     1      45.889   3.632   8.172  0.00  0.00    +0.000 A 
ATOM      7  C   UNL     1      45.188   4.623   8.875  0.00  0.00    +0.000 A 
BRANCH   6   8
ATOM      8  C   UNL     1      46.905   4.002   7.122  0.00  0.00    +0.000 C 
BRANCH   8   9
ATOM      9  N   UNL     1      47.780   2.878   6.803  0.00  0.00    +0.000 NA
ATOM     10  H   UNL     1      47.238   2.171   6.309  0.00  0.00    +0.000 HD
ATOM     11  H   UNL     1      48.100   2.449   7.667  0.00  0.00    +0.000 HD
ENDBRANCH   8   9
ENDBRANCH   6   8
ENDBRANCH   1   2
BRANCH   1  12
ATOM     12  C   UNL     1      43.720   5.193  12.181  0.00  0.00    +0.000 C 
BRANCH  12  17
ATOM     13  C   UNL     1      47.012   6.803  12.704  0.00  0.00    +0.000 A 
ATOM     14  C   UNL     1      47.679   5.952  13.568  0.00  0.00    +0.000 A 
ATOM     15  C   UNL     1      46.992   4.843  14.048  0.00  0.00    +0.000 A 
ATOM     16  C   UNL     1      45.684   4.618  13.630  0.00  0.00    +0.000 A 
ATOM     17  C   UNL     1      45.100   5.500  12.720  0.00  0.00    +0.000 A 
ATOM     18  N   UNL     1      45.751   6.599  12.263  0.00  0.00    +0.000 NA
BRANCH  13  20
ATOM     19  C   UNL     1      48.191   8.990  11.839  0.00  0.00    +0.000 C 
ATOM     20  C   UNL     1      47.635   8.004  12.232  0.00  0.00    +0.000 C 
ENDBRANCH  13  20
ENDBRANCH  12  17
ENDBRANCH   1  12
TORSDOF 6
ENDMDL
MODEL 7
REMARK VINA RESULT:    -5.878      3.914      6.186
REMARK INTER + INTRA:          -8.192
REMARK INTER:                  -7.797
REMARK INTRA:                  -0.396
REMARK UNBOUND:                -0.424
REMARK  Name = 
REMARK  6 active torsions:
REMARK  status: ('A' for Active; 'I' for Inactive)
REMARK    1  A    between atoms: C_2  and  C_3
REMARK    2  A    between atoms: C_7  and  C_8
REMARK    3  A    between atoms: C_8  and  C_9
REMARK    4  A    between atoms: C_9  and  C_10
REMARK    5  A    between atoms: C_14  and  C_15
REMARK    6  A    between atoms: C_15  and  N_16
REMARK                            x       y       z     vdW  Elec       q    Type
REMARK                         _______ _______ _______ _____ _____    ______ ____
ROOT
ATOM      1  C   UNL     1      47.150   5.276  14.178  0.00  0.00    +0.000 C 
ENDROOT
BRANCH   1   2
ATOM      2  C   UNL     1      46.389   5.212  12.872  0.00  0.00    +0.000 A 
ATOM      3  C   UNL     1      46.591   6.163  11.863  0.00  0.00    +0.000 A 
ATOM      4  C   UNL     1      45.858   6.096  10.674  0.00  0.00    +0.000 A 
ATOM      5  C   UNL     1      44.906   5.094  10.497  0.00  0.00    +0.000 A 
ATOM      6  C   UNL     1      44.673   4.142  11.498  0.00  0.00    +0.000 A 
ATOM      7  C   UNL     1      45.435   4.199  12.674  0.00  0.00    +0.000 A 
BRANCH   6   8
ATOM      8  C   UNL     1      43.617   3.083  11.311  0.00  0.00    +0.000 C 
BRANCH   8   9
ATOM      9  N   UNL     1      43.586   2.152  12.435  0.00  0.00    +0.000 NA
ATOM     10  H   UNL     1      43.401   2.676  13.289  0.00  0.00    +0.000 HD
ATOM     11  H   UNL     1      44.505   1.731  12.545  0.00  0.00    +0.000 HD
ENDBRANCH   8   9
ENDBRANCH   6   8
ENDBRANCH   1   2
BRANCH   1  12
ATOM     12  C   UNL     1      46.864   4.063  15.074  0.00  0.00    +0.000 C 
BRANCH  12  17
ATOM     13  C   UNL     1      49.499   3.017  17.456  0.00  0.00    +0.000 A 
ATOM     14  C   UNL     1      49.209   3.713  18.617  0.00  0.00    +0.000 A 
ATOM     15  C   UNL     1      48.148   4.609  18.591  0.00  0.00    +0.000 A 
ATOM     16  C   UNL     1      47.409   4.757  17.421  0.00  0.00    +0.000 A 
ATOM     17  C   UNL     1      47.738   3.983  16.307  0.00  0.00    +0.000 A 
ATOM     18  N   UNL     1      48.786   3.123  16.312  0.00  0.00    +0.000 NA
BRANCH  13  20
ATOM     19  C   UNL     1      51.569   1.396  17.376  0.00  0.00    +0.000 C 
ATOM     20  C   UNL     1      50.625   2.135  17.391  0.00  0.00    +0.000 C 
ENDBRANCH  13  20
ENDBRANCH  12  17
ENDBRANCH   1  12
TORSDOF 6
ENDMDL
MODEL 8
REMARK VINA RESULT:    -5.661      2.701      6.356
REMARK INTER + INTRA:          -7.906
REMARK INTER:                  -7.498
REMARK INTRA:                  -0.408
REMARK UNBOUND:                -0.424
REMARK  Name = 
REMARK  6 active torsions:
REMARK  status: ('A' for Active; 'I' for Inactive)
REMARK    1  A    between atoms: C_2  and  C_3
REMARK    2  A    between atoms: C_7  and  C_8
REMARK    3  A    between atoms: C_8  and  C_9
REMARK    4  A    between atoms: C_9  and  C_10
REMARK    5  A    between atoms: C_14  and  C_15
REMARK    6  A    between atoms: C_15  and  N_16
REMARK                            x       y       z     vdW  Elec       q    Type
REMARK                         _______ _______ _______ _____ _____    ______ ____
ROOT
ATOM      1  C   UNL     1      46.250   6.163  11.983  0.00  0.00    +0.000 C 
ENDROOT
BRANCH   1   2
ATOM      2  C   UNL     1      47.010   7.472  11.987  0.00  0.00    +0.000 A 
ATOM      3  C   UNL     1      46.353   8.694  12.182  0.00  0.00    +0.000 A 
ATOM      4  C   UNL     1      47.073   9.893  12.158  0.00  0.00    +0.000 A 
ATOM      5  C   UNL     1      48.446   9.877  11.917  0.00  0.00    +0.000 A 
ATOM      6  C   UNL     1      49.122   8.669  11.702  0.00  0.00    +0.000 A 
ATOM      7  C   UNL     1      48.396   7.470  11.759  0.00  0.00    +0.000 A 
BRANCH   6   8
ATOM      8  C   UNL     1      50.601   8.665  11.409  0.00  0.00    +0.000 C 
BRANCH   8   9
ATOM      9  N   UNL     1      51.107   7.309  11.221  0.00  0.00    +0.000 NA
ATOM     10  H   UNL     1      51.403   7.202  10.252  0.00  0.00    +0.000 HD
ATOM     11  H   UNL     1      50.350   6.647  11.368  0.00  0.00    +0.000 HD
ENDBRANCH   8   9
ENDBRANCH   6   8
ENDBRANCH   1   2
BRANCH   1  12
ATOM     12  C   UNL     1      45.208   6.104  10.857  0.00  0.00    +0.000 C 
BRANCH  12  17
ATOM     13  C   UNL     1      45.478   3.401   8.340  0.00  0.00    +0.000 A 
ATOM     14  C   UNL     1      44.751   2.354   8.879  0.00  0.00    +0.000 A 
ATOM     15  C   UNL     1      44.210   2.523  10.149  0.00  0.00    +0.000 A 
ATOM     16  C   UNL     1      44.397   3.732  10.814  0.00  0.00    +0.000 A 
ATOM     17  C   UNL     1      45.103   4.754  10.180  0.00  0.00    +0.000 A 
ATOM     18  N   UNL     1      45.656   4.593   8.952  0.00  0.00    +0.000 NA
BRANCH  13  20
ATOM     19  C   UNL     1      46.702   3.156   6.025  0.00  0.00    +0.000 C 
ATOM     20  C   UNL     1      46.125   3.267   7.070  0.00  0.00    +0.000 C 
ENDBRANCH  13  20
ENDBRANCH  12  17
ENDBRANCH   1  12
TORSDOF 6
ENDMDL
MODEL 9
REMARK VINA RESULT:    -5.634      2.749      5.104
REMARK INTER + INTRA:          -7.869
REMARK INTER:                  -7.372
REMARK INTRA:                  -0.497
REMARK UNBOUND:                -0.424
REMARK  Name = 
REMARK  6 active torsions:
REMARK  status: ('A' for Active; 'I' for Inactive)
REMARK    1  A    between atoms: C_2  and  C_3
REMARK    2  A    between atoms: C_7  and  C_8
REMARK    3  A    between atoms: C_8  and  C_9
REMARK    4  A    between atoms: C_9  and  C_10
REMARK    5  A    between atoms: C_14  and  C_15
REMARK    6  A    between atoms: C_15  and  N_16
REMARK                            x       y       z     vdW  Elec       q    Type
REMARK                         _______ _______ _______ _____ _____    ______ ____
ROOT
ATOM      1  C   UNL     1      46.241   7.145  12.491  0.00  0.00    +0.000 C 
ENDROOT
BRANCH   1   2
ATOM      2  C   UNL     1      45.185   6.160  12.038  0.00  0.00    +0.000 A 
ATOM      3  C   UNL     1      44.153   5.755  12.893  0.00  0.00    +0.000 A 
ATOM      4  C   UNL     1      43.203   4.825  12.460  0.00  0.00    +0.000 A 
ATOM      5  C   UNL     1      43.293   4.280  11.181  0.00  0.00    +0.000 A 
ATOM      6  C   UNL     1      44.327   4.655  10.313  0.00  0.00    +0.000 A 
ATOM      7  C   UNL     1      45.257   5.613  10.746  0.00  0.00    +0.000 A 
BRANCH   6   8
ATOM      8  C   UNL     1      44.436   4.035   8.944  0.00  0.00    +0.000 C 
BRANCH   8   9
ATOM      9  N   UNL     1      45.484   4.669   8.149  0.00  0.00    +0.000 NA
ATOM     10  H   UNL     1      46.338   4.704   8.703  0.00  0.00    +0.000 HD
ATOM     11  H   UNL     1      45.221   5.632   7.958  0.00  0.00    +0.000 HD
ENDBRANCH   8   9
ENDBRANCH   6   8
ENDBRANCH   1   2
BRANCH   1  12
ATOM     12  C   UNL     1      47.625   6.493  12.614  0.00  0.00    +0.000 C 
BRANCH  12  17
ATOM     13  C   UNL     1      48.093   5.240  16.067  0.00  0.00    +0.000 A 
ATOM     14  C   UNL     1      48.879   6.201  16.679  0.00  0.00    +0.000 A 
ATOM     15  C   UNL     1      49.326   7.266  15.905  0.00  0.00    +0.000 A 
ATOM     16  C   UNL     1      48.953   7.338  14.566  0.00  0.00    +0.000 A 
ATOM     17  C   UNL     1      48.119   6.352  14.038  0.00  0.00    +0.000 A 
ATOM     18  N   UNL     1      47.697   5.296  14.776  0.00  0.00    +0.000 NA
BRANCH  13  20
ATOM     19  C   UNL     1      47.313   3.085  17.358  0.00  0.00    +0.000 C 
ATOM     20  C   UNL     1      47.661   4.079  16.786  0.00  0.00    +0.000 C 
ENDBRANCH  13  20
ENDBRANCH  12  17
ENDBRANCH   1  12
TORSDOF 6
ENDMDL
