MODEL 1
REMARK VINA RESULT:    -6.138      0.000      0.000
REMARK INTER + INTRA:          -8.125
REMARK INTER:                  -7.752
REMARK INTRA:                  -0.372
REMARK UNBOUND:                -0.372
REMARK  Name = 
REMARK  6 active torsions:
REMARK  status: ('A' for Active; 'I' for Inactive)
REMARK    1  A    between atoms: C_1  and  O_2
REMARK    2  A    between atoms: O_2  and  C_3
REMARK    3  A    between atoms: C_5  and  C_6
REMARK    4  A    between atoms: C_7  and  C_8
REMARK    5  A    between atoms: C_11  and  C_12
REMARK    6  A    between atoms: C_19  and  O_20
REMARK                            x       y       z     vdW  Elec       q    Type
REMARK                         _______ _______ _______ _____ _____    ______ ____
ROOT
ATOM      1  C   UNL     1      45.294   3.700   8.321  0.00  0.00    +0.000 C 
ATOM      2  C   UNL     1      46.474   3.408   7.747  0.00  0.00    +0.000 C 
ENDROOT
BRANCH   1   5
ATOM      3  C   UNL     1      43.896   5.453  11.395  0.00  0.00    +0.000 A 
ATOM      4  C   UNL     1      44.027   4.561  10.322  0.00  0.00    +0.000 A 
ATOM      5  C   UNL     1      45.119   4.640   9.442  0.00  0.00    +0.000 A 
ATOM      6  C   UNL     1      46.107   5.605   9.676  0.00  0.00    +0.000 A 
ATOM      7  C   UNL     1      45.989   6.501  10.742  0.00  0.00    +0.000 A 
ATOM      8  C   UNL     1      44.886   6.424  11.590  0.00  0.00    +0.000 A 
BRANCH   3  10
ATOM      9  C   UNL     1      42.939   4.536  13.375  0.00  0.00    +0.000 C 
ATOM     10  O   UNL     1      42.859   5.449  12.290  0.00  0.00    +0.000 OA
ENDBRANCH   3  10
BRANCH   8  11
ATOM     11  O   UNL     1      44.766   7.304  12.631  0.00  0.00    +0.000 OA
ATOM     12  H   UNL     1      45.417   7.083  13.314  0.00  0.00    +0.000 HD
ENDBRANCH   8  11
ENDBRANCH   1   5
BRANCH   2  13
ATOM     13  C   UNL     1      46.641   2.475   6.621  0.00  0.00    +0.000 A 
ATOM     14  C   UNL     1      46.655   2.891   5.288  0.00  0.00    +0.000 A 
ATOM     15  C   UNL     1      46.854   1.961   4.267  0.00  0.00    +0.000 A 
ATOM     16  C   UNL     1      47.051   0.632   4.615  0.00  0.00    +0.000 A 
ATOM     17  N   UNL     1      47.063   0.179   5.899  0.00  0.00    +0.000 NA
ATOM     18  C   UNL     1      46.861   1.115   6.861  0.00  0.00    +0.000 A 
BRANCH  16  19
ATOM     19  C   UNL     1      47.276  -0.382   3.536  0.00  0.00    +0.000 C 
ATOM     20  N   UNL     1      46.826  -1.645   3.805  0.00  0.00    +0.000 N 
ATOM     21  O   UNL     1      47.828  -0.108   2.477  0.00  0.00    +0.000 OA
ATOM     22  H   UNL     1      46.377  -1.838   4.692  0.00  0.00    +0.000 HD
ATOM     23  H   UNL     1      46.951  -2.376   3.120  0.00  0.00    +0.000 HD
ENDBRANCH  16  19
ENDBRANCH   2  13
TORSDOF 5
ENDMDL
MODEL 2
REMARK VINA RESULT:    -6.089      6.418      9.980
REMARK INTER + INTRA:          -8.063
REMARK INTER:                  -7.699
REMARK INTRA:                  -0.364
REMARK UNBOUND:                -0.372
REMARK  Name = 
REMARK  6 active torsions:
REMARK  status: ('A' for Active; 'I' for Inactive)
REMARK    1  A    between atoms: C_1  and  O_2
REMARK    2  A    between atoms: O_2  and  C_3
REMARK    3  A    between atoms: C_5  and  C_6
REMARK    4  A    between atoms: C_7  and  C_8
REMARK    5  A    between atoms: C_11  and  C_12
REMARK    6  A    between atoms: C_19  and  O_20
REMARK                            x       y       z     vdW  Elec       q    Type
REMARK                         _______ _______ _______ _____ _____    ______ ____
ROOT
ATOM      1  C   UNL     1      46.149   4.205  13.839  0.00  0.00    +0.000 C 
ATOM      2  C   UNL     1      47.061   5.075  14.305  0.00  0.00    +0.000 C 
ENDROOT
BRANCH   1   5
ATOM      3  C   UNL     1      44.619   3.247  10.490  0.00  0.00    +0.000 A 
ATOM      4  C   UNL     1      45.241   3.144  11.740  0.00  0.00    +0.000 A 
ATOM      5  C   UNL     1      45.517   4.286  12.510  0.00  0.00    +0.000 A 
ATOM      6  C   UNL     1      45.120   5.539  12.026  0.00  0.00    +0.000 A 
ATOM      7  C   UNL     1      44.498   5.657  10.781  0.00  0.00    +0.000 A 
ATOM      8  C   UNL     1      44.256   4.516  10.019  0.00  0.00    +0.000 A 
BRANCH   3  10
ATOM      9  C   UNL     1      45.362   1.702   8.835  0.00  0.00    +0.000 C 
ATOM     10  O   UNL     1      44.324   2.186   9.675  0.00  0.00    +0.000 OA
ENDBRANCH   3  10
BRANCH   8  11
ATOM     11  O   UNL     1      43.651   4.629   8.797  0.00  0.00    +0.000 OA
ATOM     12  H   UNL     1      43.344   5.540   8.675  0.00  0.00    +0.000 HD
ENDBRANCH   8  11
ENDBRANCH   1   5
BRANCH   2  13
ATOM     13  C   UNL     1      47.695   4.983  15.630  0.00  0.00    +0.000 A 
ATOM     14  C   UNL     1      48.575   5.953  16.118  0.00  0.00    +0.000 A 
ATOM     15  C   UNL     1      49.114   5.827  17.398  0.00  0.00    +0.000 A 
ATOM     16  C   UNL     1      48.742   4.731  18.166  0.00  0.00    +0.000 A 
ATOM     17  N   UNL     1      47.876   3.769  17.742  0.00  0.00    +0.000 NA
ATOM     18  C   UNL     1      47.378   3.928  16.490  0.00  0.00    +0.000 A 
BRANCH  16  19
ATOM     19  C   UNL     1      49.302   4.580  19.546  0.00  0.00    +0.000 C 
ATOM     20  N   UNL     1      48.534   3.865  20.423  0.00  0.00    +0.000 N 
ATOM     21  O   UNL     1      50.378   5.064  19.879  0.00  0.00    +0.000 OA
ATOM     22  H   UNL     1      47.648   3.482  20.116  0.00  0.00    +0.000 HD
ATOM     23  H   UNL     1      48.853   3.731  21.371  0.00  0.00    +0.000 HD
ENDBRANCH  16  19
ENDBRANCH   2  13
TORSDOF 5
ENDMDL
MODEL 3
REMARK VINA RESULT:    -5.758      5.498      8.828
REMARK INTER + INTRA:          -7.645
REMARK INTER:                  -7.260
REMARK INTRA:                  -0.385
REMARK UNBOUND:                -0.372
REMARK  Name = 
REMARK  6 active torsions:
REMARK  status: ('A' for Active; 'I' for Inactive)
REMARK    1  A    between atoms: C_1  and  O_2
REMARK    2  A    between atoms: O_2  and  C_3
REMARK    3  A    between atoms: C_5  and  C_6
REMARK    4  A    between atoms: C_7  and  C_8
REMARK    5  A    between atoms: C_11  and  C_12
REMARK    6  A    between atoms: C_19  and  O_20
REMARK                            x       y       z     vdW  Elec       q    Type
REMARK                         _______ _______ _______ _____ _____    ______ ____
ROOT
ATOM      1  C   UNL     1      46.009   6.624  11.410  0.00  0.00    +0.000 C 
ATOM      2  C   UNL     1      47.214   6.744  11.992  0.00  0.00    +0.000 C 
ENDROOT
BRANCH   1   5
ATOM      3  C   UNL     1      44.322   3.349  10.462  0.00  0.00    +0.000 A 
ATOM      4  C   UNL     1      45.106   4.507  10.384  0.00  0.00    +0.000 A 
ATOM      5  C   UNL     1      45.174   5.411  11.456  0.00  0.00    +0.000 A 
ATOM      6  C   UNL     1      44.472   5.118  12.633  0.00  0.00    +0.000 A 
ATOM      7  C   UNL     1      43.687   3.966  12.725  0.00  0.00    +0.000 A 
ATOM      8  C   UNL     1      43.611   3.093  11.642  0.00  0.00    +0.000 A 
BRANCH   3  10
ATOM      9  C   UNL     1      45.390   1.944   8.860  0.00  0.00    +0.000 C 
ATOM     10  O   UNL     1      44.195   2.423   9.460  0.00  0.00    +0.000 OA
ENDBRANCH   3  10
BRANCH   8  11
ATOM     11  O   UNL     1      42.838   1.968  11.728  0.00  0.00    +0.000 OA
ATOM     12  H   UNL     1      42.559   1.840  12.647  0.00  0.00    +0.000 HD
ENDBRANCH   8  11
ENDBRANCH   1   5
BRANCH   2  13
ATOM     13  C   UNL     1      48.039   7.962  11.949  0.00  0.00    +0.000 A 
ATOM     14  C   UNL     1      49.387   7.953  11.579  0.00  0.00    +0.000 A 
ATOM     15  C   UNL     1      50.105   9.147  11.522  0.00  0.00    +0.000 A 
ATOM     16  C   UNL     1      49.443  10.329  11.826  0.00  0.00    +0.000 A 
ATOM     17  N   UNL     1      48.129  10.393  12.176  0.00  0.00    +0.000 NA
ATOM     18  C   UNL     1      47.468   9.209  12.223  0.00  0.00    +0.000 A 
BRANCH  16  19
ATOM     19  C   UNL     1      50.192  11.624  11.763  0.00  0.00    +0.000 C 
ATOM     20  N   UNL     1      50.072  12.434  12.859  0.00  0.00    +0.000 N 
ATOM     21  O   UNL     1      50.872  11.948  10.795  0.00  0.00    +0.000 OA
ATOM     22  H   UNL     1      49.500  12.137  13.639  0.00  0.00    +0.000 HD
ATOM     23  H   UNL     1      50.549  13.323  12.877  0.00  0.00    +0.000 HD
ENDBRANCH  16  19
ENDBRANCH   2  13
TORSDOF 5
ENDMDL
MODEL 4
REMARK VINA RESULT:    -5.601      6.943      9.770
REMARK INTER + INTRA:          -7.447
REMARK INTER:                  -7.071
REMARK INTRA:                  -0.376
REMARK UNBOUND:                -0.372
REMARK  Name = 
REMARK  6 active torsions:
REMARK  status: ('A' for Active; 'I' for Inactive)
REMARK    1  A    between atoms: C_1  and  O_2
REMARK    2  A    between atoms: O_2  and  C_3
REMARK    3  A    between atoms: C_5  and  C_6
REMARK    4  A    between atoms: C_7  and  C_8
REMARK    5  A    between atoms: C_11  and  C_12
REMARK    6  A    between atoms: C_19  and  O_20
REMARK                            x       y       z     vdW  Elec       q    Type
REMARK                         _______ _______ _______ _____ _____    ______ ____
ROOT
ATOM      1  C   UNL     1      47.087   5.218  14.107  0.00  0.00    +0.000 C 
ATOM      2  C   UNL     1      46.975   4.558  15.273  0.00  0.00    +0.000 C 
ENDROOT
BRANCH   1   5
ATOM      3  C   UNL     1      44.026   4.760  11.894  0.00  0.00    +0.000 A 
ATOM      4  C   UNL     1      45.096   4.474  12.752  0.00  0.00    +0.000 A 
ATOM      5  C   UNL     1      45.968   5.485  13.186  0.00  0.00    +0.000 A 
ATOM      6  C   UNL     1      45.729   6.805  12.779  0.00  0.00    +0.000 A 
ATOM      7  C   UNL     1      44.665   7.105  11.925  0.00  0.00    +0.000 A 
ATOM      8  C   UNL     1      43.826   6.084  11.483  0.00  0.00    +0.000 A 
BRANCH   3  10
ATOM      9  C   UNL     1      43.358   2.475  11.780  0.00  0.00    +0.000 C 
ATOM     10  O   UNL     1      43.138   3.831  11.418  0.00  0.00    +0.000 OA
ENDBRANCH   3  10
BRANCH   8  11
ATOM     11  O   UNL     1      42.787   6.374  10.641  0.00  0.00    +0.000 OA
ATOM     12  H   UNL     1      42.164   6.964  11.093  0.00  0.00    +0.000 HD
ENDBRANCH   8  11
ENDBRANCH   1   5
BRANCH   2  13
ATOM     13  C   UNL     1      48.096   4.302  16.192  0.00  0.00    +0.000 A 
ATOM     14  C   UNL     1      48.442   3.019  16.626  0.00  0.00    +0.000 A 
ATOM     15  C   UNL     1      49.539   2.838  17.468  0.00  0.00    +0.000 A 
ATOM     16  C   UNL     1      50.274   3.955  17.843  0.00  0.00    +0.000 A 
ATOM     17  N   UNL     1      49.988   5.222  17.434  0.00  0.00    +0.000 NA
ATOM     18  C   UNL     1      48.911   5.355  16.619  0.00  0.00    +0.000 A 
BRANCH  16  19
ATOM     19  C   UNL     1      51.460   3.783  18.740  0.00  0.00    +0.000 C 
ATOM     20  N   UNL     1      52.232   2.680  18.500  0.00  0.00    +0.000 N 
ATOM     21  O   UNL     1      51.731   4.575  19.636  0.00  0.00    +0.000 OA
ATOM     22  H   UNL     1      51.977   2.045  17.753  0.00  0.00    +0.000 HD
ATOM     23  H   UNL     1      53.044   2.504  19.072  0.00  0.00    +0.000 HD
ENDBRANCH  16  19
ENDBRANCH   2  13
TORSDOF 5
ENDMDL
MODEL 5
REMARK VINA RESULT:    -5.366      7.264      9.698
REMARK INTER + INTRA:          -7.150
REMARK INTER:                  -6.766
REMARK INTRA:                  -0.385
REMARK UNBOUND:                -0.372
REMARK  Name = 
REMARK  6 active torsions:
REMARK  status: ('A' for Active; 'I' for Inactive)
REMARK    1  A    between atoms: C_1  and  O_2
REMARK    2  A    between atoms: O_2  and  C_3
REMARK    3  A    between atoms: C_5  and  C_6
REMARK    4  A    between atoms: C_7  and  C_8
REMARK    5  A    between atoms: C_11  and  C_12
REMARK    6  A    between atoms: C_19  and  O_20
REMARK                            x       y       z     vdW  Elec       q    Type
REMARK                         _______ _______ _______ _____ _____    ______ ____
ROOT
ATOM      1  C   UNL     1      46.927   4.620  14.040  0.00  0.00    +0.000 C 
ATOM      2  C   UNL     1      47.003   4.679  15.381  0.00  0.00    +0.000 C 
ENDROOT
BRANCH   1   5
ATOM      3  C   UNL     1      44.656   6.766  11.869  0.00  0.00    +0.000 A 
ATOM      4  C   UNL     1      45.752   6.354  12.637  0.00  0.00    +0.000 A 
ATOM      5  C   UNL     1      45.778   5.088  13.246  0.00  0.00    +0.000 A 
ATOM      6  C   UNL     1      44.700   4.218  13.039  0.00  0.00    +0.000 A 
ATOM      7  C   UNL     1      43.600   4.615  12.274  0.00  0.00    +0.000 A 
ATOM      8  C   UNL     1      43.582   5.884  11.699  0.00  0.00    +0.000 A 
BRANCH   3  10
ATOM      9  C   UNL     1      45.129   9.101  11.911  0.00  0.00    +0.000 C 
ATOM     10  O   UNL     1      44.550   7.984  11.251  0.00  0.00    +0.000 OA
ENDBRANCH   3  10
BRANCH   8  11
ATOM     11  O   UNL     1      42.503   6.277  10.954  0.00  0.00    +0.000 OA
ATOM     12  H   UNL     1      41.697   6.182  11.483  0.00  0.00    +0.000 HD
ENDBRANCH   8  11
ENDBRANCH   1   5
BRANCH   2  13
ATOM     13  C   UNL     1      48.159   4.217  16.167  0.00  0.00    +0.000 A 
ATOM     14  C   UNL     1      48.350   2.879  16.520  0.00  0.00    +0.000 A 
ATOM     15  C   UNL     1      49.485   2.499  17.235  0.00  0.00    +0.000 A 
ATOM     16  C   UNL     1      50.414   3.477  17.566  0.00  0.00    +0.000 A 
ATOM     17  N   UNL     1      50.282   4.790  17.232  0.00  0.00    +0.000 NA
ATOM     18  C   UNL     1      49.162   5.118  16.540  0.00  0.00    +0.000 A 
BRANCH  16  19
ATOM     19  C   UNL     1      51.644   3.090  18.326  0.00  0.00    +0.000 C 
ATOM     20  N   UNL     1      51.934   3.860  19.419  0.00  0.00    +0.000 N 
ATOM     21  O   UNL     1      52.355   2.147  17.997  0.00  0.00    +0.000 OA
ATOM     22  H   UNL     1      51.327   4.634  19.660  0.00  0.00    +0.000 HD
ATOM     23  H   UNL     1      52.753   3.654  19.972  0.00  0.00    +0.000 HD
ENDBRANCH  16  19
ENDBRANCH   2  13
TORSDOF 5
ENDMDL
MODEL 6
REMARK VINA RESULT:    -5.219      6.617      8.782
REMARK INTER + INTRA:          -6.964
REMARK INTER:                  -6.556
REMARK INTRA:                  -0.408
REMARK UNBOUND:                -0.372
REMARK  Name = 
REMARK  6 active torsions:
REMARK  status: ('A' for Active; 'I' for Inactive)
REMARK    1  A    between atoms: C_1  and  O_2
REMARK    2  A    between atoms: O_2  and  C_3
REMARK    3  A    between atoms: C_5  and  C_6
REMARK    4  A    between atoms: C_7  and  C_8
REMARK    5  A    between atoms: C_11  and  C_12
REMARK    6  A    between atoms: C_19  and  O_20
REMARK                            x       y       z     vdW  Elec       q    Type
REMARK                         _______ _______ _______ _____ _____    ______ ____
ROOT
ATOM      1  C   UNL     1      47.977   5.250  15.730  0.00  0.00    +0.000 C 
ATOM      2  C   UNL     1      47.067   4.466  15.128  0.00  0.00    +0.000 C 
ENDROOT
BRANCH   1   5
ATOM      3  C   UNL     1      50.281   4.485  18.660  0.00  0.00    +0.000 A 
ATOM      4  C   UNL     1      49.814   4.655  17.350  0.00  0.00    +0.000 A 
ATOM      5  C   UNL     1      48.488   5.042  17.096  0.00  0.00    +0.000 A 
ATOM      6  C   UNL     1      47.641   5.300  18.182  0.00  0.00    +0.000 A 
ATOM      7  C   UNL     1      48.093   5.137  19.493  0.00  0.00    +0.000 A 
ATOM      8  C   UNL     1      49.404   4.726  19.725  0.00  0.00    +0.000 A 
BRANCH   3  10
ATOM      9  C   UNL     1      52.598   4.475  18.103  0.00  0.00    +0.000 C 
ATOM     10  O   UNL     1      51.554   4.101  18.990  0.00  0.00    +0.000 OA
ENDBRANCH   3  10
BRANCH   8  11
ATOM     11  O   UNL     1      49.848   4.559  21.008  0.00  0.00    +0.000 OA
ATOM     12  H   UNL     1      49.151   4.142  21.537  0.00  0.00    +0.000 HD
ENDBRANCH   8  11
ENDBRANCH   1   5
BRANCH   2  13
ATOM     13  C   UNL     1      46.567   4.675  13.759  0.00  0.00    +0.000 A 
ATOM     14  C   UNL     1      46.829   5.835  13.025  0.00  0.00    +0.000 A 
ATOM     15  C   UNL     1      46.358   5.957  11.718  0.00  0.00    +0.000 A 
ATOM     16  C   UNL     1      45.644   4.899  11.173  0.00  0.00    +0.000 A 
ATOM     17  N   UNL     1      45.376   3.742  11.841  0.00  0.00    +0.000 NA
ATOM     18  C   UNL     1      45.849   3.666  13.110  0.00  0.00    +0.000 A 
BRANCH  16  19
ATOM     19  C   UNL     1      45.136   5.004   9.769  0.00  0.00    +0.000 C 
ATOM     20  N   UNL     1      43.811   4.715   9.593  0.00  0.00    +0.000 N 
ATOM     21  O   UNL     1      45.854   5.327   8.829  0.00  0.00    +0.000 OA
ATOM     22  H   UNL     1      43.247   4.448  10.390  0.00  0.00    +0.000 HD
ATOM     23  H   UNL     1      43.408   4.763   8.669  0.00  0.00    +0.000 HD
ENDBRANCH  16  19
ENDBRANCH   2  13
TORSDOF 5
ENDMDL
MODEL 7
REMARK VINA RESULT:    -4.996      5.837      8.440
REMARK INTER + INTRA:          -6.682
REMARK INTER:                  -6.265
REMARK INTRA:                  -0.418
REMARK UNBOUND:                -0.372
REMARK  Name = 
REMARK  6 active torsions:
REMARK  status: ('A' for Active; 'I' for Inactive)
REMARK    1  A    between atoms: C_1  and  O_2
REMARK    2  A    between atoms: O_2  and  C_3
REMARK    3  A    between atoms: C_5  and  C_6
REMARK    4  A    between atoms: C_7  and  C_8
REMARK    5  A    between atoms: C_11  and  C_12
REMARK    6  A    between atoms: C_19  and  O_20
REMARK                            x       y       z     vdW  Elec       q    Type
REMARK                         _______ _______ _______ _____ _____    ______ ____
ROOT
ATOM      1  C   UNL     1      48.974   7.554  11.748  0.00  0.00    +0.000 C 
ATOM      2  C   UNL     1      48.276   6.923  12.707  0.00  0.00    +0.000 C 
ENDROOT
BRANCH   1   5
ATOM      3  C   UNL     1      51.417  10.053  13.251  0.00  0.00    +0.000 A 
ATOM      4  C   UNL     1      50.253   9.306  13.031  0.00  0.00    +0.000 A 
ATOM      5  C   UNL     1      50.177   8.370  11.987  0.00  0.00    +0.000 A 
ATOM      6  C   UNL     1      51.307   8.160  11.185  0.00  0.00    +0.000 A 
ATOM      7  C   UNL     1      52.475   8.898  11.394  0.00  0.00    +0.000 A 
ATOM      8  C   UNL     1      52.523   9.841  12.418  0.00  0.00    +0.000 A 
BRANCH   3  10
ATOM      9  C   UNL     1      50.648  12.073  14.256  0.00  0.00    +0.000 C 
ATOM     10  O   UNL     1      51.567  10.990  14.240  0.00  0.00    +0.000 OA
ENDBRANCH   3  10
BRANCH   8  11
ATOM     11  O   UNL     1      53.663  10.568  12.621  0.00  0.00    +0.000 OA
ATOM     12  H   UNL     1      54.000  10.881  11.767  0.00  0.00    +0.000 HD
ENDBRANCH   8  11
ENDBRANCH   1   5
BRANCH   2  13
ATOM     13  C   UNL     1      47.080   6.102  12.460  0.00  0.00    +0.000 A 
ATOM     14  C   UNL     1      46.288   6.242  11.317  0.00  0.00    +0.000 A 
ATOM     15  C   UNL     1      45.187   5.408  11.122  0.00  0.00    +0.000 A 
ATOM     16  C   UNL     1      44.917   4.438  12.079  0.00  0.00    +0.000 A 
ATOM     17  N   UNL     1      45.668   4.250  13.199  0.00  0.00    +0.000 NA
ATOM     18  C   UNL     1      46.726   5.085  13.352  0.00  0.00    +0.000 A 
BRANCH  16  19
ATOM     19  C   UNL     1      43.746   3.526  11.886  0.00  0.00    +0.000 C 
ATOM     20  N   UNL     1      43.828   2.313  12.514  0.00  0.00    +0.000 N 
ATOM     21  O   UNL     1      42.772   3.835  11.209  0.00  0.00    +0.000 OA
ATOM     22  H   UNL     1      44.649   2.089  13.063  0.00  0.00    +0.000 HD
ATOM     23  H   UNL     1      43.072   1.651  12.420  0.00  0.00    +0.000 HD
ENDBRANCH  16  19
ENDBRANCH   2  13
TORSDOF 5
ENDMDL
MODEL 8
REMARK VINA RESULT:    -4.914      7.176      8.683
REMARK INTER + INTRA:          -6.579
REMARK INTER:                  -6.208
REMARK INTRA:                  -0.372
REMARK UNBOUND:                -0.372
REMARK  Name = 
REMARK  6 active torsions:
REMARK  status: ('A' for Active; 'I' for Inactive)
REMARK    1  A    between atoms: C_1  and  O_2
REMARK    2  A    between atoms: O_2  and  C_3
REMARK    3  A    between atoms: C_5  and  C_6
REMARK    4  A    between atoms: C_7  and  C_8
REMARK    5  A    between atoms: C_11  and  C_12
REMARK    6  A    between atoms: C_19  and  O_20
REMARK                            x       y       z     vdW  Elec       q    Type
REMARK                         _______ _______ _______ _____ _____    ______ ____
ROOT
ATOM      1  C   UNL     1      43.868   9.097  11.470  0.00  0.00    +0.000 C 
ATOM      2  C   UNL     1      44.764   8.185  11.054  0.00  0.00    +0.000 C 
ENDROOT
BRANCH   1   5
ATOM      3  C   UNL     1      43.241  11.624   8.696  0.00  0.00    +0.000 A 
ATOM      4  C   UNL     1      43.889  10.700   9.525  0.00  0.00    +0.000 A 
ATOM      5  C   UNL     1      43.217  10.089  10.596  0.00  0.00    +0.000 A 
ATOM      6  C   UNL     1      41.864  10.387  10.803  0.00  0.00    +0.000 A 
ATOM      7  C   UNL     1      41.204  11.306   9.983  0.00  0.00    +0.000 A 
ATOM      8  C   UNL     1      41.894  11.922   8.941  0.00  0.00    +0.000 A 
BRANCH   3  10
ATOM      9  C   UNL     1      44.982  11.671   7.070  0.00  0.00    +0.000 C 
ATOM     10  O   UNL     1      43.827  12.270   7.639  0.00  0.00    +0.000 OA
ENDBRANCH   3  10
BRANCH   8  11
ATOM     11  O   UNL     1      41.252  12.827   8.141  0.00  0.00    +0.000 OA
ATOM     12  H   UNL     1      40.389  13.041   8.528  0.00  0.00    +0.000 HD
ENDBRANCH   8  11
ENDBRANCH   1   5
BRANCH   2  13
ATOM     13  C   UNL     1      45.404   7.191  11.931  0.00  0.00    +0.000 A 
ATOM     14  C   UNL     1      46.767   7.214  12.236  0.00  0.00    +0.000 A 
ATOM     15  C   UNL     1      47.306   6.265  13.104  0.00  0.00    +0.000 A 
ATOM     16  C   UNL     1      46.454   5.320  13.659  0.00  0.00    +0.000 A 
ATOM     17  N   UNL     1      45.117   5.265  13.407  0.00  0.00    +0.000 NA
ATOM     18  C   UNL     1      44.634   6.204  12.555  0.00  0.00    +0.000 A 
BRANCH  16  19
ATOM     19  C   UNL     1      47.009   4.297  14.600  0.00  0.00    +0.000 C 
ATOM     20  N   UNL     1      47.138   4.695  15.902  0.00  0.00    +0.000 N 
ATOM     21  O   UNL     1      47.333   3.171  14.236  0.00  0.00    +0.000 OA
ATOM     22  H   UNL     1      46.864   5.633  16.167  0.00  0.00    +0.000 HD
ATOM     23  H   UNL     1      47.510   4.052  16.586  0.00  0.00    +0.000 HD
ENDBRANCH  16  19
ENDBRANCH   2  13
TORSDOF 5
ENDMDL
MODEL 9
REMARK VINA RESULT:    -4.896      5.520      8.237
REMARK INTER + INTRA:          -6.556
REMARK INTER:                  -6.126
REMARK INTRA:                  -0.430
REMARK UNBOUND:                -0.372
REMARK  Name = 
REMARK  6 active torsions:
REMARK  status: ('A' for Active; 'I' for Inactive)
REMARK    1  A    between atoms: C_1  and  O_2
REMARK    2  A    between atoms: O_2  and  C_3
REMARK    3  A    between atoms: C_5  and  C_6
REMARK    4  A    between atoms: C_7  and  C_8
REMARK    5  A    between atoms: C_11  and  C_12
REMARK    6  A    between atoms: C_19  and  O_20
REMARK                            x       y       z     vdW  Elec       q    Type
REMARK                         _______ _______ _______ _____ _____    ______ ____
ROOT
ATOM      1  C   UNL     1      48.520   7.772  11.732  0.00  0.00    +0.000 C 
ATOM      2  C   UNL     1      47.273   7.645  12.217  0.00  0.00    +0.000 C 
ENDROOT
BRANCH   1   5
ATOM      3  C   UNL     1      51.451  10.193  11.578  0.00  0.00    +0.000 A 
ATOM      4  C   UNL     1      50.642   9.074  11.340  0.00  0.00    +0.000 A 
ATOM      5  C   UNL     1      49.402   8.926  11.981  0.00  0.00    +0.000 A 
ATOM      6  C   UNL     1      48.960   9.941  12.841  0.00  0.00    +0.000 A 
ATOM      7  C   UNL     1      49.756  11.062  13.087  0.00  0.00    +0.000 A 
ATOM      8  C   UNL     1      50.996  11.179  12.461  0.00  0.00    +0.000 A 
BRANCH   3  10
ATOM      9  C   UNL     1      52.702  10.652   9.602  0.00  0.00    +0.000 C 
ATOM     10  O   UNL     1      52.676  10.407  11.001  0.00  0.00    +0.000 OA
ENDBRANCH   3  10
BRANCH   8  11
ATOM     11  O   UNL     1      51.780  12.274  12.705  0.00  0.00    +0.000 OA
ATOM     12  H   UNL     1      52.055  12.270  13.635  0.00  0.00    +0.000 HD
ENDBRANCH   8  11
ENDBRANCH   1   5
BRANCH   2  13
ATOM     13  C   UNL     1      46.401   6.485  11.971  0.00  0.00    +0.000 A 
ATOM     14  C   UNL     1      45.942   6.139  10.697  0.00  0.00    +0.000 A 
ATOM     15  C   UNL     1      45.148   5.006  10.524  0.00  0.00    +0.000 A 
ATOM     16  C   UNL     1      44.845   4.236  11.639  0.00  0.00    +0.000 A 
ATOM     17  N   UNL     1      45.282   4.521  12.897  0.00  0.00    +0.000 NA
ATOM     18  C   UNL     1      46.048   5.634  13.022  0.00  0.00    +0.000 A 
BRANCH  16  19
ATOM     19  C   UNL     1      44.001   3.010  11.476  0.00  0.00    +0.000 C 
ATOM     20  N   UNL     1      43.640   2.379  12.634  0.00  0.00    +0.000 N 
ATOM     21  O   UNL     1      43.652   2.590  10.378  0.00  0.00    +0.000 OA
ATOM     22  H   UNL     1      43.949   2.751  13.523  0.00  0.00    +0.000 HD
ATOM     23  H   UNL     1      43.075   1.544  12.592  0.00  0.00    +0.000 HD
ENDBRANCH  16  19
ENDBRANCH   2  13
TORSDOF 5
ENDMDL
