MODEL 1
REMARK VINA RESULT:    -8.054      0.000      0.000
REMARK INTER + INTRA:         -12.507
REMARK INTER:                 -11.349
REMARK INTRA:                  -1.157
REMARK UNBOUND:                -1.157
REMARK  Name = 
REMARK  7 active torsions:
REMARK  status: ('A' for Active; 'I' for Inactive)
REMARK    1  A    between atoms: C_2  and  C_20
REMARK    2  A    between atoms: N_3  and  C_4
REMARK    3  A    between atoms: C_4  and  C_5
REMARK    4  A    between atoms: C_8  and  C_9
REMARK    5  A    between atoms: C_9  and  C_10
REMARK    6  A    between atoms: C_10  and  C_11
REMARK    7  A    between atoms: C_11  and  C_12
REMARK                            x       y       z     vdW  Elec       q    Type
REMARK                         _______ _______ _______ _____ _____    ______ ____
ROOT
ATOM      1  C   UNL     1      47.252   8.176  13.407  0.00  0.00    +0.000 C 
ENDROOT
BRANCH   1   2
ATOM      2  C   UNL     1      46.288   7.283  12.672  0.00  0.00    +0.000 A 
ATOM      3  C   UNL     1      46.607   5.935  12.463  0.00  0.00    +0.000 A 
ATOM      4  C   UNL     1      45.724   5.092  11.788  0.00  0.00    +0.000 A 
ATOM      5  C   UNL     1      44.503   5.578  11.306  0.00  0.00    +0.000 A 
ATOM      6  C   UNL     1      44.195   6.933  11.489  0.00  0.00    +0.000 A 
ATOM      7  C   UNL     1      45.083   7.779  12.161  0.00  0.00    +0.000 A 
BRANCH   5   8
ATOM      8  C   UNL     1      43.543   4.674  10.574  0.00  0.00    +0.000 C 
BRANCH   8   9
ATOM      9  C   UNL     1      44.211   3.571   9.745  0.00  0.00    +0.000 C 
BRANCH   9  10
ATOM     10  C   UNL     1      44.835   4.075   8.440  0.00  0.00    +0.000 C 
BRANCH  10  11
ATOM     11  C   UNL     1      45.753   3.040   7.846  0.00  0.00    +0.000 A 
ATOM     12  C   UNL     1      46.502   3.298   6.694  0.00  0.00    +0.000 A 
ATOM     13  C   UNL     1      47.316   2.302   6.164  0.00  0.00    +0.000 A 
ATOM     14  C   UNL     1      47.350   1.073   6.800  0.00  0.00    +0.000 A 
ATOM     15  N   UNL     1      46.636   0.782   7.907  0.00  0.00    +0.000 NA
ATOM     16  C   UNL     1      45.855   1.768   8.401  0.00  0.00    +0.000 A 
ENDBRANCH  10  11
ENDBRANCH   9  10
ENDBRANCH   8   9
ENDBRANCH   5   8
ENDBRANCH   1   2
BRANCH   1  19
ATOM     17  O   UNL     1      49.777   7.011  13.868  0.00  0.00    +0.000 OA
ATOM     18  C   UNL     1      48.970   7.088  14.791  0.00  0.00    +0.000 C 
ATOM     19  N   UNL     1      47.699   7.575  14.632  0.00  0.00    +0.000 N 
ATOM     20  H   UNL     1      47.161   7.816  15.456  0.00  0.00    +0.000 HD
BRANCH  18  21
ATOM     21  C   UNL     1      49.295   6.594  16.133  0.00  0.00    +0.000 A 
ATOM     22  C   UNL     1      50.151   7.307  16.958  0.00  0.00    +0.000 A 
ATOM     23  S   UNL     1      50.426   6.548  18.464  0.00  0.00    +0.000 S 
ATOM     24  C   UNL     1      49.372   5.268  18.077  0.00  0.00    +0.000 A 
ATOM     25  N   UNL     1      49.136   4.254  18.955  0.00  0.00    +0.000 NA
ATOM     26  C   UNL     1      48.288   3.374  18.542  0.00  0.00    +0.000 A 
ATOM     27  N   UNL     1      47.652   3.411  17.326  0.00  0.00    +0.000 N 
ATOM     28  C   UNL     1      47.910   4.372  16.384  0.00  0.00    +0.000 A 
ATOM     29  O   UNL     1      47.420   4.299  15.263  0.00  0.00    +0.000 OA
ATOM     30  C   UNL     1      48.832   5.406  16.813  0.00  0.00    +0.000 A 
ATOM     31  H   UNL     1      47.018   2.677  17.048  0.00  0.00    +0.000 HD
ENDBRANCH  18  21
ENDBRANCH   1  19
TORSDOF 7
ENDMDL
MODEL 2
REMARK VINA RESULT:    -7.651      2.181      2.708
REMARK INTER + INTRA:         -11.940
REMARK INTER:                 -10.687
REMARK INTRA:                  -1.253
REMARK UNBOUND:                -1.157
REMARK  Name = 
REMARK  7 active torsions:
REMARK  status: ('A' for Active; 'I' for Inactive)
REMARK    1  A    between atoms: C_2  and  C_20
REMARK    2  A    between atoms: N_3  and  C_4
REMARK    3  A    between atoms: C_4  and  C_5
REMARK    4  A    between atoms: C_8  and  C_9
REMARK    5  A    between atoms: C_9  and  C_10
REMARK    6  A    between atoms: C_10  and  C_11
REMARK    7  A    between atoms: C_11  and  C_12
REMARK                            x       y       z     vdW  Elec       q    Type
REMARK                         _______ _______ _______ _____ _____    ______ ____
ROOT
ATOM      1  C   UNL     1      48.318   6.693  13.984  0.00  0.00    +0.000 C 
ENDROOT
BRANCH   1   2
ATOM      2  C   UNL     1      47.187   6.092  13.191  0.00  0.00    +0.000 A 
ATOM      3  C   UNL     1      46.550   4.934  13.653  0.00  0.00    +0.000 A 
ATOM      4  C   UNL     1      45.498   4.366  12.933  0.00  0.00    +0.000 A 
ATOM      5  C   UNL     1      45.061   4.944  11.735  0.00  0.00    +0.000 A 
ATOM      6  C   UNL     1      45.717   6.086  11.257  0.00  0.00    +0.000 A 
ATOM      7  C   UNL     1      46.775   6.651  11.975  0.00  0.00    +0.000 A 
BRANCH   5   8
ATOM      8  C   UNL     1      43.925   4.336  10.951  0.00  0.00    +0.000 C 
BRANCH   8   9
ATOM      9  C   UNL     1      44.292   3.908   9.525  0.00  0.00    +0.000 C 
BRANCH   9  10
ATOM     10  C   UNL     1      44.840   2.481   9.432  0.00  0.00    +0.000 C 
BRANCH  10  11
ATOM     11  C   UNL     1      45.763   2.333   8.252  0.00  0.00    +0.000 A 
ATOM     12  C   UNL     1      45.946   3.367   7.330  0.00  0.00    +0.000 A 
ATOM     13  C   UNL     1      46.789   3.176   6.239  0.00  0.00    +0.000 A 
ATOM     14  C   UNL     1      47.418   1.950   6.101  0.00  0.00    +0.000 A 
ATOM     15  N   UNL     1      47.259   0.925   6.963  0.00  0.00    +0.000 NA
ATOM     16  C   UNL     1      46.437   1.138   8.014  0.00  0.00    +0.000 A 
ENDBRANCH  10  11
ENDBRANCH   9  10
ENDBRANCH   8   9
ENDBRANCH   5   8
ENDBRANCH   1   2
BRANCH   1  19
ATOM     17  O   UNL     1      50.341   6.240  15.894  0.00  0.00    +0.000 OA
ATOM     18  C   UNL     1      49.176   6.359  16.265  0.00  0.00    +0.000 C 
ATOM     19  N   UNL     1      48.128   6.510  15.394  0.00  0.00    +0.000 N 
ATOM     20  H   UNL     1      47.233   6.819  15.756  0.00  0.00    +0.000 HD
BRANCH  18  21
ATOM     21  C   UNL     1      48.813   6.279  17.683  0.00  0.00    +0.000 A 
ATOM     22  C   UNL     1      49.015   5.108  18.398  0.00  0.00    +0.000 A 
ATOM     23  S   UNL     1      48.497   5.210  20.023  0.00  0.00    +0.000 S 
ATOM     24  C   UNL     1      48.032   6.837  19.833  0.00  0.00    +0.000 A 
ATOM     25  N   UNL     1      47.508   7.549  20.869  0.00  0.00    +0.000 NA
ATOM     26  C   UNL     1      47.236   8.778  20.591  0.00  0.00    +0.000 A 
ATOM     27  N   UNL     1      47.438   9.366  19.366  0.00  0.00    +0.000 N 
ATOM     28  C   UNL     1      47.898   8.672  18.278  0.00  0.00    +0.000 A 
ATOM     29  O   UNL     1      47.942   9.198  17.172  0.00  0.00    +0.000 OA
ATOM     30  C   UNL     1      48.250   7.291  18.547  0.00  0.00    +0.000 A 
ATOM     31  H   UNL     1      47.180  10.328  19.202  0.00  0.00    +0.000 HD
ENDBRANCH  18  21
ENDBRANCH   1  19
TORSDOF 7
ENDMDL
MODEL 3
REMARK VINA RESULT:    -7.293      2.297      2.887
REMARK INTER + INTRA:         -11.435
REMARK INTER:                 -10.286
REMARK INTRA:                  -1.149
REMARK UNBOUND:                -1.157
REMARK  Name = 
REMARK  7 active torsions:
REMARK  status: ('A' for Active; 'I' for Inactive)
REMARK    1  A    between atoms: C_2  and  C_20
REMARK    2  A    between atoms: N_3  and  C_4
REMARK    3  A    between atoms: C_4  and  C_5
REMARK    4  A    between atoms: C_8  and  C_9
REMARK    5  A    between atoms: C_9  and  C_10
REMARK    6  A    between atoms: C_10  and  C_11
REMARK    7  A    between atoms: C_11  and  C_12
REMARK                            x       y       z     vdW  Elec       q    Type
REMARK                         _______ _______ _______ _____ _____    ______ ____
ROOT
ATOM      1  C   UNL     1      47.778   4.217  15.214  0.00  0.00    +0.000 C 
ENDROOT
BRANCH   1   2
ATOM      2  C   UNL     1      46.863   4.410  14.034  0.00  0.00    +0.000 A 
ATOM      3  C   UNL     1      46.612   5.700  13.550  0.00  0.00    +0.000 A 
ATOM      4  C   UNL     1      45.770   5.897  12.455  0.00  0.00    +0.000 A 
ATOM      5  C   UNL     1      45.159   4.809  11.821  0.00  0.00    +0.000 A 
ATOM      6  C   UNL     1      45.387   3.520  12.322  0.00  0.00    +0.000 A 
ATOM      7  C   UNL     1      46.226   3.323  13.423  0.00  0.00    +0.000 A 
BRANCH   5   8
ATOM      8  C   UNL     1      44.247   5.013  10.637  0.00  0.00    +0.000 C 
BRANCH   8   9
ATOM      9  C   UNL     1      44.347   3.927   9.560  0.00  0.00    +0.000 C 
BRANCH   9  10
ATOM     10  C   UNL     1      45.273   4.297   8.397  0.00  0.00    +0.000 C 
BRANCH  10  11
ATOM     11  C   UNL     1      46.027   3.091   7.903  0.00  0.00    +0.000 A 
ATOM     12  C   UNL     1      46.952   3.183   6.859  0.00  0.00    +0.000 A 
ATOM     13  C   UNL     1      47.606   2.036   6.416  0.00  0.00    +0.000 A 
ATOM     14  C   UNL     1      47.309   0.831   7.029  0.00  0.00    +0.000 A 
ATOM     15  N   UNL     1      46.417   0.701   8.033  0.00  0.00    +0.000 NA
ATOM     16  C   UNL     1      45.797   1.830   8.443  0.00  0.00    +0.000 A 
ENDBRANCH  10  11
ENDBRANCH   9  10
ENDBRANCH   8   9
ENDBRANCH   5   8
ENDBRANCH   1   2
BRANCH   1  19
ATOM     17  O   UNL     1      49.919   5.805  16.133  0.00  0.00    +0.000 OA
ATOM     18  C   UNL     1      48.773   6.076  16.482  0.00  0.00    +0.000 C 
ATOM     19  N   UNL     1      47.688   5.313  16.136  0.00  0.00    +0.000 N 
ATOM     20  H   UNL     1      46.759   5.697  16.264  0.00  0.00    +0.000 HD
BRANCH  18  21
ATOM     21  C   UNL     1      48.490   7.215  17.361  0.00  0.00    +0.000 A 
ATOM     22  C   UNL     1      48.555   8.512  16.876  0.00  0.00    +0.000 A 
ATOM     23  S   UNL     1      48.225   9.695  18.064  0.00  0.00    +0.000 S 
ATOM     24  C   UNL     1      47.939   8.507  19.250  0.00  0.00    +0.000 A 
ATOM     25  N   UNL     1      47.591   8.846  20.522  0.00  0.00    +0.000 NA
ATOM     26  C   UNL     1      47.370   7.844  21.302  0.00  0.00    +0.000 A 
ATOM     27  N   UNL     1      47.468   6.526  20.930  0.00  0.00    +0.000 N 
ATOM     28  C   UNL     1      47.881   6.138  19.682  0.00  0.00    +0.000 A 
ATOM     29  O   UNL     1      48.080   4.956  19.427  0.00  0.00    +0.000 OA
ATOM     30  C   UNL     1      48.110   7.230  18.755  0.00  0.00    +0.000 A 
ATOM     31  H   UNL     1      47.308   5.784  21.594  0.00  0.00    +0.000 HD
ENDBRANCH  18  21
ENDBRANCH   1  19
TORSDOF 7
ENDMDL
MODEL 4
REMARK VINA RESULT:    -7.288      3.317      8.014
REMARK INTER + INTRA:         -11.428
REMARK INTER:                  -9.677
REMARK INTRA:                  -1.751
REMARK UNBOUND:                -1.157
REMARK  Name = 
REMARK  7 active torsions:
REMARK  status: ('A' for Active; 'I' for Inactive)
REMARK    1  A    between atoms: C_2  and  C_20
REMARK    2  A    between atoms: N_3  and  C_4
REMARK    3  A    between atoms: C_4  and  C_5
REMARK    4  A    between atoms: C_8  and  C_9
REMARK    5  A    between atoms: C_9  and  C_10
REMARK    6  A    between atoms: C_10  and  C_11
REMARK    7  A    between atoms: C_11  and  C_12
REMARK                            x       y       z     vdW  Elec       q    Type
REMARK                         _______ _______ _______ _____ _____    ______ ____
ROOT
ATOM      1  C   UNL     1      48.075   8.186  12.212  0.00  0.00    +0.000 C 
ENDROOT
BRANCH   1   2
ATOM      2  C   UNL     1      48.349   8.041  13.686  0.00  0.00    +0.000 A 
ATOM      3  C   UNL     1      48.147   9.131  14.543  0.00  0.00    +0.000 A 
ATOM      4  C   UNL     1      48.392   9.013  15.911  0.00  0.00    +0.000 A 
ATOM      5  C   UNL     1      48.847   7.804  16.452  0.00  0.00    +0.000 A 
ATOM      6  C   UNL     1      49.077   6.723  15.592  0.00  0.00    +0.000 A 
ATOM      7  C   UNL     1      48.837   6.842  14.220  0.00  0.00    +0.000 A 
BRANCH   5   8
ATOM      8  C   UNL     1      49.115   7.669  17.930  0.00  0.00    +0.000 C 
BRANCH   8   9
ATOM      9  C   UNL     1      47.910   7.208  18.758  0.00  0.00    +0.000 C 
BRANCH   9  10
ATOM     10  C   UNL     1      48.126   5.867  19.466  0.00  0.00    +0.000 C 
BRANCH  10  11
ATOM     11  C   UNL     1      48.120   4.730  18.479  0.00  0.00    +0.000 A 
ATOM     12  C   UNL     1      49.252   3.939  18.266  0.00  0.00    +0.000 A 
ATOM     13  C   UNL     1      49.210   2.915  17.324  0.00  0.00    +0.000 A 
ATOM     14  C   UNL     1      48.035   2.719  16.619  0.00  0.00    +0.000 A 
ATOM     15  N   UNL     1      46.924   3.466  16.789  0.00  0.00    +0.000 NA
ATOM     16  C   UNL     1      46.993   4.452  17.711  0.00  0.00    +0.000 A 
ENDBRANCH  10  11
ENDBRANCH   9  10
ENDBRANCH   8   9
ENDBRANCH   5   8
ENDBRANCH   1   2
BRANCH   1  19
ATOM     17  O   UNL     1      45.308   7.934  11.736  0.00  0.00    +0.000 OA
ATOM     18  C   UNL     1      46.061   7.015  11.423  0.00  0.00    +0.000 C 
ATOM     19  N   UNL     1      47.406   7.031  11.684  0.00  0.00    +0.000 N 
ATOM     20  H   UNL     1      48.003   6.359  11.217  0.00  0.00    +0.000 HD
BRANCH  18  21
ATOM     21  C   UNL     1      45.553   5.790  10.797  0.00  0.00    +0.000 A 
ATOM     22  C   UNL     1      45.824   5.515   9.465  0.00  0.00    +0.000 A 
ATOM     23  S   UNL     1      45.116   4.059   8.918  0.00  0.00    +0.000 S 
ATOM     24  C   UNL     1      44.466   3.729  10.457  0.00  0.00    +0.000 A 
ATOM     25  N   UNL     1      43.739   2.603  10.692  0.00  0.00    +0.000 NA
ATOM     26  C   UNL     1      43.341   2.466  11.911  0.00  0.00    +0.000 A 
ATOM     27  N   UNL     1      43.601   3.356  12.923  0.00  0.00    +0.000 N 
ATOM     28  C   UNL     1      44.269   4.536  12.719  0.00  0.00    +0.000 A 
ATOM     29  O   UNL     1      44.370   5.363  13.617  0.00  0.00    +0.000 OA
ATOM     30  C   UNL     1      44.767   4.721  11.370  0.00  0.00    +0.000 A 
ATOM     31  H   UNL     1      43.240   3.208  13.853  0.00  0.00    +0.000 HD
ENDBRANCH  18  21
ENDBRANCH   1  19
TORSDOF 7
ENDMDL
MODEL 5
REMARK VINA RESULT:    -7.236      2.915      8.254
REMARK INTER + INTRA:         -11.354
REMARK INTER:                  -9.669
REMARK INTRA:                  -1.686
REMARK UNBOUND:                -1.157
REMARK  Name = 
REMARK  7 active torsions:
REMARK  status: ('A' for Active; 'I' for Inactive)
REMARK    1  A    between atoms: C_2  and  C_20
REMARK    2  A    between atoms: N_3  and  C_4
REMARK    3  A    between atoms: C_4  and  C_5
REMARK    4  A    between atoms: C_8  and  C_9
REMARK    5  A    between atoms: C_9  and  C_10
REMARK    6  A    between atoms: C_10  and  C_11
REMARK    7  A    between atoms: C_11  and  C_12
REMARK                            x       y       z     vdW  Elec       q    Type
REMARK                         _______ _______ _______ _____ _____    ______ ____
ROOT
ATOM      1  C   UNL     1      47.770   7.736  11.793  0.00  0.00    +0.000 C 
ENDROOT
BRANCH   1   2
ATOM      2  C   UNL     1      48.299   7.957  13.186  0.00  0.00    +0.000 A 
ATOM      3  C   UNL     1      49.467   7.305  13.599  0.00  0.00    +0.000 A 
ATOM      4  C   UNL     1      49.973   7.501  14.885  0.00  0.00    +0.000 A 
ATOM      5  C   UNL     1      49.321   8.352  15.785  0.00  0.00    +0.000 A 
ATOM      6  C   UNL     1      48.136   8.981  15.382  0.00  0.00    +0.000 A 
ATOM      7  C   UNL     1      47.626   8.781  14.096  0.00  0.00    +0.000 A 
BRANCH   5   8
ATOM      8  C   UNL     1      49.861   8.569  17.177  0.00  0.00    +0.000 C 
BRANCH   8   9
ATOM      9  C   UNL     1      49.771   7.343  18.094  0.00  0.00    +0.000 C 
BRANCH   9  10
ATOM     10  C   UNL     1      48.369   6.731  18.168  0.00  0.00    +0.000 C 
BRANCH  10  11
ATOM     11  C   UNL     1      48.383   5.293  17.721  0.00  0.00    +0.000 A 
ATOM     12  C   UNL     1      47.222   4.515  17.718  0.00  0.00    +0.000 A 
ATOM     13  C   UNL     1      47.288   3.182  17.323  0.00  0.00    +0.000 A 
ATOM     14  C   UNL     1      48.518   2.667  16.950  0.00  0.00    +0.000 A 
ATOM     15  N   UNL     1      49.661   3.383  16.949  0.00  0.00    +0.000 NA
ATOM     16  C   UNL     1      49.568   4.674  17.335  0.00  0.00    +0.000 A 
ENDBRANCH  10  11
ENDBRANCH   9  10
ENDBRANCH   8   9
ENDBRANCH   5   8
ENDBRANCH   1   2
BRANCH   1  19
ATOM     17  O   UNL     1      44.958   7.556  11.862  0.00  0.00    +0.000 OA
ATOM     18  C   UNL     1      45.623   6.539  11.685  0.00  0.00    +0.000 C 
ATOM     19  N   UNL     1      46.994   6.532  11.708  0.00  0.00    +0.000 N 
ATOM     20  H   UNL     1      47.485   5.723  11.344  0.00  0.00    +0.000 HD
BRANCH  18  21
ATOM     21  C   UNL     1      44.987   5.231  11.499  0.00  0.00    +0.000 A 
ATOM     22  C   UNL     1      44.260   4.649  12.526  0.00  0.00    +0.000 A 
ATOM     23  S   UNL     1      43.627   3.114  12.121  0.00  0.00    +0.000 S 
ATOM     24  C   UNL     1      44.267   3.203  10.545  0.00  0.00    +0.000 A 
ATOM     25  N   UNL     1      44.077   2.198   9.647  0.00  0.00    +0.000 NA
ATOM     26  C   UNL     1      44.585   2.417   8.482  0.00  0.00    +0.000 A 
ATOM     27  N   UNL     1      45.272   3.552   8.129  0.00  0.00    +0.000 N 
ATOM     28  C   UNL     1      45.546   4.559   9.019  0.00  0.00    +0.000 A 
ATOM     29  O   UNL     1      46.270   5.495   8.702  0.00  0.00    +0.000 OA
ATOM     30  C   UNL     1      44.966   4.375  10.335  0.00  0.00    +0.000 A 
ATOM     31  H   UNL     1      45.670   3.655   7.208  0.00  0.00    +0.000 HD
ENDBRANCH  18  21
ENDBRANCH   1  19
TORSDOF 7
ENDMDL
MODEL 6
REMARK VINA RESULT:    -7.045      1.762      3.275
REMARK INTER + INTRA:         -11.085
REMARK INTER:                  -9.900
REMARK INTRA:                  -1.185
REMARK UNBOUND:                -1.157
REMARK  Name = 
REMARK  7 active torsions:
REMARK  status: ('A' for Active; 'I' for Inactive)
REMARK    1  A    between atoms: C_2  and  C_20
REMARK    2  A    between atoms: N_3  and  C_4
REMARK    3  A    between atoms: C_4  and  C_5
REMARK    4  A    between atoms: C_8  and  C_9
REMARK    5  A    between atoms: C_9  and  C_10
REMARK    6  A    between atoms: C_10  and  C_11
REMARK    7  A    between atoms: C_11  and  C_12
REMARK                            x       y       z     vdW  Elec       q    Type
REMARK                         _______ _______ _______ _____ _____    ______ ____
ROOT
ATOM      1  C   UNL     1      47.280   4.106  15.440  0.00  0.00    +0.000 C 
ENDROOT
BRANCH   1   2
ATOM      2  C   UNL     1      46.699   4.481  14.102  0.00  0.00    +0.000 A 
ATOM      3  C   UNL     1      46.912   5.764  13.584  0.00  0.00    +0.000 A 
ATOM      4  C   UNL     1      46.386   6.127  12.344  0.00  0.00    +0.000 A 
ATOM      5  C   UNL     1      45.633   5.214  11.595  0.00  0.00    +0.000 A 
ATOM      6  C   UNL     1      45.395   3.939  12.125  0.00  0.00    +0.000 A 
ATOM      7  C   UNL     1      45.918   3.578  13.370  0.00  0.00    +0.000 A 
BRANCH   5   8
ATOM      8  C   UNL     1      45.060   5.598  10.254  0.00  0.00    +0.000 C 
BRANCH   8   9
ATOM      9  C   UNL     1      45.804   5.009   9.050  0.00  0.00    +0.000 C 
BRANCH   9  10
ATOM     10  C   UNL     1      45.015   3.927   8.307  0.00  0.00    +0.000 C 
BRANCH  10  11
ATOM     11  C   UNL     1      45.940   2.986   7.583  0.00  0.00    +0.000 A 
ATOM     12  C   UNL     1      46.512   3.322   6.352  0.00  0.00    +0.000 A 
ATOM     13  C   UNL     1      47.340   2.409   5.705  0.00  0.00    +0.000 A 
ATOM     14  C   UNL     1      47.564   1.183   6.308  0.00  0.00    +0.000 A 
ATOM     15  N   UNL     1      47.023   0.818   7.489  0.00  0.00    +0.000 NA
ATOM     16  C   UNL     1      46.225   1.724   8.095  0.00  0.00    +0.000 A 
ENDBRANCH  10  11
ENDBRANCH   9  10
ENDBRANCH   8   9
ENDBRANCH   5   8
ENDBRANCH   1   2
BRANCH   1  19
ATOM     17  O   UNL     1      49.098   4.105  17.594  0.00  0.00    +0.000 OA
ATOM     18  C   UNL     1      48.693   5.175  17.147  0.00  0.00    +0.000 C 
ATOM     19  N   UNL     1      47.757   5.259  16.149  0.00  0.00    +0.000 N 
ATOM     20  H   UNL     1      47.625   6.146  15.676  0.00  0.00    +0.000 HD
BRANCH  18  21
ATOM     21  C   UNL     1      49.142   6.456  17.703  0.00  0.00    +0.000 A 
ATOM     22  C   UNL     1      48.983   6.732  19.052  0.00  0.00    +0.000 A 
ATOM     23  S   UNL     1      49.539   8.286  19.494  0.00  0.00    +0.000 S 
ATOM     24  C   UNL     1      50.052   8.618  17.904  0.00  0.00    +0.000 A 
ATOM     25  N   UNL     1      50.642   9.801  17.582  0.00  0.00    +0.000 NA
ATOM     26  C   UNL     1      51.012   9.899  16.351  0.00  0.00    +0.000 A 
ATOM     27  N   UNL     1      50.844   8.920  15.404  0.00  0.00    +0.000 N 
ATOM     28  C   UNL     1      50.194   7.741  15.664  0.00  0.00    +0.000 A 
ATOM     29  O   UNL     1      49.949   6.948  14.763  0.00  0.00    +0.000 OA
ATOM     30  C   UNL     1      49.787   7.568  17.045  0.00  0.00    +0.000 A 
ATOM     31  H   UNL     1      51.131   9.065  14.447  0.00  0.00    +0.000 HD
ENDBRANCH  18  21
ENDBRANCH   1  19
TORSDOF 7
ENDMDL
MODEL 7
REMARK VINA RESULT:    -7.039      2.488      3.292
REMARK INTER + INTRA:         -11.077
REMARK INTER:                  -9.948
REMARK INTRA:                  -1.129
REMARK UNBOUND:                -1.157
REMARK  Name = 
REMARK  7 active torsions:
REMARK  status: ('A' for Active; 'I' for Inactive)
REMARK    1  A    between atoms: C_2  and  C_20
REMARK    2  A    between atoms: N_3  and  C_4
REMARK    3  A    between atoms: C_4  and  C_5
REMARK    4  A    between atoms: C_8  and  C_9
REMARK    5  A    between atoms: C_9  and  C_10
REMARK    6  A    between atoms: C_10  and  C_11
REMARK    7  A    between atoms: C_11  and  C_12
REMARK                            x       y       z     vdW  Elec       q    Type
REMARK                         _______ _______ _______ _____ _____    ______ ____
ROOT
ATOM      1  C   UNL     1      47.856   5.238  14.890  0.00  0.00    +0.000 C 
ENDROOT
BRANCH   1   2
ATOM      2  C   UNL     1      46.846   5.125  13.779  0.00  0.00    +0.000 A 
ATOM      3  C   UNL     1      46.363   3.866  13.402  0.00  0.00    +0.000 A 
ATOM      4  C   UNL     1      45.423   3.743  12.378  0.00  0.00    +0.000 A 
ATOM      5  C   UNL     1      44.947   4.876  11.707  0.00  0.00    +0.000 A 
ATOM      6  C   UNL     1      45.452   6.134  12.064  0.00  0.00    +0.000 A 
ATOM      7  C   UNL     1      46.397   6.256  13.087  0.00  0.00    +0.000 A 
BRANCH   5   8
ATOM      8  C   UNL     1      43.933   4.752  10.598  0.00  0.00    +0.000 C 
BRANCH   8   9
ATOM      9  C   UNL     1      44.249   3.668   9.562  0.00  0.00    +0.000 C 
BRANCH   9  10
ATOM     10  C   UNL     1      45.116   4.160   8.400  0.00  0.00    +0.000 C 
BRANCH  10  11
ATOM     11  C   UNL     1      45.974   3.049   7.858  0.00  0.00    +0.000 A 
ATOM     12  C   UNL     1      46.827   3.246   6.768  0.00  0.00    +0.000 A 
ATOM     13  C   UNL     1      47.582   2.182   6.282  0.00  0.00    +0.000 A 
ATOM     14  C   UNL     1      47.454   0.949   6.900  0.00  0.00    +0.000 A 
ATOM     15  N   UNL     1      46.636   0.717   7.947  0.00  0.00    +0.000 NA
ATOM     16  C   UNL     1      45.916   1.768   8.399  0.00  0.00    +0.000 A 
ENDBRANCH  10  11
ENDBRANCH   9  10
ENDBRANCH   8   9
ENDBRANCH   5   8
ENDBRANCH   1   2
BRANCH   1  19
ATOM     17  O   UNL     1      50.138   6.890  14.783  0.00  0.00    +0.000 OA
ATOM     18  C   UNL     1      49.086   7.341  15.229  0.00  0.00    +0.000 C 
ATOM     19  N   UNL     1      47.954   6.584  15.379  0.00  0.00    +0.000 N 
ATOM     20  H   UNL     1      47.070   7.052  15.542  0.00  0.00    +0.000 HD
BRANCH  18  21
ATOM     21  C   UNL     1      48.987   8.726  15.700  0.00  0.00    +0.000 A 
ATOM     22  C   UNL     1      49.367   9.778  14.880  0.00  0.00    +0.000 A 
ATOM     23  S   UNL     1      49.207  11.308  15.624  0.00  0.00    +0.000 S 
ATOM     24  C   UNL     1      48.581  10.613  17.048  0.00  0.00    +0.000 A 
ATOM     25  N   UNL     1      48.216  11.383  18.110  0.00  0.00    +0.000 NA
ATOM     26  C   UNL     1      47.724  10.726  19.104  0.00  0.00    +0.000 A 
ATOM     27  N   UNL     1      47.566   9.362  19.139  0.00  0.00    +0.000 N 
ATOM     28  C   UNL     1      47.982   8.542  18.123  0.00  0.00    +0.000 A 
ATOM     29  O   UNL     1      47.942   7.323  18.245  0.00  0.00    +0.000 OA
ATOM     30  C   UNL     1      48.512   9.236  16.965  0.00  0.00    +0.000 A 
ATOM     31  H   UNL     1      47.199   8.901  19.958  0.00  0.00    +0.000 HD
ENDBRANCH  18  21
ENDBRANCH   1  19
TORSDOF 7
ENDMDL
MODEL 8
REMARK VINA RESULT:    -7.034      2.540      4.502
REMARK INTER + INTRA:         -11.070
REMARK INTER:                  -9.807
REMARK INTRA:                  -1.263
REMARK UNBOUND:                -1.157
REMARK  Name = 
REMARK  7 active torsions:
REMARK  status: ('A' for Active; 'I' for Inactive)
REMARK    1  A    between atoms: C_2  and  C_20
REMARK    2  A    between atoms: N_3  and  C_4
REMARK    3  A    between atoms: C_4  and  C_5
REMARK    4  A    between atoms: C_8  and  C_9
REMARK    5  A    between atoms: C_9  and  C_10
REMARK    6  A    between atoms: C_10  and  C_11
REMARK    7  A    between atoms: C_11  and  C_12
REMARK                            x       y       z     vdW  Elec       q    Type
REMARK                         _______ _______ _______ _____ _____    ______ ____
ROOT
ATOM      1  C   UNL     1      47.811   5.808  14.497  0.00  0.00    +0.000 C 
ENDROOT
BRANCH   1   2
ATOM      2  C   UNL     1      46.768   5.358  13.508  0.00  0.00    +0.000 A 
ATOM      3  C   UNL     1      46.404   4.007  13.446  0.00  0.00    +0.000 A 
ATOM      4  C   UNL     1      45.437   3.573  12.538  0.00  0.00    +0.000 A 
ATOM      5  C   UNL     1      44.815   4.480  11.672  0.00  0.00    +0.000 A 
ATOM      6  C   UNL     1      45.200   5.827  11.713  0.00  0.00    +0.000 A 
ATOM      7  C   UNL     1      46.172   6.261  12.619  0.00  0.00    +0.000 A 
BRANCH   5   8
ATOM      8  C   UNL     1      43.769   4.020  10.687  0.00  0.00    +0.000 C 
BRANCH   8   9
ATOM      9  C   UNL     1      44.286   3.058   9.611  0.00  0.00    +0.000 C 
BRANCH   9  10
ATOM     10  C   UNL     1      44.808   3.763   8.355  0.00  0.00    +0.000 C 
BRANCH  10  11
ATOM     11  C   UNL     1      45.841   2.922   7.653  0.00  0.00    +0.000 A 
ATOM     12  C   UNL     1      46.483   3.365   6.494  0.00  0.00    +0.000 A 
ATOM     13  C   UNL     1      47.411   2.541   5.863  0.00  0.00    +0.000 A 
ATOM     14  C   UNL     1      47.663   1.295   6.410  0.00  0.00    +0.000 A 
ATOM     15  N   UNL     1      47.058   0.828   7.522  0.00  0.00    +0.000 NA
ATOM     16  C   UNL     1      46.162   1.648   8.114  0.00  0.00    +0.000 A 
ENDBRANCH  10  11
ENDBRANCH   9  10
ENDBRANCH   8   9
ENDBRANCH   5   8
ENDBRANCH   1   2
BRANCH   1  19
ATOM     17  O   UNL     1      50.179   7.197  15.137  0.00  0.00    +0.000 OA
ATOM     18  C   UNL     1      49.207   7.821  14.721  0.00  0.00    +0.000 C 
ATOM     19  N   UNL     1      47.999   7.230  14.455  0.00  0.00    +0.000 N 
ATOM     20  H   UNL     1      47.312   7.744  13.915  0.00  0.00    +0.000 HD
BRANCH  18  21
ATOM     21  C   UNL     1      49.252   9.276  14.540  0.00  0.00    +0.000 A 
ATOM     22  C   UNL     1      49.495  10.113  15.619  0.00  0.00    +0.000 A 
ATOM     23  S   UNL     1      49.476  11.771  15.206  0.00  0.00    +0.000 S 
ATOM     24  C   UNL     1      49.189  11.418  13.565  0.00  0.00    +0.000 A 
ATOM     25  N   UNL     1      49.074  12.408  12.637  0.00  0.00    +0.000 NA
ATOM     26  C   UNL     1      48.896  11.993  11.430  0.00  0.00    +0.000 A 
ATOM     27  N   UNL     1      48.817  10.673  11.060  0.00  0.00    +0.000 N 
ATOM     28  C   UNL     1      48.857   9.645  11.966  0.00  0.00    +0.000 A 
ATOM     29  O   UNL     1      48.655   8.490  11.614  0.00  0.00    +0.000 OA
ATOM     30  C   UNL     1      49.091  10.059  13.337  0.00  0.00    +0.000 A 
ATOM     31  H   UNL     1      48.649  10.410  10.100  0.00  0.00    +0.000 HD
ENDBRANCH  18  21
ENDBRANCH   1  19
TORSDOF 7
ENDMDL
MODEL 9
REMARK VINA RESULT:    -6.930      3.549      8.173
REMARK INTER + INTRA:         -10.923
REMARK INTER:                  -8.955
REMARK INTRA:                  -1.968
REMARK UNBOUND:                -1.157
REMARK  Name = 
REMARK  7 active torsions:
REMARK  status: ('A' for Active; 'I' for Inactive)
REMARK    1  A    between atoms: C_2  and  C_20
REMARK    2  A    between atoms: N_3  and  C_4
REMARK    3  A    between atoms: C_4  and  C_5
REMARK    4  A    between atoms: C_8  and  C_9
REMARK    5  A    between atoms: C_9  and  C_10
REMARK    6  A    between atoms: C_10  and  C_11
REMARK    7  A    between atoms: C_11  and  C_12
REMARK                            x       y       z     vdW  Elec       q    Type
REMARK                         _______ _______ _______ _____ _____    ______ ____
ROOT
ATOM      1  C   UNL     1      48.442   8.456  14.713  0.00  0.00    +0.000 C 
ENDROOT
BRANCH   1   2
ATOM      2  C   UNL     1      48.953   7.974  16.045  0.00  0.00    +0.000 A 
ATOM      3  C   UNL     1      50.007   7.053  16.095  0.00  0.00    +0.000 A 
ATOM      4  C   UNL     1      50.497   6.599  17.321  0.00  0.00    +0.000 A 
ATOM      5  C   UNL     1      49.942   7.056  18.522  0.00  0.00    +0.000 A 
ATOM      6  C   UNL     1      48.869   7.955  18.472  0.00  0.00    +0.000 A 
ATOM      7  C   UNL     1      48.375   8.405  17.245  0.00  0.00    +0.000 A 
BRANCH   5   8
ATOM      8  C   UNL     1      50.464   6.570  19.851  0.00  0.00    +0.000 C 
BRANCH   8   9
ATOM      9  C   UNL     1      50.292   5.066  20.093  0.00  0.00    +0.000 C 
BRANCH   9  10
ATOM     10  C   UNL     1      48.832   4.604  20.080  0.00  0.00    +0.000 C 
BRANCH  10  11
ATOM     11  C   UNL     1      48.466   4.008  18.747  0.00  0.00    +0.000 A 
ATOM     12  C   UNL     1      49.312   3.112  18.088  0.00  0.00    +0.000 A 
ATOM     13  C   UNL     1      48.946   2.607  16.843  0.00  0.00    +0.000 A 
ATOM     14  C   UNL     1      47.744   3.021  16.294  0.00  0.00    +0.000 A 
ATOM     15  N   UNL     1      46.905   3.890  16.894  0.00  0.00    +0.000 NA
ATOM     16  C   UNL     1      47.286   4.364  18.101  0.00  0.00    +0.000 A 
ENDBRANCH  10  11
ENDBRANCH   9  10
ENDBRANCH   8   9
ENDBRANCH   5   8
ENDBRANCH   1   2
BRANCH   1  19
ATOM     17  O   UNL     1      48.883   6.394  12.842  0.00  0.00    +0.000 OA
ATOM     18  C   UNL     1      47.761   6.548  13.317  0.00  0.00    +0.000 C 
ATOM     19  N   UNL     1      47.449   7.568  14.177  0.00  0.00    +0.000 N 
ATOM     20  H   UNL     1      46.583   7.518  14.701  0.00  0.00    +0.000 HD
BRANCH  18  21
ATOM     21  C   UNL     1      46.645   5.675  12.939  0.00  0.00    +0.000 A 
ATOM     22  C   UNL     1      46.696   4.314  13.199  0.00  0.00    +0.000 A 
ATOM     23  S   UNL     1      45.314   3.469  12.653  0.00  0.00    +0.000 S 
ATOM     24  C   UNL     1      44.586   4.905  12.096  0.00  0.00    +0.000 A 
ATOM     25  N   UNL     1      43.354   4.895  11.517  0.00  0.00    +0.000 NA
ATOM     26  C   UNL     1      42.912   6.058  11.178  0.00  0.00    +0.000 A 
ATOM     27  N   UNL     1      43.591   7.237  11.362  0.00  0.00    +0.000 N 
ATOM     28  C   UNL     1      44.861   7.289  11.877  0.00  0.00    +0.000 A 
ATOM     29  O   UNL     1      45.483   8.344  11.907  0.00  0.00    +0.000 OA
ATOM     30  C   UNL     1      45.390   6.008  12.306  0.00  0.00    +0.000 A 
ATOM     31  H   UNL     1      43.204   8.115  11.051  0.00  0.00    +0.000 HD
ENDBRANCH  18  21
ENDBRANCH   1  19
TORSDOF 7
ENDMDL
