MODEL 1
REMARK VINA RESULT:    -8.418      0.000      0.000
REMARK INTER + INTRA:         -12.236
REMARK INTER:                 -11.371
REMARK INTRA:                  -0.865
REMARK UNBOUND:                -0.865
REMARK  Name = 
REMARK  8 active torsions:
REMARK  status: ('A' for Active; 'I' for Inactive)
REMARK    1  A    between atoms: C_1  and  C_2
REMARK    2  A    between atoms: C_4  and  C_5
REMARK    3  A    between atoms: C_5  and  C_6
REMARK    4  A    between atoms: C_6  and  C_7
REMARK    5  A    between atoms: C_10  and  C_11
REMARK    6  A    between atoms: C_14  and  C_15
REMARK    7  A    between atoms: C_18  and  N_19
REMARK    8  A    between atoms: N_19  and  C_20
REMARK                            x       y       z     vdW  Elec       q    Type
REMARK                         _______ _______ _______ _____ _____    ______ ____
ROOT
ATOM      1  C   UNL     1      47.992   7.804  11.949  0.00  0.00    +0.000 C 
ATOM      2  C   UNL     1      47.164   6.594  12.270  0.00  0.00    +0.000 A 
ATOM      3  C   UNL     1      46.210   6.117  11.361  0.00  0.00    +0.000 A 
ATOM      4  C   UNL     1      45.350   5.069  11.711  0.00  0.00    +0.000 A 
ATOM      5  C   UNL     1      45.483   4.501  12.995  0.00  0.00    +0.000 A 
ATOM      6  C   UNL     1      46.465   4.924  13.893  0.00  0.00    +0.000 A 
ATOM      7  C   UNL     1      47.287   5.993  13.527  0.00  0.00    +0.000 A 
ENDROOT
BRANCH   6   8
ATOM      8  N   UNL     1      46.498   4.344  15.186  0.00  0.00    +0.000 N 
ATOM      9  H   UNL     1      45.666   4.652  15.691  0.00  0.00    +0.000 HD
BRANCH   8  10
ATOM     10  C   UNL     1      47.656   4.334  16.047  0.00  0.00    +0.000 C 
ATOM     11  C   UNL     1      47.871   2.973  16.740  0.00  0.00    +0.000 C 
ATOM     12  N   UNL     1      48.041   3.666  18.031  0.00  0.00    +0.000 NA
ATOM     13  C   UNL     1      47.438   4.886  17.464  0.00  0.00    +0.000 C 
ATOM     14  H   UNL     1      49.018   3.782  18.299  0.00  0.00    +0.000 HD
ENDBRANCH   8  10
ENDBRANCH   6   8
BRANCH   4  15
ATOM     15  C   UNL     1      44.167   4.660  10.859  0.00  0.00    +0.000 C 
BRANCH  15  16
ATOM     16  C   UNL     1      44.110   3.230  10.293  0.00  0.00    +0.000 C 
BRANCH  16  17
ATOM     17  C   UNL     1      44.893   2.896   9.042  0.00  0.00    +0.000 A 
ATOM     18  C   UNL     1      45.258   3.853   8.094  0.00  0.00    +0.000 A 
ATOM     19  C   UNL     1      46.198   3.546   7.106  0.00  0.00    +0.000 A 
ATOM     20  C   UNL     1      46.775   2.274   7.028  0.00  0.00    +0.000 A 
ATOM     21  C   UNL     1      46.318   1.253   7.872  0.00  0.00    +0.000 A 
ATOM     22  C   UNL     1      46.677  -0.200   7.728  0.00  0.00    +0.000 C 
ATOM     23  C   UNL     1      45.407   1.592   8.894  0.00  0.00    +0.000 A 
BRANCH  20  24
ATOM     24  C   UNL     1      47.908   2.143   6.063  0.00  0.00    +0.000 C 
ATOM     25  N   UNL     1      49.040   2.872   6.325  0.00  0.00    +0.000 N 
ATOM     26  O   UNL     1      47.802   1.511   5.023  0.00  0.00    +0.000 OA
ATOM     27  H   UNL     1      49.078   3.568   7.057  0.00  0.00    +0.000 HD
ATOM     28  H   UNL     1      49.736   2.904   5.588  0.00  0.00    +0.000 HD
ENDBRANCH  20  24
ENDBRANCH  16  17
ENDBRANCH  15  16
ENDBRANCH   4  15
TORSDOF 6
ENDMDL
MODEL 2
REMARK VINA RESULT:    -7.620      2.016      3.300
REMARK INTER + INTRA:         -11.158
REMARK INTER:                 -10.149
REMARK INTRA:                  -1.009
REMARK UNBOUND:                -0.865
REMARK  Name = 
REMARK  8 active torsions:
REMARK  status: ('A' for Active; 'I' for Inactive)
REMARK    1  A    between atoms: C_1  and  C_2
REMARK    2  A    between atoms: C_4  and  C_5
REMARK    3  A    between atoms: C_5  and  C_6
REMARK    4  A    between atoms: C_6  and  C_7
REMARK    5  A    between atoms: C_10  and  C_11
REMARK    6  A    between atoms: C_14  and  C_15
REMARK    7  A    between atoms: C_18  and  N_19
REMARK    8  A    between atoms: N_19  and  C_20
REMARK                            x       y       z     vdW  Elec       q    Type
REMARK                         _______ _______ _______ _____ _____    ______ ____
ROOT
ATOM      1  C   UNL     1      47.298   3.779  14.933  0.00  0.00    +0.000 C 
ATOM      2  C   UNL     1      46.793   4.617  13.794  0.00  0.00    +0.000 A 
ATOM      3  C   UNL     1      45.589   4.299  13.150  0.00  0.00    +0.000 A 
ATOM      4  C   UNL     1      45.182   5.001  12.009  0.00  0.00    +0.000 A 
ATOM      5  C   UNL     1      46.010   6.041  11.537  0.00  0.00    +0.000 A 
ATOM      6  C   UNL     1      47.183   6.409  12.197  0.00  0.00    +0.000 A 
ATOM      7  C   UNL     1      47.579   5.670  13.315  0.00  0.00    +0.000 A 
ENDROOT
BRANCH   6   8
ATOM      8  N   UNL     1      47.992   7.425  11.629  0.00  0.00    +0.000 N 
ATOM      9  H   UNL     1      48.957   7.092  11.619  0.00  0.00    +0.000 HD
BRANCH   8  10
ATOM     10  C   UNL     1      47.926   8.820  11.993  0.00  0.00    +0.000 C 
ATOM     11  C   UNL     1      48.940   9.198  13.092  0.00  0.00    +0.000 C 
ATOM     12  N   UNL     1      47.868   9.886  13.834  0.00  0.00    +0.000 NA
ATOM     13  C   UNL     1      46.850   9.189  13.026  0.00  0.00    +0.000 C 
ATOM     14  H   UNL     1      47.871  10.897  13.700  0.00  0.00    +0.000 HD
ENDBRANCH   8  10
ENDBRANCH   6   8
BRANCH   4  15
ATOM     15  C   UNL     1      44.012   4.565  11.153  0.00  0.00    +0.000 C 
BRANCH  15  16
ATOM     16  C   UNL     1      44.025   3.160  10.525  0.00  0.00    +0.000 C 
BRANCH  16  17
ATOM     17  C   UNL     1      44.754   2.938   9.217  0.00  0.00    +0.000 A 
ATOM     18  C   UNL     1      44.983   3.958   8.292  0.00  0.00    +0.000 A 
ATOM     19  C   UNL     1      45.881   3.766   7.238  0.00  0.00    +0.000 A 
ATOM     20  C   UNL     1      46.551   2.549   7.072  0.00  0.00    +0.000 A 
ATOM     21  C   UNL     1      46.229   1.463   7.896  0.00  0.00    +0.000 A 
ATOM     22  C   UNL     1      46.692   0.051   7.670  0.00  0.00    +0.000 C 
ATOM     23  C   UNL     1      45.358   1.687   8.984  0.00  0.00    +0.000 A 
BRANCH  20  24
ATOM     24  C   UNL     1      47.629   2.548   6.037  0.00  0.00    +0.000 C 
ATOM     25  N   UNL     1      48.926   2.570   6.486  0.00  0.00    +0.000 N 
ATOM     26  O   UNL     1      47.381   2.642   4.845  0.00  0.00    +0.000 OA
ATOM     27  H   UNL     1      49.159   2.712   7.458  0.00  0.00    +0.000 HD
ATOM     28  H   UNL     1      49.641   2.732   5.786  0.00  0.00    +0.000 HD
ENDBRANCH  20  24
ENDBRANCH  16  17
ENDBRANCH  15  16
ENDBRANCH   4  15
TORSDOF 6
ENDMDL
MODEL 3
REMARK VINA RESULT:    -7.139      1.816      2.187
REMARK INTER + INTRA:         -10.508
REMARK INTER:                  -9.728
REMARK INTRA:                  -0.780
REMARK UNBOUND:                -0.865
REMARK  Name = 
REMARK  8 active torsions:
REMARK  status: ('A' for Active; 'I' for Inactive)
REMARK    1  A    between atoms: C_1  and  C_2
REMARK    2  A    between atoms: C_4  and  C_5
REMARK    3  A    between atoms: C_5  and  C_6
REMARK    4  A    between atoms: C_6  and  C_7
REMARK    5  A    between atoms: C_10  and  C_11
REMARK    6  A    between atoms: C_14  and  C_15
REMARK    7  A    between atoms: C_18  and  N_19
REMARK    8  A    between atoms: N_19  and  C_20
REMARK                            x       y       z     vdW  Elec       q    Type
REMARK                         _______ _______ _______ _____ _____    ______ ____
ROOT
ATOM      1  C   UNL     1      44.518   8.690  11.288  0.00  0.00    +0.000 C 
ATOM      2  C   UNL     1      45.255   7.451  11.706  0.00  0.00    +0.000 A 
ATOM      3  C   UNL     1      44.706   6.180  11.482  0.00  0.00    +0.000 A 
ATOM      4  C   UNL     1      45.331   5.033  11.985  0.00  0.00    +0.000 A 
ATOM      5  C   UNL     1      46.531   5.192  12.709  0.00  0.00    +0.000 A 
ATOM      6  C   UNL     1      47.123   6.443  12.893  0.00  0.00    +0.000 A 
ATOM      7  C   UNL     1      46.459   7.573  12.407  0.00  0.00    +0.000 A 
ENDROOT
BRANCH   6   8
ATOM      8  N   UNL     1      48.298   6.529  13.681  0.00  0.00    +0.000 N 
ATOM      9  H   UNL     1      48.763   5.621  13.654  0.00  0.00    +0.000 HD
BRANCH   8  10
ATOM     10  C   UNL     1      48.354   7.105  15.004  0.00  0.00    +0.000 C 
ATOM     11  C   UNL     1      49.649   7.904  15.251  0.00  0.00    +0.000 C 
ATOM     12  N   UNL     1      49.830   7.199  16.534  0.00  0.00    +0.000 NA
ATOM     13  C   UNL     1      48.858   6.172  16.115  0.00  0.00    +0.000 C 
ATOM     14  H   UNL     1      49.522   7.745  17.339  0.00  0.00    +0.000 HD
ENDBRANCH   8  10
ENDBRANCH   6   8
BRANCH   4  15
ATOM     15  C   UNL     1      44.678   3.667  11.961  0.00  0.00    +0.000 C 
BRANCH  15  16
ATOM     16  C   UNL     1      43.920   3.221  10.698  0.00  0.00    +0.000 C 
BRANCH  16  17
ATOM     17  C   UNL     1      44.686   3.006   9.411  0.00  0.00    +0.000 A 
ATOM     18  C   UNL     1      44.991   4.041   8.525  0.00  0.00    +0.000 A 
ATOM     19  C   UNL     1      45.918   3.842   7.498  0.00  0.00    +0.000 A 
ATOM     20  C   UNL     1      46.544   2.603   7.320  0.00  0.00    +0.000 A 
ATOM     21  C   UNL     1      46.147   1.508   8.100  0.00  0.00    +0.000 A 
ATOM     22  C   UNL     1      46.560   0.085   7.848  0.00  0.00    +0.000 C 
ATOM     23  C   UNL     1      45.247   1.738   9.162  0.00  0.00    +0.000 A 
BRANCH  20  24
ATOM     24  C   UNL     1      47.658   2.585   6.324  0.00  0.00    +0.000 C 
ATOM     25  N   UNL     1      47.412   3.159   5.102  0.00  0.00    +0.000 N 
ATOM     26  O   UNL     1      48.703   1.989   6.533  0.00  0.00    +0.000 OA
ATOM     27  H   UNL     1      46.491   3.466   4.824  0.00  0.00    +0.000 HD
ATOM     28  H   UNL     1      48.110   3.001   4.383  0.00  0.00    +0.000 HD
ENDBRANCH  20  24
ENDBRANCH  16  17
ENDBRANCH  15  16
ENDBRANCH   4  15
TORSDOF 6
ENDMDL
MODEL 4
REMARK VINA RESULT:    -6.643      4.355      7.603
REMARK INTER + INTRA:          -9.839
REMARK INTER:                  -8.991
REMARK INTRA:                  -0.847
REMARK UNBOUND:                -0.865
REMARK  Name = 
REMARK  8 active torsions:
REMARK  status: ('A' for Active; 'I' for Inactive)
REMARK    1  A    between atoms: C_1  and  C_2
REMARK    2  A    between atoms: C_4  and  C_5
REMARK    3  A    between atoms: C_5  and  C_6
REMARK    4  A    between atoms: C_6  and  C_7
REMARK    5  A    between atoms: C_10  and  C_11
REMARK    6  A    between atoms: C_14  and  C_15
REMARK    7  A    between atoms: C_18  and  N_19
REMARK    8  A    between atoms: N_19  and  C_20
REMARK                            x       y       z     vdW  Elec       q    Type
REMARK                         _______ _______ _______ _____ _____    ______ ____
ROOT
ATOM      1  C   UNL     1      44.830  12.084  10.778  0.00  0.00    +0.000 C 
ATOM      2  C   UNL     1      45.143  10.696  11.258  0.00  0.00    +0.000 A 
ATOM      3  C   UNL     1      46.400  10.390  11.798  0.00  0.00    +0.000 A 
ATOM      4  C   UNL     1      46.734   9.071  12.126  0.00  0.00    +0.000 A 
ATOM      5  C   UNL     1      45.768   8.066  11.912  0.00  0.00    +0.000 A 
ATOM      6  C   UNL     1      44.492   8.359  11.429  0.00  0.00    +0.000 A 
ATOM      7  C   UNL     1      44.198   9.680  11.080  0.00  0.00    +0.000 A 
ENDROOT
BRANCH   6   8
ATOM      8  N   UNL     1      43.596   7.288  11.185  0.00  0.00    +0.000 N 
ATOM      9  H   UNL     1      42.647   7.624  11.359  0.00  0.00    +0.000 HD
BRANCH   8  10
ATOM     10  C   UNL     1      43.773   5.946  11.684  0.00  0.00    +0.000 C 
ATOM     11  C   UNL     1      43.733   4.885  10.566  0.00  0.00    +0.000 C 
ATOM     12  N   UNL     1      42.785   4.088  11.366  0.00  0.00    +0.000 NA
ATOM     13  C   UNL     1      42.505   5.260  12.216  0.00  0.00    +0.000 C 
ATOM     14  H   UNL     1      43.229   3.319  11.868  0.00  0.00    +0.000 HD
ENDBRANCH   8  10
ENDBRANCH   6   8
BRANCH   4  15
ATOM     15  C   UNL     1      48.139   8.653  12.506  0.00  0.00    +0.000 C 
BRANCH  15  16
ATOM     16  C   UNL     1      48.492   7.155  12.538  0.00  0.00    +0.000 C 
BRANCH  16  17
ATOM     17  C   UNL     1      48.024   6.308  13.702  0.00  0.00    +0.000 A 
ATOM     18  C   UNL     1      47.187   5.201  13.549  0.00  0.00    +0.000 A 
ATOM     19  C   UNL     1      47.003   4.305  14.605  0.00  0.00    +0.000 A 
ATOM     20  C   UNL     1      47.630   4.503  15.840  0.00  0.00    +0.000 A 
ATOM     21  C   UNL     1      48.355   5.681  16.067  0.00  0.00    +0.000 A 
ATOM     22  C   UNL     1      48.866   6.125  17.409  0.00  0.00    +0.000 C 
ATOM     23  C   UNL     1      48.571   6.550  14.977  0.00  0.00    +0.000 A 
BRANCH  20  24
ATOM     24  C   UNL     1      47.515   3.370  16.807  0.00  0.00    +0.000 C 
ATOM     25  N   UNL     1      48.612   2.557  16.950  0.00  0.00    +0.000 N 
ATOM     26  O   UNL     1      46.462   3.097  17.362  0.00  0.00    +0.000 OA
ATOM     27  H   UNL     1      49.419   2.627  16.347  0.00  0.00    +0.000 HD
ATOM     28  H   UNL     1      48.473   1.704  17.480  0.00  0.00    +0.000 HD
ENDBRANCH  20  24
ENDBRANCH  16  17
ENDBRANCH  15  16
ENDBRANCH   4  15
TORSDOF 6
ENDMDL
MODEL 5
REMARK VINA RESULT:    -6.569      2.771      8.298
REMARK INTER + INTRA:          -9.738
REMARK INTER:                  -9.390
REMARK INTRA:                  -0.348
REMARK UNBOUND:                -0.865
REMARK  Name = 
REMARK  8 active torsions:
REMARK  status: ('A' for Active; 'I' for Inactive)
REMARK    1  A    between atoms: C_1  and  C_2
REMARK    2  A    between atoms: C_4  and  C_5
REMARK    3  A    between atoms: C_5  and  C_6
REMARK    4  A    between atoms: C_6  and  C_7
REMARK    5  A    between atoms: C_10  and  C_11
REMARK    6  A    between atoms: C_14  and  C_15
REMARK    7  A    between atoms: C_18  and  N_19
REMARK    8  A    between atoms: N_19  and  C_20
REMARK                            x       y       z     vdW  Elec       q    Type
REMARK                         _______ _______ _______ _____ _____    ______ ____
ROOT
ATOM      1  C   UNL     1      43.305   2.331  11.298  0.00  0.00    +0.000 C 
ATOM      2  C   UNL     1      44.276   3.242  10.606  0.00  0.00    +0.000 A 
ATOM      3  C   UNL     1      44.730   4.413  11.230  0.00  0.00    +0.000 A 
ATOM      4  C   UNL     1      45.534   5.326  10.537  0.00  0.00    +0.000 A 
ATOM      5  C   UNL     1      45.883   5.027   9.203  0.00  0.00    +0.000 A 
ATOM      6  C   UNL     1      45.488   3.840   8.584  0.00  0.00    +0.000 A 
ATOM      7  C   UNL     1      44.660   2.963   9.290  0.00  0.00    +0.000 A 
ENDROOT
BRANCH   6   8
ATOM      8  N   UNL     1      45.829   3.638   7.223  0.00  0.00    +0.000 N 
ATOM      9  H   UNL     1      44.998   3.821   6.659  0.00  0.00    +0.000 HD
BRANCH   8  10
ATOM     10  C   UNL     1      46.556   2.495   6.725  0.00  0.00    +0.000 C 
ATOM     11  C   UNL     1      48.080   2.631   6.911  0.00  0.00    +0.000 C 
ATOM     12  N   UNL     1      48.281   2.234   5.506  0.00  0.00    +0.000 NA
ATOM     13  C   UNL     1      46.860   2.504   5.219  0.00  0.00    +0.000 C 
ATOM     14  H   UNL     1      48.538   1.252   5.398  0.00  0.00    +0.000 HD
ENDBRANCH   8  10
ENDBRANCH   6   8
BRANCH   4  15
ATOM     15  C   UNL     1      45.871   6.698  11.082  0.00  0.00    +0.000 C 
BRANCH  15  16
ATOM     16  C   UNL     1      47.147   6.876  11.924  0.00  0.00    +0.000 C 
BRANCH  16  17
ATOM     17  C   UNL     1      47.220   6.250  13.301  0.00  0.00    +0.000 A 
ATOM     18  C   UNL     1      46.504   5.106  13.656  0.00  0.00    +0.000 A 
ATOM     19  C   UNL     1      46.807   4.422  14.836  0.00  0.00    +0.000 A 
ATOM     20  C   UNL     1      47.812   4.875  15.697  0.00  0.00    +0.000 A 
ATOM     21  C   UNL     1      48.443   6.099  15.440  0.00  0.00    +0.000 A 
ATOM     22  C   UNL     1      49.355   6.810  16.402  0.00  0.00    +0.000 C 
ATOM     23  C   UNL     1      48.161   6.752  14.221  0.00  0.00    +0.000 A 
BRANCH  20  24
ATOM     24  C   UNL     1      48.171   3.943  16.808  0.00  0.00    +0.000 C 
ATOM     25  N   UNL     1      47.489   4.088  17.990  0.00  0.00    +0.000 N 
ATOM     26  O   UNL     1      49.107   3.162  16.721  0.00  0.00    +0.000 OA
ATOM     27  H   UNL     1      46.865   4.863  18.162  0.00  0.00    +0.000 HD
ATOM     28  H   UNL     1      47.847   3.567  18.783  0.00  0.00    +0.000 HD
ENDBRANCH  20  24
ENDBRANCH  16  17
ENDBRANCH  15  16
ENDBRANCH   4  15
TORSDOF 6
ENDMDL
MODEL 6
REMARK VINA RESULT:    -6.461      3.288      4.889
REMARK INTER + INTRA:          -9.592
REMARK INTER:                  -9.020
REMARK INTRA:                  -0.572
REMARK UNBOUND:                -0.865
REMARK  Name = 
REMARK  8 active torsions:
REMARK  status: ('A' for Active; 'I' for Inactive)
REMARK    1  A    between atoms: C_1  and  C_2
REMARK    2  A    between atoms: C_4  and  C_5
REMARK    3  A    between atoms: C_5  and  C_6
REMARK    4  A    between atoms: C_6  and  C_7
REMARK    5  A    between atoms: C_10  and  C_11
REMARK    6  A    between atoms: C_14  and  C_15
REMARK    7  A    between atoms: C_18  and  N_19
REMARK    8  A    between atoms: N_19  and  C_20
REMARK                            x       y       z     vdW  Elec       q    Type
REMARK                         _______ _______ _______ _____ _____    ______ ____
ROOT
ATOM      1  C   UNL     1      52.236   8.464  14.890  0.00  0.00    +0.000 C 
ATOM      2  C   UNL     1      50.883   7.875  14.611  0.00  0.00    +0.000 A 
ATOM      3  C   UNL     1      50.275   8.038  13.358  0.00  0.00    +0.000 A 
ATOM      4  C   UNL     1      48.963   7.601  13.139  0.00  0.00    +0.000 A 
ATOM      5  C   UNL     1      48.281   6.982  14.206  0.00  0.00    +0.000 A 
ATOM      6  C   UNL     1      48.889   6.760  15.443  0.00  0.00    +0.000 A 
ATOM      7  C   UNL     1      50.188   7.235  15.642  0.00  0.00    +0.000 A 
ENDROOT
BRANCH   6   8
ATOM      8  N   UNL     1      48.119   6.184  16.485  0.00  0.00    +0.000 N 
ATOM      9  H   UNL     1      48.166   6.807  17.292  0.00  0.00    +0.000 HD
BRANCH   8  10
ATOM     10  C   UNL     1      48.196   4.800  16.888  0.00  0.00    +0.000 C 
ATOM     11  C   UNL     1      47.163   3.912  16.167  0.00  0.00    +0.000 C 
ATOM     12  N   UNL     1      46.771   3.328  17.463  0.00  0.00    +0.000 NA
ATOM     13  C   UNL     1      47.435   4.438  18.172  0.00  0.00    +0.000 C 
ATOM     14  H   UNL     1      47.200   2.419  17.639  0.00  0.00    +0.000 HD
ENDBRANCH   8  10
ENDBRANCH   6   8
BRANCH   4  15
ATOM     15  C   UNL     1      48.186   7.942  11.885  0.00  0.00    +0.000 C 
BRANCH  15  16
ATOM     16  C   UNL     1      46.655   8.076  11.966  0.00  0.00    +0.000 C 
BRANCH  16  17
ATOM     17  C   UNL     1      45.785   6.908  11.553  0.00  0.00    +0.000 A 
ATOM     18  C   UNL     1      46.041   6.131  10.422  0.00  0.00    +0.000 A 
ATOM     19  C   UNL     1      45.375   4.917  10.234  0.00  0.00    +0.000 A 
ATOM     20  C   UNL     1      44.425   4.463  11.157  0.00  0.00    +0.000 A 
ATOM     21  C   UNL     1      44.042   5.291  12.220  0.00  0.00    +0.000 A 
ATOM     22  C   UNL     1      42.874   5.030  13.129  0.00  0.00    +0.000 C 
ATOM     23  C   UNL     1      44.759   6.490  12.422  0.00  0.00    +0.000 A 
BRANCH  20  24
ATOM     24  C   UNL     1      43.945   3.065  10.945  0.00  0.00    +0.000 C 
ATOM     25  N   UNL     1      43.654   2.328  12.066  0.00  0.00    +0.000 N 
ATOM     26  O   UNL     1      43.919   2.550   9.837  0.00  0.00    +0.000 OA
ATOM     27  H   UNL     1      43.871   2.652  12.997  0.00  0.00    +0.000 HD
ATOM     28  H   UNL     1      43.486   1.338  11.922  0.00  0.00    +0.000 HD
ENDBRANCH  20  24
ENDBRANCH  16  17
ENDBRANCH  15  16
ENDBRANCH   4  15
TORSDOF 6
ENDMDL
MODEL 7
REMARK VINA RESULT:    -6.423      3.414      5.360
REMARK INTER + INTRA:          -9.541
REMARK INTER:                  -8.561
REMARK INTRA:                  -0.980
REMARK UNBOUND:                -0.865
REMARK  Name = 
REMARK  8 active torsions:
REMARK  status: ('A' for Active; 'I' for Inactive)
REMARK    1  A    between atoms: C_1  and  C_2
REMARK    2  A    between atoms: C_4  and  C_5
REMARK    3  A    between atoms: C_5  and  C_6
REMARK    4  A    between atoms: C_6  and  C_7
REMARK    5  A    between atoms: C_10  and  C_11
REMARK    6  A    between atoms: C_14  and  C_15
REMARK    7  A    between atoms: C_18  and  N_19
REMARK    8  A    between atoms: N_19  and  C_20
REMARK                            x       y       z     vdW  Elec       q    Type
REMARK                         _______ _______ _______ _____ _____    ______ ____
ROOT
ATOM      1  C   UNL     1      48.332  10.441  16.992  0.00  0.00    +0.000 C 
ATOM      2  C   UNL     1      48.677   9.087  16.444  0.00  0.00    +0.000 A 
ATOM      3  C   UNL     1      48.908   8.905  15.074  0.00  0.00    +0.000 A 
ATOM      4  C   UNL     1      49.104   7.623  14.546  0.00  0.00    +0.000 A 
ATOM      5  C   UNL     1      49.076   6.527  15.433  0.00  0.00    +0.000 A 
ATOM      6  C   UNL     1      48.905   6.693  16.808  0.00  0.00    +0.000 A 
ATOM      7  C   UNL     1      48.680   7.981  17.301  0.00  0.00    +0.000 A 
ENDROOT
BRANCH   6   8
ATOM      8  N   UNL     1      48.830   5.538  17.627  0.00  0.00    +0.000 N 
ATOM      9  H   UNL     1      49.680   5.496  18.191  0.00  0.00    +0.000 HD
BRANCH   8  10
ATOM     10  C   UNL     1      48.449   4.228  17.158  0.00  0.00    +0.000 C 
ATOM     11  C   UNL     1      46.934   4.103  16.903  0.00  0.00    +0.000 C 
ATOM     12  N   UNL     1      46.916   2.842  17.667  0.00  0.00    +0.000 NA
ATOM     13  C   UNL     1      48.233   3.167  18.247  0.00  0.00    +0.000 C 
ATOM     14  H   UNL     1      46.927   2.013  17.073  0.00  0.00    +0.000 HD
ENDBRANCH   8  10
ENDBRANCH   6   8
BRANCH   4  15
ATOM     15  C   UNL     1      49.141   7.348  13.057  0.00  0.00    +0.000 C 
BRANCH  15  16
ATOM     16  C   UNL     1      47.882   7.618  12.214  0.00  0.00    +0.000 C 
BRANCH  16  17
ATOM     17  C   UNL     1      46.826   6.542  12.091  0.00  0.00    +0.000 A 
ATOM     18  C   UNL     1      46.098   6.061  13.182  0.00  0.00    +0.000 A 
ATOM     19  C   UNL     1      44.963   5.271  12.981  0.00  0.00    +0.000 A 
ATOM     20  C   UNL     1      44.543   4.925  11.692  0.00  0.00    +0.000 A 
ATOM     21  C   UNL     1      45.337   5.268  10.589  0.00  0.00    +0.000 A 
ATOM     22  C   UNL     1      45.128   4.752   9.192  0.00  0.00    +0.000 C 
ATOM     23  C   UNL     1      46.451   6.106  10.805  0.00  0.00    +0.000 A 
BRANCH  20  24
ATOM     24  C   UNL     1      43.209   4.256  11.611  0.00  0.00    +0.000 C 
ATOM     25  N   UNL     1      42.101   5.056  11.738  0.00  0.00    +0.000 N 
ATOM     26  O   UNL     1      43.097   3.041  11.553  0.00  0.00    +0.000 OA
ATOM     27  H   UNL     1      42.164   6.028  12.002  0.00  0.00    +0.000 HD
ATOM     28  H   UNL     1      41.212   4.579  11.844  0.00  0.00    +0.000 HD
ENDBRANCH  20  24
ENDBRANCH  16  17
ENDBRANCH  15  16
ENDBRANCH   4  15
TORSDOF 6
ENDMDL
MODEL 8
REMARK VINA RESULT:    -6.363      3.681      5.377
REMARK INTER + INTRA:          -9.460
REMARK INTER:                  -8.465
REMARK INTRA:                  -0.995
REMARK UNBOUND:                -0.865
REMARK  Name = 
REMARK  8 active torsions:
REMARK  status: ('A' for Active; 'I' for Inactive)
REMARK    1  A    between atoms: C_1  and  C_2
REMARK    2  A    between atoms: C_4  and  C_5
REMARK    3  A    between atoms: C_5  and  C_6
REMARK    4  A    between atoms: C_6  and  C_7
REMARK    5  A    between atoms: C_10  and  C_11
REMARK    6  A    between atoms: C_14  and  C_15
REMARK    7  A    between atoms: C_18  and  N_19
REMARK    8  A    between atoms: N_19  and  C_20
REMARK                            x       y       z     vdW  Elec       q    Type
REMARK                         _______ _______ _______ _____ _____    ______ ____
ROOT
ATOM      1  C   UNL     1      47.748   9.888  17.983  0.00  0.00    +0.000 C 
ATOM      2  C   UNL     1      48.279   8.772  17.130  0.00  0.00    +0.000 A 
ATOM      3  C   UNL     1      48.419   8.933  15.745  0.00  0.00    +0.000 A 
ATOM      4  C   UNL     1      48.791   7.855  14.934  0.00  0.00    +0.000 A 
ATOM      5  C   UNL     1      49.034   6.610  15.552  0.00  0.00    +0.000 A 
ATOM      6  C   UNL     1      48.956   6.445  16.936  0.00  0.00    +0.000 A 
ATOM      7  C   UNL     1      48.551   7.531  17.716  0.00  0.00    +0.000 A 
ENDROOT
BRANCH   6   8
ATOM      8  N   UNL     1      49.157   5.150  17.477  0.00  0.00    +0.000 N 
ATOM      9  H   UNL     1      50.163   4.991  17.548  0.00  0.00    +0.000 HD
BRANCH   8  10
ATOM     10  C   UNL     1      48.471   3.962  17.029  0.00  0.00    +0.000 C 
ATOM     11  C   UNL     1      46.941   4.138  16.985  0.00  0.00    +0.000 C 
ATOM     12  N   UNL     1      46.780   2.863  17.707  0.00  0.00    +0.000 NA
ATOM     13  C   UNL     1      48.199   2.903  18.107  0.00  0.00    +0.000 C 
ATOM     14  H   UNL     1      46.552   2.080  17.095  0.00  0.00    +0.000 HD
ENDBRANCH   8  10
ENDBRANCH   6   8
BRANCH   4  15
ATOM     15  C   UNL     1      48.748   7.914  13.422  0.00  0.00    +0.000 C 
BRANCH  15  16
ATOM     16  C   UNL     1      47.460   8.393  12.728  0.00  0.00    +0.000 C 
BRANCH  16  17
ATOM     17  C   UNL     1      46.357   7.398  12.441  0.00  0.00    +0.000 A 
ATOM     18  C   UNL     1      45.162   7.747  11.810  0.00  0.00    +0.000 A 
ATOM     19  C   UNL     1      44.300   6.757  11.333  0.00  0.00    +0.000 A 
ATOM     20  C   UNL     1      44.598   5.399  11.494  0.00  0.00    +0.000 A 
ATOM     21  C   UNL     1      45.714   5.021  12.253  0.00  0.00    +0.000 A 
ATOM     22  C   UNL     1      46.007   3.617  12.703  0.00  0.00    +0.000 C 
ATOM     23  C   UNL     1      46.599   6.032  12.685  0.00  0.00    +0.000 A 
BRANCH  20  24
ATOM     24  C   UNL     1      43.703   4.455  10.761  0.00  0.00    +0.000 C 
ATOM     25  N   UNL     1      43.819   4.418   9.394  0.00  0.00    +0.000 N 
ATOM     26  O   UNL     1      42.823   3.824  11.328  0.00  0.00    +0.000 OA
ATOM     27  H   UNL     1      44.382   5.081   8.881  0.00  0.00    +0.000 HD
ATOM     28  H   UNL     1      43.103   3.900   8.896  0.00  0.00    +0.000 HD
ENDBRANCH  20  24
ENDBRANCH  16  17
ENDBRANCH  15  16
ENDBRANCH   4  15
TORSDOF 6
ENDMDL
MODEL 9
REMARK VINA RESULT:    -6.241      3.910      8.191
REMARK INTER + INTRA:          -9.296
REMARK INTER:                  -8.567
REMARK INTRA:                  -0.729
REMARK UNBOUND:                -0.865
REMARK  Name = 
REMARK  8 active torsions:
REMARK  status: ('A' for Active; 'I' for Inactive)
REMARK    1  A    between atoms: C_1  and  C_2
REMARK    2  A    between atoms: C_4  and  C_5
REMARK    3  A    between atoms: C_5  and  C_6
REMARK    4  A    between atoms: C_6  and  C_7
REMARK    5  A    between atoms: C_10  and  C_11
REMARK    6  A    between atoms: C_14  and  C_15
REMARK    7  A    between atoms: C_18  and  N_19
REMARK    8  A    between atoms: N_19  and  C_20
REMARK                            x       y       z     vdW  Elec       q    Type
REMARK                         _______ _______ _______ _____ _____    ______ ____
ROOT
ATOM      1  C   UNL     1      43.369   2.366  11.365  0.00  0.00    +0.000 C 
ATOM      2  C   UNL     1      44.295   3.276  10.611  0.00  0.00    +0.000 A 
ATOM      3  C   UNL     1      44.711   4.495  11.164  0.00  0.00    +0.000 A 
ATOM      4  C   UNL     1      45.469   5.400  10.412  0.00  0.00    +0.000 A 
ATOM      5  C   UNL     1      45.812   5.044   9.091  0.00  0.00    +0.000 A 
ATOM      6  C   UNL     1      45.456   3.811   8.542  0.00  0.00    +0.000 A 
ATOM      7  C   UNL     1      44.673   2.942   9.306  0.00  0.00    +0.000 A 
ENDROOT
BRANCH   6   8
ATOM      8  N   UNL     1      45.787   3.550   7.189  0.00  0.00    +0.000 N 
ATOM      9  H   UNL     1      44.964   3.749   6.619  0.00  0.00    +0.000 HD
BRANCH   8  10
ATOM     10  C   UNL     1      46.466   2.362   6.729  0.00  0.00    +0.000 C 
ATOM     11  C   UNL     1      47.994   2.440   6.912  0.00  0.00    +0.000 C 
ATOM     12  N   UNL     1      48.177   1.988   5.521  0.00  0.00    +0.000 NA
ATOM     13  C   UNL     1      46.768   2.308   5.224  0.00  0.00    +0.000 C 
ATOM     14  H   UNL     1      48.393   0.994   5.446  0.00  0.00    +0.000 HD
ENDBRANCH   8  10
ENDBRANCH   6   8
BRANCH   4  15
ATOM     15  C   UNL     1      45.759   6.811  10.879  0.00  0.00    +0.000 C 
BRANCH  15  16
ATOM     16  C   UNL     1      46.323   7.031  12.294  0.00  0.00    +0.000 C 
BRANCH  16  17
ATOM     17  C   UNL     1      47.812   7.224  12.477  0.00  0.00    +0.000 A 
ATOM     18  C   UNL     1      48.651   7.688  11.462  0.00  0.00    +0.000 A 
ATOM     19  C   UNL     1      49.954   8.098  11.755  0.00  0.00    +0.000 A 
ATOM     20  C   UNL     1      50.456   8.034  13.059  0.00  0.00    +0.000 A 
ATOM     21  C   UNL     1      49.689   7.435  14.068  0.00  0.00    +0.000 A 
ATOM     22  C   UNL     1      50.201   7.087  15.438  0.00  0.00    +0.000 C 
ATOM     23  C   UNL     1      48.360   7.072  13.766  0.00  0.00    +0.000 A 
BRANCH  20  24
ATOM     24  C   UNL     1      51.781   8.692  13.269  0.00  0.00    +0.000 C 
ATOM     25  N   UNL     1      52.879   7.874  13.351  0.00  0.00    +0.000 N 
ATOM     26  O   UNL     1      51.881   9.892  13.475  0.00  0.00    +0.000 OA
ATOM     27  H   UNL     1      52.802   6.868  13.401  0.00  0.00    +0.000 HD
ATOM     28  H   UNL     1      53.744   8.311  13.652  0.00  0.00    +0.000 HD
ENDBRANCH  20  24
ENDBRANCH  16  17
ENDBRANCH  15  16
ENDBRANCH   4  15
TORSDOF 6
ENDMDL
