MODEL 1
REMARK VINA RESULT:    -8.260      0.000      0.000
REMARK INTER + INTRA:         -13.127
REMARK INTER:                 -12.123
REMARK INTRA:                  -1.004
REMARK UNBOUND:                -1.004
REMARK  Name = 
REMARK  9 active torsions:
REMARK  status: ('A' for Active; 'I' for Inactive)
REMARK    1  A    between atoms: C_1  and  C_2
REMARK    2  A    between atoms: C_2  and  C_3
REMARK    3  A    between atoms: C_2  and  N_10
REMARK    4  A    between atoms: C_3  and  C_4
REMARK    5  A    between atoms: N_10  and  C_11
REMARK    6  A    between atoms: C_11  and  C_12
REMARK    7  A    between atoms: C_15  and  C_16
REMARK    8  A    between atoms: C_16  and  N_17
REMARK    9  A    between atoms: C_18  and  C_20
REMARK                            x       y       z     vdW  Elec       q    Type
REMARK                         _______ _______ _______ _____ _____    ______ ____
ROOT
ATOM      1  C   UNL     1      44.576   5.619  11.452  0.00  0.00    +0.000 A 
ATOM      2  C   UNL     1      44.368   7.003  11.536  0.00  0.00    +0.000 A 
ATOM      3  C   UNL     1      45.296   7.822  12.182  0.00  0.00    +0.000 A 
ATOM      4  C   UNL     1      46.447   7.272  12.760  0.00  0.00    +0.000 A 
ATOM      5  C   UNL     1      46.641   5.886  12.702  0.00  0.00    +0.000 A 
ATOM      6  C   UNL     1      45.720   5.069  12.046  0.00  0.00    +0.000 A 
ENDROOT
BRANCH   1   7
ATOM      7  C   UNL     1      43.578   4.726  10.749  0.00  0.00    +0.000 C 
BRANCH   7   8
ATOM      8  N   UNL     1      43.732   4.809   9.296  0.00  0.00    +0.000 NA
ATOM      9  H   UNL     1      42.796   4.878   8.895  0.00  0.00    +0.000 HD
BRANCH   8  11
ATOM     10  C   UNL     1      44.409   2.463   9.703  0.00  0.00    +0.000 C 
ATOM     11  C   UNL     1      44.393   3.629   8.706  0.00  0.00    +0.000 C 
BRANCH  11  12
ATOM     12  C   UNL     1      45.852   3.963   8.304  0.00  0.00    +0.000 C 
BRANCH  12  13
ATOM     13  C   UNL     1      46.450   2.986   7.320  0.00  0.00    +0.000 A 
ATOM     14  C   UNL     1      46.632   3.349   5.986  0.00  0.00    +0.000 A 
ATOM     15  C   UNL     1      47.146   2.411   5.095  0.00  0.00    +0.000 A 
ATOM     16  C   UNL     1      47.479   1.146   5.558  0.00  0.00    +0.000 A 
ATOM     17  C   UNL     1      47.278   0.868   6.900  0.00  0.00    +0.000 A 
ATOM     18  N   UNL     1      46.763   1.751   7.785  0.00  0.00    +0.000 NA
ENDBRANCH  12  13
ENDBRANCH  11  12
ENDBRANCH   8  11
ENDBRANCH   7   8
ENDBRANCH   1   7
BRANCH   4  19
ATOM     19  C   UNL     1      47.427   8.142  13.498  0.00  0.00    +0.000 C 
BRANCH  19  20
ATOM     20  N   UNL     1      47.795   7.530  14.747  0.00  0.00    +0.000 N 
ATOM     21  C   UNL     1      49.085   7.152  15.004  0.00  0.00    +0.000 C 
ATOM     22  O   UNL     1      49.992   7.341  14.197  0.00  0.00    +0.000 OA
ATOM     23  H   UNL     1      47.041   7.171  15.324  0.00  0.00    +0.000 HD
BRANCH  21  24
ATOM     24  C   UNL     1      49.343   6.574  16.327  0.00  0.00    +0.000 A 
ATOM     25  C   UNL     1      50.148   7.255  17.228  0.00  0.00    +0.000 A 
ATOM     26  S   UNL     1      50.285   6.484  18.743  0.00  0.00    +0.000 S 
ATOM     27  C   UNL     1      49.318   5.182  18.228  0.00  0.00    +0.000 A 
ATOM     28  N   UNL     1      49.047   4.141  19.061  0.00  0.00    +0.000 NA
ATOM     29  C   UNL     1      48.327   3.210  18.532  0.00  0.00    +0.000 A 
ATOM     30  N   UNL     1      47.848   3.226  17.246  0.00  0.00    +0.000 N 
ATOM     31  C   UNL     1      48.073   4.271  16.376  0.00  0.00    +0.000 A 
ATOM     32  O   UNL     1      47.602   4.270  15.246  0.00  0.00    +0.000 OA
ATOM     33  C   UNL     1      48.883   5.341  16.923  0.00  0.00    +0.000 A 
ATOM     34  H   UNL     1      47.288   2.465  16.895  0.00  0.00    +0.000 HD
ENDBRANCH  21  24
ENDBRANCH  19  20
ENDBRANCH   4  19
TORSDOF 8
ENDMDL
MODEL 2
REMARK VINA RESULT:    -7.748      2.759      3.957
REMARK INTER + INTRA:         -12.376
REMARK INTER:                 -11.020
REMARK INTRA:                  -1.356
REMARK UNBOUND:                -1.004
REMARK  Name = 
REMARK  9 active torsions:
REMARK  status: ('A' for Active; 'I' for Inactive)
REMARK    1  A    between atoms: C_1  and  C_2
REMARK    2  A    between atoms: C_2  and  C_3
REMARK    3  A    between atoms: C_2  and  N_10
REMARK    4  A    between atoms: C_3  and  C_4
REMARK    5  A    between atoms: N_10  and  C_11
REMARK    6  A    between atoms: C_11  and  C_12
REMARK    7  A    between atoms: C_15  and  C_16
REMARK    8  A    between atoms: C_16  and  N_17
REMARK    9  A    between atoms: C_18  and  C_20
REMARK                            x       y       z     vdW  Elec       q    Type
REMARK                         _______ _______ _______ _____ _____    ______ ____
ROOT
ATOM      1  C   UNL     1      46.738   4.685  13.892  0.00  0.00    +0.000 A 
ATOM      2  C   UNL     1      46.986   4.201  15.184  0.00  0.00    +0.000 A 
ATOM      3  C   UNL     1      47.852   4.881  16.043  0.00  0.00    +0.000 A 
ATOM      4  C   UNL     1      48.490   6.055  15.624  0.00  0.00    +0.000 A 
ATOM      5  C   UNL     1      48.266   6.523  14.323  0.00  0.00    +0.000 A 
ATOM      6  C   UNL     1      47.391   5.850  13.469  0.00  0.00    +0.000 A 
ENDROOT
BRANCH   1   7
ATOM      7  C   UNL     1      45.797   3.957  12.959  0.00  0.00    +0.000 C 
BRANCH   7   8
ATOM      8  N   UNL     1      45.548   4.742  11.748  0.00  0.00    +0.000 NA
ATOM      9  H   UNL     1      46.148   5.566  11.791  0.00  0.00    +0.000 HD
BRANCH   8  11
ATOM     10  C   UNL     1      43.262   4.526  12.673  0.00  0.00    +0.000 C 
ATOM     11  C   UNL     1      44.151   5.202  11.622  0.00  0.00    +0.000 C 
BRANCH  11  12
ATOM     12  C   UNL     1      43.594   4.880  10.213  0.00  0.00    +0.000 C 
BRANCH  12  13
ATOM     13  C   UNL     1      44.495   3.987   9.393  0.00  0.00    +0.000 A 
ATOM     14  C   UNL     1      44.459   2.604   9.559  0.00  0.00    +0.000 A 
ATOM     15  C   UNL     1      45.332   1.811   8.819  0.00  0.00    +0.000 A 
ATOM     16  C   UNL     1      46.204   2.416   7.923  0.00  0.00    +0.000 A 
ATOM     17  C   UNL     1      46.169   3.796   7.809  0.00  0.00    +0.000 A 
ATOM     18  N   UNL     1      45.346   4.592   8.528  0.00  0.00    +0.000 NA
ENDBRANCH  12  13
ENDBRANCH  11  12
ENDBRANCH   8  11
ENDBRANCH   7   8
ENDBRANCH   1   7
BRANCH   4  19
ATOM     19  C   UNL     1      49.460   6.766  16.526  0.00  0.00    +0.000 C 
BRANCH  19  20
ATOM     20  N   UNL     1      50.516   5.873  16.926  0.00  0.00    +0.000 N 
ATOM     21  C   UNL     1      50.642   5.452  18.222  0.00  0.00    +0.000 C 
ATOM     22  O   UNL     1      49.848   5.790  19.097  0.00  0.00    +0.000 OA
ATOM     23  H   UNL     1      51.294   5.763  16.283  0.00  0.00    +0.000 HD
BRANCH  21  24
ATOM     24  C   UNL     1      51.736   4.515  18.499  0.00  0.00    +0.000 A 
ATOM     25  C   UNL     1      52.833   4.939  19.234  0.00  0.00    +0.000 A 
ATOM     26  S   UNL     1      53.977   3.709  19.528  0.00  0.00    +0.000 S 
ATOM     27  C   UNL     1      53.072   2.579  18.636  0.00  0.00    +0.000 A 
ATOM     28  N   UNL     1      53.510   1.300  18.479  0.00  0.00    +0.000 NA
ATOM     29  C   UNL     1      52.740   0.559  17.756  0.00  0.00    +0.000 A 
ATOM     30  N   UNL     1      51.568   0.978  17.177  0.00  0.00    +0.000 N 
ATOM     31  C   UNL     1      51.072   2.254  17.330  0.00  0.00    +0.000 A 
ATOM     32  O   UNL     1      50.005   2.586  16.829  0.00  0.00    +0.000 OA
ATOM     33  C   UNL     1      51.905   3.128  18.132  0.00  0.00    +0.000 A 
ATOM     34  H   UNL     1      51.012   0.345  16.624  0.00  0.00    +0.000 HD
ENDBRANCH  21  24
ENDBRANCH  19  20
ENDBRANCH   4  19
TORSDOF 8
ENDMDL
MODEL 3
REMARK VINA RESULT:    -7.598      4.226     10.313
REMARK INTER + INTRA:         -12.156
REMARK INTER:                  -9.578
REMARK INTRA:                  -2.578
REMARK UNBOUND:                -1.004
REMARK  Name = 
REMARK  9 active torsions:
REMARK  status: ('A' for Active; 'I' for Inactive)
REMARK    1  A    between atoms: C_1  and  C_2
REMARK    2  A    between atoms: C_2  and  C_3
REMARK    3  A    between atoms: C_2  and  N_10
REMARK    4  A    between atoms: C_3  and  C_4
REMARK    5  A    between atoms: N_10  and  C_11
REMARK    6  A    between atoms: C_11  and  C_12
REMARK    7  A    between atoms: C_15  and  C_16
REMARK    8  A    between atoms: C_16  and  N_17
REMARK    9  A    between atoms: C_18  and  C_20
REMARK                            x       y       z     vdW  Elec       q    Type
REMARK                         _______ _______ _______ _____ _____    ______ ____
ROOT
ATOM      1  C   UNL     1      51.414   4.438  17.725  0.00  0.00    +0.000 A 
ATOM      2  C   UNL     1      50.540   5.463  17.336  0.00  0.00    +0.000 A 
ATOM      3  C   UNL     1      49.211   5.179  17.016  0.00  0.00    +0.000 A 
ATOM      4  C   UNL     1      48.732   3.864  17.072  0.00  0.00    +0.000 A 
ATOM      5  C   UNL     1      49.612   2.836  17.432  0.00  0.00    +0.000 A 
ATOM      6  C   UNL     1      50.937   3.121  17.764  0.00  0.00    +0.000 A 
ENDROOT
BRANCH   1   7
ATOM      7  C   UNL     1      52.853   4.738  18.079  0.00  0.00    +0.000 C 
BRANCH   7   8
ATOM      8  N   UNL     1      52.933   5.707  19.174  0.00  0.00    +0.000 NA
ATOM      9  H   UNL     1      53.556   6.456  18.871  0.00  0.00    +0.000 HD
BRANCH   8  11
ATOM     10  C   UNL     1      53.664   3.623  20.292  0.00  0.00    +0.000 C 
ATOM     11  C   UNL     1      53.476   5.140  20.423  0.00  0.00    +0.000 C 
BRANCH  11  12
ATOM     12  C   UNL     1      52.525   5.425  21.613  0.00  0.00    +0.000 C 
BRANCH  12  13
ATOM     13  C   UNL     1      51.120   5.789  21.193  0.00  0.00    +0.000 A 
ATOM     14  C   UNL     1      50.110   4.828  21.201  0.00  0.00    +0.000 A 
ATOM     15  C   UNL     1      48.835   5.185  20.768  0.00  0.00    +0.000 A 
ATOM     16  C   UNL     1      48.598   6.489  20.355  0.00  0.00    +0.000 A 
ATOM     17  C   UNL     1      49.654   7.385  20.388  0.00  0.00    +0.000 A 
ATOM     18  N   UNL     1      50.906   7.064  20.785  0.00  0.00    +0.000 NA
ENDBRANCH  12  13
ENDBRANCH  11  12
ENDBRANCH   8  11
ENDBRANCH   7   8
ENDBRANCH   1   7
BRANCH   4  19
ATOM     19  C   UNL     1      47.315   3.545  16.682  0.00  0.00    +0.000 C 
BRANCH  19  20
ATOM     20  N   UNL     1      46.827   4.516  15.739  0.00  0.00    +0.000 N 
ATOM     21  C   UNL     1      46.831   4.268  14.393  0.00  0.00    +0.000 C 
ATOM     22  O   UNL     1      47.223   3.200  13.928  0.00  0.00    +0.000 OA
ATOM     23  H   UNL     1      46.709   5.466  16.076  0.00  0.00    +0.000 HD
BRANCH  21  24
ATOM     24  C   UNL     1      46.273   5.319  13.536  0.00  0.00    +0.000 A 
ATOM     25  C   UNL     1      47.019   6.459  13.274  0.00  0.00    +0.000 A 
ATOM     26  S   UNL     1      46.258   7.545  12.203  0.00  0.00    +0.000 S 
ATOM     27  C   UNL     1      44.878   6.555  12.094  0.00  0.00    +0.000 A 
ATOM     28  N   UNL     1      43.814   6.921  11.329  0.00  0.00    +0.000 NA
ATOM     29  C   UNL     1      42.825   6.093  11.361  0.00  0.00    +0.000 A 
ATOM     30  N   UNL     1      42.804   4.927  12.087  0.00  0.00    +0.000 N 
ATOM     31  C   UNL     1      43.868   4.503  12.854  0.00  0.00    +0.000 A 
ATOM     32  O   UNL     1      43.829   3.441  13.461  0.00  0.00    +0.000 OA
ATOM     33  C   UNL     1      45.002   5.404  12.854  0.00  0.00    +0.000 A 
ATOM     34  H   UNL     1      41.998   4.322  12.066  0.00  0.00    +0.000 HD
ENDBRANCH  21  24
ENDBRANCH  19  20
ENDBRANCH   4  19
TORSDOF 8
ENDMDL
MODEL 4
REMARK VINA RESULT:    -7.517      4.181      9.523
REMARK INTER + INTRA:         -12.036
REMARK INTER:                  -9.251
REMARK INTRA:                  -2.785
REMARK UNBOUND:                -1.004
REMARK  Name = 
REMARK  9 active torsions:
REMARK  status: ('A' for Active; 'I' for Inactive)
REMARK    1  A    between atoms: C_1  and  C_2
REMARK    2  A    between atoms: C_2  and  C_3
REMARK    3  A    between atoms: C_2  and  N_10
REMARK    4  A    between atoms: C_3  and  C_4
REMARK    5  A    between atoms: N_10  and  C_11
REMARK    6  A    between atoms: C_11  and  C_12
REMARK    7  A    between atoms: C_15  and  C_16
REMARK    8  A    between atoms: C_16  and  N_17
REMARK    9  A    between atoms: C_18  and  C_20
REMARK                            x       y       z     vdW  Elec       q    Type
REMARK                         _______ _______ _______ _____ _____    ______ ____
ROOT
ATOM      1  C   UNL     1      48.410   5.634  20.387  0.00  0.00    +0.000 A 
ATOM      2  C   UNL     1      49.150   4.534  19.931  0.00  0.00    +0.000 A 
ATOM      3  C   UNL     1      48.811   3.895  18.736  0.00  0.00    +0.000 A 
ATOM      4  C   UNL     1      47.721   4.341  17.978  0.00  0.00    +0.000 A 
ATOM      5  C   UNL     1      46.962   5.421  18.448  0.00  0.00    +0.000 A 
ATOM      6  C   UNL     1      47.309   6.067  19.635  0.00  0.00    +0.000 A 
ENDROOT
BRANCH   1   7
ATOM      7  C   UNL     1      48.775   6.334  21.676  0.00  0.00    +0.000 C 
BRANCH   7   8
ATOM      8  N   UNL     1      49.062   7.750  21.441  0.00  0.00    +0.000 NA
ATOM      9  H   UNL     1      48.321   8.115  20.843  0.00  0.00    +0.000 HD
BRANCH   8  11
ATOM     10  C   UNL     1      51.346   8.668  21.708  0.00  0.00    +0.000 C 
ATOM     11  C   UNL     1      50.352   7.984  20.762  0.00  0.00    +0.000 C 
BRANCH  11  12
ATOM     12  C   UNL     1      50.156   8.877  19.511  0.00  0.00    +0.000 C 
BRANCH  12  13
ATOM     13  C   UNL     1      49.991   8.097  18.228  0.00  0.00    +0.000 A 
ATOM     14  C   UNL     1      50.876   7.069  17.908  0.00  0.00    +0.000 A 
ATOM     15  C   UNL     1      50.723   6.398  16.698  0.00  0.00    +0.000 A 
ATOM     16  C   UNL     1      49.684   6.756  15.849  0.00  0.00    +0.000 A 
ATOM     17  C   UNL     1      48.841   7.781  16.247  0.00  0.00    +0.000 A 
ATOM     18  N   UNL     1      48.977   8.464  17.406  0.00  0.00    +0.000 NA
ENDBRANCH  12  13
ENDBRANCH  11  12
ENDBRANCH   8  11
ENDBRANCH   7   8
ENDBRANCH   1   7
BRANCH   4  19
ATOM     19  C   UNL     1      47.321   3.628  16.716  0.00  0.00    +0.000 C 
BRANCH  19  20
ATOM     20  N   UNL     1      46.819   4.569  15.749  0.00  0.00    +0.000 N 
ATOM     21  C   UNL     1      46.841   4.295  14.409  0.00  0.00    +0.000 C 
ATOM     22  O   UNL     1      47.260   3.227  13.969  0.00  0.00    +0.000 OA
ATOM     23  H   UNL     1      46.678   5.523  16.066  0.00  0.00    +0.000 HD
BRANCH  21  24
ATOM     24  C   UNL     1      46.267   5.317  13.526  0.00  0.00    +0.000 A 
ATOM     25  C   UNL     1      47.005   6.452  13.222  0.00  0.00    +0.000 A 
ATOM     26  S   UNL     1      46.225   7.501  12.127  0.00  0.00    +0.000 S 
ATOM     27  C   UNL     1      44.850   6.501  12.063  0.00  0.00    +0.000 A 
ATOM     28  N   UNL     1      43.776   6.838  11.299  0.00  0.00    +0.000 NA
ATOM     29  C   UNL     1      42.792   6.006  11.367  0.00  0.00    +0.000 A 
ATOM     30  N   UNL     1      42.785   4.863  12.128  0.00  0.00    +0.000 N 
ATOM     31  C   UNL     1      43.859   4.467  12.895  0.00  0.00    +0.000 A 
ATOM     32  O   UNL     1      43.834   3.424  13.535  0.00  0.00    +0.000 OA
ATOM     33  C   UNL     1      44.989   5.374  12.856  0.00  0.00    +0.000 A 
ATOM     34  H   UNL     1      41.983   4.253  12.134  0.00  0.00    +0.000 HD
ENDBRANCH  21  24
ENDBRANCH  19  20
ENDBRANCH   4  19
TORSDOF 8
ENDMDL
MODEL 5
REMARK VINA RESULT:    -7.492      2.955      8.661
REMARK INTER + INTRA:         -12.000
REMARK INTER:                  -9.778
REMARK INTRA:                  -2.222
REMARK UNBOUND:                -1.004
REMARK  Name = 
REMARK  9 active torsions:
REMARK  status: ('A' for Active; 'I' for Inactive)
REMARK    1  A    between atoms: C_1  and  C_2
REMARK    2  A    between atoms: C_2  and  C_3
REMARK    3  A    between atoms: C_2  and  N_10
REMARK    4  A    between atoms: C_3  and  C_4
REMARK    5  A    between atoms: N_10  and  C_11
REMARK    6  A    between atoms: C_11  and  C_12
REMARK    7  A    between atoms: C_15  and  C_16
REMARK    8  A    between atoms: C_16  and  N_17
REMARK    9  A    between atoms: C_18  and  C_20
REMARK                            x       y       z     vdW  Elec       q    Type
REMARK                         _______ _______ _______ _____ _____    ______ ____
ROOT
ATOM      1  C   UNL     1      49.281   8.052  16.226  0.00  0.00    +0.000 A 
ATOM      2  C   UNL     1      48.571   9.140  15.701  0.00  0.00    +0.000 A 
ATOM      3  C   UNL     1      48.044   9.088  14.409  0.00  0.00    +0.000 A 
ATOM      4  C   UNL     1      48.222   7.948  13.616  0.00  0.00    +0.000 A 
ATOM      5  C   UNL     1      48.957   6.871  14.128  0.00  0.00    +0.000 A 
ATOM      6  C   UNL     1      49.472   6.918  15.424  0.00  0.00    +0.000 A 
ENDROOT
BRANCH   1   7
ATOM      7  C   UNL     1      49.849   8.099  17.626  0.00  0.00    +0.000 C 
BRANCH   7   8
ATOM      8  N   UNL     1      49.264   7.052  18.466  0.00  0.00    +0.000 NA
ATOM      9  H   UNL     1      49.371   6.168  17.967  0.00  0.00    +0.000 HD
BRANCH   8  11
ATOM     10  C   UNL     1      47.629   8.105  19.997  0.00  0.00    +0.000 C 
ATOM     11  C   UNL     1      47.828   7.251  18.739  0.00  0.00    +0.000 C 
BRANCH  11  12
ATOM     12  C   UNL     1      47.116   5.889  18.941  0.00  0.00    +0.000 C 
BRANCH  12  13
ATOM     13  C   UNL     1      47.737   4.757  18.157  0.00  0.00    +0.000 A 
ATOM     14  C   UNL     1      47.183   4.353  16.942  0.00  0.00    +0.000 A 
ATOM     15  C   UNL     1      47.753   3.279  16.264  0.00  0.00    +0.000 A 
ATOM     16  C   UNL     1      48.866   2.649  16.804  0.00  0.00    +0.000 A 
ATOM     17  C   UNL     1      49.361   3.119  18.009  0.00  0.00    +0.000 A 
ATOM     18  N   UNL     1      48.818   4.146  18.700  0.00  0.00    +0.000 NA
ENDBRANCH  12  13
ENDBRANCH  11  12
ENDBRANCH   8  11
ENDBRANCH   7   8
ENDBRANCH   1   7
BRANCH   4  19
ATOM     19  C   UNL     1      47.699   7.903  12.206  0.00  0.00    +0.000 C 
BRANCH  19  20
ATOM     20  N   UNL     1      46.988   6.673  11.977  0.00  0.00    +0.000 N 
ATOM     21  C   UNL     1      45.635   6.584  12.163  0.00  0.00    +0.000 C 
ATOM     22  O   UNL     1      44.960   7.552  12.505  0.00  0.00    +0.000 OA
ATOM     23  H   UNL     1      47.544   5.826  11.911  0.00  0.00    +0.000 HD
BRANCH  21  24
ATOM     24  C   UNL     1      45.020   5.287  11.860  0.00  0.00    +0.000 A 
ATOM     25  C   UNL     1      44.343   4.600  12.857  0.00  0.00    +0.000 A 
ATOM     26  S   UNL     1      43.625   3.149  12.322  0.00  0.00    +0.000 S 
ATOM     27  C   UNL     1      44.241   3.361  10.750  0.00  0.00    +0.000 A 
ATOM     28  N   UNL     1      44.000   2.442   9.776  0.00  0.00    +0.000 NA
ATOM     29  C   UNL     1      44.550   2.713   8.641  0.00  0.00    +0.000 A 
ATOM     30  N   UNL     1      45.318   3.823   8.389  0.00  0.00    +0.000 N 
ATOM     31  C   UNL     1      45.566   4.793   9.335  0.00  0.00    +0.000 A 
ATOM     32  O   UNL     1      46.227   5.788   9.068  0.00  0.00    +0.000 OA
ATOM     33  C   UNL     1      44.972   4.530  10.631  0.00  0.00    +0.000 A 
ATOM     34  H   UNL     1      45.718   3.976   7.476  0.00  0.00    +0.000 HD
ENDBRANCH  21  24
ENDBRANCH  19  20
ENDBRANCH   4  19
TORSDOF 8
ENDMDL
MODEL 6
REMARK VINA RESULT:    -7.380      1.704      2.055
REMARK INTER + INTRA:         -11.835
REMARK INTER:                 -10.899
REMARK INTRA:                  -0.936
REMARK UNBOUND:                -1.004
REMARK  Name = 
REMARK  9 active torsions:
REMARK  status: ('A' for Active; 'I' for Inactive)
REMARK    1  A    between atoms: C_1  and  C_2
REMARK    2  A    between atoms: C_2  and  C_3
REMARK    3  A    between atoms: C_2  and  N_10
REMARK    4  A    between atoms: C_3  and  C_4
REMARK    5  A    between atoms: N_10  and  C_11
REMARK    6  A    between atoms: C_11  and  C_12
REMARK    7  A    between atoms: C_15  and  C_16
REMARK    8  A    between atoms: C_16  and  N_17
REMARK    9  A    between atoms: C_18  and  C_20
REMARK                            x       y       z     vdW  Elec       q    Type
REMARK                         _______ _______ _______ _____ _____    ______ ____
ROOT
ATOM      1  C   UNL     1      44.945   5.367  12.357  0.00  0.00    +0.000 A 
ATOM      2  C   UNL     1      45.276   6.728  12.397  0.00  0.00    +0.000 A 
ATOM      3  C   UNL     1      46.439   7.158  13.039  0.00  0.00    +0.000 A 
ATOM      4  C   UNL     1      47.290   6.235  13.659  0.00  0.00    +0.000 A 
ATOM      5  C   UNL     1      46.945   4.877  13.645  0.00  0.00    +0.000 A 
ATOM      6  C   UNL     1      45.790   4.446  12.992  0.00  0.00    +0.000 A 
ENDROOT
BRANCH   1   7
ATOM      7  C   UNL     1      43.691   4.894  11.658  0.00  0.00    +0.000 C 
BRANCH   7   8
ATOM      8  N   UNL     1      43.800   5.069  10.208  0.00  0.00    +0.000 NA
ATOM      9  H   UNL     1      42.951   4.683   9.792  0.00  0.00    +0.000 HD
BRANCH   8  11
ATOM     10  C   UNL     1      46.000   5.375   9.117  0.00  0.00    +0.000 C 
ATOM     11  C   UNL     1      44.956   4.368   9.617  0.00  0.00    +0.000 C 
BRANCH  11  12
ATOM     12  C   UNL     1      44.508   3.480   8.429  0.00  0.00    +0.000 C 
BRANCH  12  13
ATOM     13  C   UNL     1      45.646   2.755   7.749  0.00  0.00    +0.000 A 
ATOM     14  C   UNL     1      46.223   3.276   6.591  0.00  0.00    +0.000 A 
ATOM     15  C   UNL     1      47.241   2.562   5.965  0.00  0.00    +0.000 A 
ATOM     16  C   UNL     1      47.668   1.362   6.517  0.00  0.00    +0.000 A 
ATOM     17  C   UNL     1      47.051   0.921   7.675  0.00  0.00    +0.000 A 
ATOM     18  N   UNL     1      46.047   1.581   8.295  0.00  0.00    +0.000 NA
ENDBRANCH  12  13
ENDBRANCH  11  12
ENDBRANCH   8  11
ENDBRANCH   7   8
ENDBRANCH   1   7
BRANCH   4  19
ATOM     19  C   UNL     1      48.519   6.695  14.393  0.00  0.00    +0.000 C 
BRANCH  19  20
ATOM     20  N   UNL     1      48.295   6.656  15.814  0.00  0.00    +0.000 N 
ATOM     21  C   UNL     1      48.906   7.543  16.658  0.00  0.00    +0.000 C 
ATOM     22  O   UNL     1      49.649   8.430  16.244  0.00  0.00    +0.000 OA
ATOM     23  H   UNL     1      47.871   5.813  16.190  0.00  0.00    +0.000 HD
BRANCH  21  24
ATOM     24  C   UNL     1      48.569   7.426  18.081  0.00  0.00    +0.000 A 
ATOM     25  C   UNL     1      48.026   8.514  18.748  0.00  0.00    +0.000 A 
ATOM     26  S   UNL     1      47.624   8.189  20.373  0.00  0.00    +0.000 S 
ATOM     27  C   UNL     1      48.214   6.598  20.258  0.00  0.00    +0.000 A 
ATOM     28  N   UNL     1      48.181   5.761  21.330  0.00  0.00    +0.000 NA
ATOM     29  C   UNL     1      48.688   4.594  21.110  0.00  0.00    +0.000 A 
ATOM     30  N   UNL     1      49.222   4.186  19.913  0.00  0.00    +0.000 N 
ATOM     31  C   UNL     1      49.252   4.989  18.794  0.00  0.00    +0.000 A 
ATOM     32  O   UNL     1      49.704   4.581  17.731  0.00  0.00    +0.000 OA
ATOM     33  C   UNL     1      48.698   6.313  18.992  0.00  0.00    +0.000 A 
ATOM     34  H   UNL     1      49.601   3.257  19.808  0.00  0.00    +0.000 HD
ENDBRANCH  21  24
ENDBRANCH  19  20
ENDBRANCH   4  19
TORSDOF 8
ENDMDL
MODEL 7
REMARK VINA RESULT:    -7.279      3.045      8.947
REMARK INTER + INTRA:         -11.686
REMARK INTER:                  -9.662
REMARK INTRA:                  -2.024
REMARK UNBOUND:                -1.004
REMARK  Name = 
REMARK  9 active torsions:
REMARK  status: ('A' for Active; 'I' for Inactive)
REMARK    1  A    between atoms: C_1  and  C_2
REMARK    2  A    between atoms: C_2  and  C_3
REMARK    3  A    between atoms: C_2  and  N_10
REMARK    4  A    between atoms: C_3  and  C_4
REMARK    5  A    between atoms: N_10  and  C_11
REMARK    6  A    between atoms: C_11  and  C_12
REMARK    7  A    between atoms: C_15  and  C_16
REMARK    8  A    between atoms: C_16  and  N_17
REMARK    9  A    between atoms: C_18  and  C_20
REMARK                            x       y       z     vdW  Elec       q    Type
REMARK                         _______ _______ _______ _____ _____    ______ ____
ROOT
ATOM      1  C   UNL     1      50.319   7.290  15.170  0.00  0.00    +0.000 A 
ATOM      2  C   UNL     1      50.687   7.973  14.003  0.00  0.00    +0.000 A 
ATOM      3  C   UNL     1      49.776   8.138  12.958  0.00  0.00    +0.000 A 
ATOM      4  C   UNL     1      48.480   7.616  13.059  0.00  0.00    +0.000 A 
ATOM      5  C   UNL     1      48.120   6.907  14.211  0.00  0.00    +0.000 A 
ATOM      6  C   UNL     1      49.027   6.754  15.261  0.00  0.00    +0.000 A 
ENDROOT
BRANCH   1   7
ATOM      7  C   UNL     1      51.299   7.113  16.307  0.00  0.00    +0.000 C 
BRANCH   7   8
ATOM      8  N   UNL     1      51.393   5.707  16.706  0.00  0.00    +0.000 NA
ATOM      9  H   UNL     1      50.452   5.315  16.657  0.00  0.00    +0.000 HD
BRANCH   8  11
ATOM     10  C   UNL     1      53.255   4.811  18.069  0.00  0.00    +0.000 C 
ATOM     11  C   UNL     1      51.894   5.518  18.081  0.00  0.00    +0.000 C 
BRANCH  11  12
ATOM     12  C   UNL     1      50.898   4.672  18.914  0.00  0.00    +0.000 C 
BRANCH  12  13
ATOM     13  C   UNL     1      49.621   4.340  18.180  0.00  0.00    +0.000 A 
ATOM     14  C   UNL     1      48.436   5.008  18.486  0.00  0.00    +0.000 A 
ATOM     15  C   UNL     1      47.267   4.648  17.821  0.00  0.00    +0.000 A 
ATOM     16  C   UNL     1      47.313   3.648  16.860  0.00  0.00    +0.000 A 
ATOM     17  C   UNL     1      48.532   3.042  16.607  0.00  0.00    +0.000 A 
ATOM     18  N   UNL     1      49.679   3.355  17.249  0.00  0.00    +0.000 NA
ENDBRANCH  12  13
ENDBRANCH  11  12
ENDBRANCH   8  11
ENDBRANCH   7   8
ENDBRANCH   1   7
BRANCH   4  19
ATOM     19  C   UNL     1      47.509   7.748  11.918  0.00  0.00    +0.000 C 
BRANCH  19  20
ATOM     20  N   UNL     1      46.824   6.501  11.699  0.00  0.00    +0.000 N 
ATOM     21  C   UNL     1      45.458   6.435  11.655  0.00  0.00    +0.000 C 
ATOM     22  O   UNL     1      44.753   7.435  11.770  0.00  0.00    +0.000 OA
ATOM     23  H   UNL     1      47.366   5.651  11.821  0.00  0.00    +0.000 HD
BRANCH  21  24
ATOM     24  C   UNL     1      44.878   5.114  11.388  0.00  0.00    +0.000 A 
ATOM     25  C   UNL     1      44.134   4.481  12.373  0.00  0.00    +0.000 A 
ATOM     26  S   UNL     1      43.471   2.990  11.877  0.00  0.00    +0.000 S 
ATOM     27  C   UNL     1      44.201   3.113  10.345  0.00  0.00    +0.000 A 
ATOM     28  N   UNL     1      44.042   2.133   9.415  0.00  0.00    +0.000 NA
ATOM     29  C   UNL     1      44.674   2.341   8.310  0.00  0.00    +0.000 A 
ATOM     30  N   UNL     1      45.450   3.443   8.047  0.00  0.00    +0.000 N 
ATOM     31  C   UNL     1      45.618   4.472   8.947  0.00  0.00    +0.000 A 
ATOM     32  O   UNL     1      46.288   5.458   8.668  0.00  0.00    +0.000 OA
ATOM     33  C   UNL     1      44.930   4.282  10.208  0.00  0.00    +0.000 A 
ATOM     34  H   UNL     1      45.916   3.545   7.159  0.00  0.00    +0.000 HD
ENDBRANCH  21  24
ENDBRANCH  19  20
ENDBRANCH   4  19
TORSDOF 8
ENDMDL
MODEL 8
REMARK VINA RESULT:    -7.192      4.196      9.882
REMARK INTER + INTRA:         -11.559
REMARK INTER:                  -8.882
REMARK INTRA:                  -2.677
REMARK UNBOUND:                -1.004
REMARK  Name = 
REMARK  9 active torsions:
REMARK  status: ('A' for Active; 'I' for Inactive)
REMARK    1  A    between atoms: C_1  and  C_2
REMARK    2  A    between atoms: C_2  and  C_3
REMARK    3  A    between atoms: C_2  and  N_10
REMARK    4  A    between atoms: C_3  and  C_4
REMARK    5  A    between atoms: N_10  and  C_11
REMARK    6  A    between atoms: C_11  and  C_12
REMARK    7  A    between atoms: C_15  and  C_16
REMARK    8  A    between atoms: C_16  and  N_17
REMARK    9  A    between atoms: C_18  and  C_20
REMARK                            x       y       z     vdW  Elec       q    Type
REMARK                         _______ _______ _______ _____ _____    ______ ____
ROOT
ATOM      1  C   UNL     1      48.835   5.687  20.202  0.00  0.00    +0.000 A 
ATOM      2  C   UNL     1      48.278   6.398  19.130  0.00  0.00    +0.000 A 
ATOM      3  C   UNL     1      47.793   5.724  18.007  0.00  0.00    +0.000 A 
ATOM      4  C   UNL     1      47.862   4.328  17.932  0.00  0.00    +0.000 A 
ATOM      5  C   UNL     1      48.445   3.618  18.989  0.00  0.00    +0.000 A 
ATOM      6  C   UNL     1      48.918   4.290  20.117  0.00  0.00    +0.000 A 
ENDROOT
BRANCH   1   7
ATOM      7  C   UNL     1      49.356   6.408  21.424  0.00  0.00    +0.000 C 
BRANCH   7   8
ATOM      8  N   UNL     1      50.794   6.187  21.590  0.00  0.00    +0.000 NA
ATOM      9  H   UNL     1      50.939   5.830  22.535  0.00  0.00    +0.000 HD
BRANCH   8  11
ATOM     10  C   UNL     1      50.712   8.596  21.025  0.00  0.00    +0.000 C 
ATOM     11  C   UNL     1      51.599   7.415  21.440  0.00  0.00    +0.000 C 
BRANCH  11  12
ATOM     12  C   UNL     1      52.703   7.218  20.370  0.00  0.00    +0.000 C 
BRANCH  12  13
ATOM     13  C   UNL     1      52.402   6.114  19.384  0.00  0.00    +0.000 A 
ATOM     14  C   UNL     1      51.837   6.409  18.144  0.00  0.00    +0.000 A 
ATOM     15  C   UNL     1      51.533   5.365  17.275  0.00  0.00    +0.000 A 
ATOM     16  C   UNL     1      51.814   4.060  17.656  0.00  0.00    +0.000 A 
ATOM     17  C   UNL     1      52.386   3.853  18.900  0.00  0.00    +0.000 A 
ATOM     18  N   UNL     1      52.675   4.844  19.773  0.00  0.00    +0.000 NA
ENDBRANCH  12  13
ENDBRANCH  11  12
ENDBRANCH   8  11
ENDBRANCH   7   8
ENDBRANCH   1   7
BRANCH   4  19
ATOM     19  C   UNL     1      47.385   3.600  16.705  0.00  0.00    +0.000 C 
BRANCH  19  20
ATOM     20  N   UNL     1      46.854   4.532  15.746  0.00  0.00    +0.000 N 
ATOM     21  C   UNL     1      46.802   4.232  14.412  0.00  0.00    +0.000 C 
ATOM     22  O   UNL     1      47.179   3.148  13.973  0.00  0.00    +0.000 OA
ATOM     23  H   UNL     1      46.746   5.495  16.051  0.00  0.00    +0.000 HD
BRANCH  21  24
ATOM     24  C   UNL     1      46.205   5.248  13.539  0.00  0.00    +0.000 A 
ATOM     25  C   UNL     1      46.893   6.426  13.287  0.00  0.00    +0.000 A 
ATOM     26  S   UNL     1      46.095   7.465  12.196  0.00  0.00    +0.000 S 
ATOM     27  C   UNL     1      44.773   6.402  12.065  0.00  0.00    +0.000 A 
ATOM     28  N   UNL     1      43.706   6.706  11.278  0.00  0.00    +0.000 NA
ATOM     29  C   UNL     1      42.763   5.826  11.295  0.00  0.00    +0.000 A 
ATOM     30  N   UNL     1      42.791   4.663  12.026  0.00  0.00    +0.000 N 
ATOM     31  C   UNL     1      43.861   4.300  12.815  0.00  0.00    +0.000 A 
ATOM     32  O   UNL     1      43.869   3.239  13.427  0.00  0.00    +0.000 OA
ATOM     33  C   UNL     1      44.945   5.262  12.832  0.00  0.00    +0.000 A 
ATOM     34  H   UNL     1      42.020   4.015  11.992  0.00  0.00    +0.000 HD
ENDBRANCH  21  24
ENDBRANCH  19  20
ENDBRANCH   4  19
TORSDOF 8
ENDMDL
MODEL 9
REMARK VINA RESULT:    -7.154      3.883      9.629
REMARK INTER + INTRA:         -11.503
REMARK INTER:                  -8.833
REMARK INTRA:                  -2.670
REMARK UNBOUND:                -1.004
REMARK  Name = 
REMARK  9 active torsions:
REMARK  status: ('A' for Active; 'I' for Inactive)
REMARK    1  A    between atoms: C_1  and  C_2
REMARK    2  A    between atoms: C_2  and  C_3
REMARK    3  A    between atoms: C_2  and  N_10
REMARK    4  A    between atoms: C_3  and  C_4
REMARK    5  A    between atoms: N_10  and  C_11
REMARK    6  A    between atoms: C_11  and  C_12
REMARK    7  A    between atoms: C_15  and  C_16
REMARK    8  A    between atoms: C_16  and  N_17
REMARK    9  A    between atoms: C_18  and  C_20
REMARK                            x       y       z     vdW  Elec       q    Type
REMARK                         _______ _______ _______ _____ _____    ______ ____
ROOT
ATOM      1  C   UNL     1      50.180   4.991  17.479  0.00  0.00    +0.000 A 
ATOM      2  C   UNL     1      48.859   4.810  17.046  0.00  0.00    +0.000 A 
ATOM      3  C   UNL     1      48.310   5.646  16.071  0.00  0.00    +0.000 A 
ATOM      4  C   UNL     1      49.070   6.682  15.515  0.00  0.00    +0.000 A 
ATOM      5  C   UNL     1      50.380   6.883  15.968  0.00  0.00    +0.000 A 
ATOM      6  C   UNL     1      50.932   6.040  16.933  0.00  0.00    +0.000 A 
ENDROOT
BRANCH   1   7
ATOM      7  C   UNL     1      50.782   4.087  18.530  0.00  0.00    +0.000 C 
BRANCH   7   8
ATOM      8  N   UNL     1      50.201   4.354  19.847  0.00  0.00    +0.000 NA
ATOM      9  H   UNL     1      49.257   4.709  19.696  0.00  0.00    +0.000 HD
BRANCH   8  11
ATOM     10  C   UNL     1      51.757   4.691  21.743  0.00  0.00    +0.000 C 
ATOM     11  C   UNL     1      50.947   5.361  20.626  0.00  0.00    +0.000 C 
BRANCH  11  12
ATOM     12  C   UNL     1      49.978   6.391  21.258  0.00  0.00    +0.000 C 
BRANCH  12  13
ATOM     13  C   UNL     1      49.318   7.302  20.250  0.00  0.00    +0.000 A 
ATOM     14  C   UNL     1      47.984   7.110  19.892  0.00  0.00    +0.000 A 
ATOM     15  C   UNL     1      47.417   7.940  18.929  0.00  0.00    +0.000 A 
ATOM     16  C   UNL     1      48.187   8.947  18.362  0.00  0.00    +0.000 A 
ATOM     17  C   UNL     1      49.500   9.078  18.781  0.00  0.00    +0.000 A 
ATOM     18  N   UNL     1      50.084   8.276  19.699  0.00  0.00    +0.000 NA
ENDBRANCH  12  13
ENDBRANCH  11  12
ENDBRANCH   8  11
ENDBRANCH   7   8
ENDBRANCH   1   7
BRANCH   4  19
ATOM     19  C   UNL     1      48.470   7.615  14.500  0.00  0.00    +0.000 C 
BRANCH  19  20
ATOM     20  N   UNL     1      47.230   7.081  14.001  0.00  0.00    +0.000 N 
ATOM     21  C   UNL     1      46.940   7.079  12.664  0.00  0.00    +0.000 C 
ATOM     22  O   UNL     1      47.730   7.505  11.825  0.00  0.00    +0.000 OA
ATOM     23  H   UNL     1      46.488   6.932  14.678  0.00  0.00    +0.000 HD
BRANCH  21  24
ATOM     24  C   UNL     1      45.662   6.474  12.276  0.00  0.00    +0.000 A 
ATOM     25  C   UNL     1      44.664   7.269  11.732  0.00  0.00    +0.000 A 
ATOM     26  S   UNL     1      43.272   6.399  11.267  0.00  0.00    +0.000 S 
ATOM     27  C   UNL     1      43.934   4.935  11.828  0.00  0.00    +0.000 A 
ATOM     28  N   UNL     1      43.233   3.773  11.741  0.00  0.00    +0.000 NA
ATOM     29  C   UNL     1      43.842   2.746  12.230  0.00  0.00    +0.000 A 
ATOM     30  N   UNL     1      45.092   2.774  12.797  0.00  0.00    +0.000 N 
ATOM     31  C   UNL     1      45.850   3.922  12.883  0.00  0.00    +0.000 A 
ATOM     32  O   UNL     1      46.976   3.906  13.363  0.00  0.00    +0.000 OA
ATOM     33  C   UNL     1      45.205   5.105  12.350  0.00  0.00    +0.000 A 
ATOM     34  H   UNL     1      45.513   1.932  13.160  0.00  0.00    +0.000 HD
ENDBRANCH  21  24
ENDBRANCH  19  20
ENDBRANCH   4  19
TORSDOF 8
ENDMDL
