MODEL 1
REMARK VINA RESULT:    -8.403      0.000      0.000
REMARK INTER + INTRA:         -13.151
REMARK INTER:                 -11.842
REMARK INTRA:                  -1.309
REMARK UNBOUND:                -1.309
REMARK  Name = 
REMARK  8 active torsions:
REMARK  status: ('A' for Active; 'I' for Inactive)
REMARK    1  A    between atoms: C_1  and  C_2
REMARK    2  A    between atoms: C_2  and  C_3
REMARK    3  A    between atoms: C_2  and  C_14
REMARK    4  A    between atoms: C_3  and  O_4
REMARK    5  A    between atoms: O_4  and  C_5
REMARK    6  A    between atoms: C_8  and  C_9
REMARK    7  A    between atoms: C_18  and  O_19
REMARK    8  A    between atoms: O_19  and  C_20
REMARK                            x       y       z     vdW  Elec       q    Type
REMARK                         _______ _______ _______ _____ _____    ______ ____
ROOT
ATOM      1  C   UNL     1      42.766   5.401  12.109  0.00  0.00    +0.000 C 
ATOM      2  C   UNL     1      43.764   4.408  12.718  0.00  0.00    +0.000 C 
ENDROOT
BRANCH   2   3
ATOM      3  C   UNL     1      45.130   5.051  12.880  0.00  0.00    +0.000 A 
ATOM      4  C   UNL     1      45.562   6.001  11.946  0.00  0.00    +0.000 A 
ATOM      5  C   UNL     1      46.847   6.534  12.025  0.00  0.00    +0.000 A 
ATOM      6  C   UNL     1      47.706   6.153  13.058  0.00  0.00    +0.000 A 
ATOM      7  C   UNL     1      47.267   5.267  14.043  0.00  0.00    +0.000 A 
ATOM      8  C   UNL     1      45.993   4.701  13.933  0.00  0.00    +0.000 A 
BRANCH   7   9
ATOM      9  O   UNL     1      47.977   4.888  15.156  0.00  0.00    +0.000 OA
BRANCH   9  10
ATOM     10  C   UNL     1      47.321   4.004  16.076  0.00  0.00    +0.000 C 
ATOM     11  C   UNL     1      47.266   4.669  17.438  0.00  0.00    +0.000 C 
ATOM     12  C   UNL     1      48.542   4.216  18.110  0.00  0.00    +0.000 C 
ATOM     13  O   UNL     1      48.871   2.933  17.575  0.00  0.00    +0.000 OA
ATOM     14  C   UNL     1      48.135   2.743  16.356  0.00  0.00    +0.000 C 
ENDBRANCH   9  10
ENDBRANCH   7   9
ENDBRANCH   2   3
BRANCH   2  15
ATOM     15  C   UNL     1      43.835   3.099  11.915  0.00  0.00    +0.000 C 
BRANCH  15  16
ATOM     16  O   UNL     1      43.428   3.361  10.566  0.00  0.00    +0.000 OA
BRANCH  16  17
ATOM     17  C   UNL     1      44.384   3.240   9.596  0.00  0.00    +0.000 A 
ATOM     18  C   UNL     1      44.932   4.286   8.852  0.00  0.00    +0.000 A 
ATOM     19  C   UNL     1      45.919   4.027   7.895  0.00  0.00    +0.000 A 
ATOM     20  C   UNL     1      46.370   2.723   7.676  0.00  0.00    +0.000 A 
ATOM     21  C   UNL     1      45.800   1.668   8.402  0.00  0.00    +0.000 A 
ATOM     22  C   UNL     1      44.816   1.933   9.356  0.00  0.00    +0.000 A 
BRANCH  20  23
ATOM     23  C   UNL     1      47.434   2.505   6.662  0.00  0.00    +0.000 C 
ATOM     24  N   UNL     1      47.322   3.175   5.475  0.00  0.00    +0.000 N 
ATOM     25  O   UNL     1      48.358   1.724   6.856  0.00  0.00    +0.000 OA
ATOM     26  H   UNL     1      46.465   3.619   5.182  0.00  0.00    +0.000 HD
ATOM     27  H   UNL     1      47.987   2.917   4.757  0.00  0.00    +0.000 HD
ENDBRANCH  20  23
ENDBRANCH  16  17
ENDBRANCH  15  16
ENDBRANCH   2  15
TORSDOF 7
ENDMDL
MODEL 2
REMARK VINA RESULT:    -7.332      2.258      3.780
REMARK INTER + INTRA:         -11.642
REMARK INTER:                 -10.417
REMARK INTRA:                  -1.225
REMARK UNBOUND:                -1.309
REMARK  Name = 
REMARK  8 active torsions:
REMARK  status: ('A' for Active; 'I' for Inactive)
REMARK    1  A    between atoms: C_1  and  C_2
REMARK    2  A    between atoms: C_2  and  C_3
REMARK    3  A    between atoms: C_2  and  C_14
REMARK    4  A    between atoms: C_3  and  O_4
REMARK    5  A    between atoms: O_4  and  C_5
REMARK    6  A    between atoms: C_8  and  C_9
REMARK    7  A    between atoms: C_18  and  O_19
REMARK    8  A    between atoms: O_19  and  C_20
REMARK                            x       y       z     vdW  Elec       q    Type
REMARK                         _______ _______ _______ _____ _____    ______ ____
ROOT
ATOM      1  C   UNL     1      42.576   5.735  12.029  0.00  0.00    +0.000 C 
ATOM      2  C   UNL     1      43.357   4.453  12.340  0.00  0.00    +0.000 C 
ENDROOT
BRANCH   2   3
ATOM      3  C   UNL     1      44.765   4.781  12.804  0.00  0.00    +0.000 A 
ATOM      4  C   UNL     1      45.638   3.742  13.151  0.00  0.00    +0.000 A 
ATOM      5  C   UNL     1      46.902   4.025  13.666  0.00  0.00    +0.000 A 
ATOM      6  C   UNL     1      47.325   5.348  13.808  0.00  0.00    +0.000 A 
ATOM      7  C   UNL     1      46.500   6.396  13.396  0.00  0.00    +0.000 A 
ATOM      8  C   UNL     1      45.216   6.107  12.922  0.00  0.00    +0.000 A 
BRANCH   7   9
ATOM      9  O   UNL     1      46.833   7.728  13.395  0.00  0.00    +0.000 OA
BRANCH   9  10
ATOM     10  C   UNL     1      46.954   8.367  12.116  0.00  0.00    +0.000 C 
ATOM     11  C   UNL     1      48.425   8.552  11.798  0.00  0.00    +0.000 C 
ATOM     12  C   UNL     1      48.747   9.914  12.368  0.00  0.00    +0.000 C 
ATOM     13  O   UNL     1      47.551  10.692  12.312  0.00  0.00    +0.000 OA
ATOM     14  C   UNL     1      46.436   9.805  12.132  0.00  0.00    +0.000 C 
ENDBRANCH   9  10
ENDBRANCH   7   9
ENDBRANCH   2   3
BRANCH   2  15
ATOM     15  C   UNL     1      43.355   3.476  11.152  0.00  0.00    +0.000 C 
BRANCH  15  16
ATOM     16  O   UNL     1      43.667   4.202   9.956  0.00  0.00    +0.000 OA
BRANCH  16  17
ATOM     17  C   UNL     1      44.614   3.660   9.133  0.00  0.00    +0.000 A 
ATOM     18  C   UNL     1      45.395   4.360   8.212  0.00  0.00    +0.000 A 
ATOM     19  C   UNL     1      46.344   3.685   7.437  0.00  0.00    +0.000 A 
ATOM     20  C   UNL     1      46.525   2.307   7.577  0.00  0.00    +0.000 A 
ATOM     21  C   UNL     1      45.722   1.598   8.481  0.00  0.00    +0.000 A 
ATOM     22  C   UNL     1      44.776   2.278   9.252  0.00  0.00    +0.000 A 
BRANCH  20  23
ATOM     23  C   UNL     1      47.560   1.642   6.744  0.00  0.00    +0.000 C 
ATOM     24  N   UNL     1      47.198   0.507   6.073  0.00  0.00    +0.000 N 
ATOM     25  O   UNL     1      48.710   2.064   6.688  0.00  0.00    +0.000 OA
ATOM     26  H   UNL     1      46.355  -0.004   6.289  0.00  0.00    +0.000 HD
ATOM     27  H   UNL     1      47.948   0.005   5.616  0.00  0.00    +0.000 HD
ENDBRANCH  20  23
ENDBRANCH  16  17
ENDBRANCH  15  16
ENDBRANCH   2  15
TORSDOF 7
ENDMDL
MODEL 3
REMARK VINA RESULT:    -7.134      1.564      2.110
REMARK INTER + INTRA:         -11.363
REMARK INTER:                 -10.257
REMARK INTRA:                  -1.106
REMARK UNBOUND:                -1.309
REMARK  Name = 
REMARK  8 active torsions:
REMARK  status: ('A' for Active; 'I' for Inactive)
REMARK    1  A    between atoms: C_1  and  C_2
REMARK    2  A    between atoms: C_2  and  C_3
REMARK    3  A    between atoms: C_2  and  C_14
REMARK    4  A    between atoms: C_3  and  O_4
REMARK    5  A    between atoms: O_4  and  C_5
REMARK    6  A    between atoms: C_8  and  C_9
REMARK    7  A    between atoms: C_18  and  O_19
REMARK    8  A    between atoms: O_19  and  C_20
REMARK                            x       y       z     vdW  Elec       q    Type
REMARK                         _______ _______ _______ _____ _____    ______ ____
ROOT
ATOM      1  C   UNL     1      43.568   4.284  13.468  0.00  0.00    +0.000 C 
ATOM      2  C   UNL     1      44.541   4.282  12.282  0.00  0.00    +0.000 C 
ENDROOT
BRANCH   2   3
ATOM      3  C   UNL     1      45.730   5.185  12.561  0.00  0.00    +0.000 A 
ATOM      4  C   UNL     1      46.120   6.129  11.603  0.00  0.00    +0.000 A 
ATOM      5  C   UNL     1      47.262   6.903  11.800  0.00  0.00    +0.000 A 
ATOM      6  C   UNL     1      48.009   6.771  12.972  0.00  0.00    +0.000 A 
ATOM      7  C   UNL     1      47.594   5.892  13.973  0.00  0.00    +0.000 A 
ATOM      8  C   UNL     1      46.473   5.086  13.750  0.00  0.00    +0.000 A 
BRANCH   7   9
ATOM      9  O   UNL     1      48.184   5.739  15.203  0.00  0.00    +0.000 OA
BRANCH   9  10
ATOM     10  C   UNL     1      49.221   6.669  15.547  0.00  0.00    +0.000 C 
ATOM     11  C   UNL     1      50.215   5.976  16.459  0.00  0.00    +0.000 C 
ATOM     12  C   UNL     1      49.683   6.252  17.846  0.00  0.00    +0.000 C 
ATOM     13  O   UNL     1      48.992   7.500  17.795  0.00  0.00    +0.000 OA
ATOM     14  C   UNL     1      48.712   7.814  16.422  0.00  0.00    +0.000 C 
ENDBRANCH   9  10
ENDBRANCH   7   9
ENDBRANCH   2   3
BRANCH   2  15
ATOM     15  C   UNL     1      43.840   4.645  10.963  0.00  0.00    +0.000 C 
BRANCH  15  16
ATOM     16  O   UNL     1      43.653   3.449  10.195  0.00  0.00    +0.000 OA
BRANCH  16  17
ATOM     17  C   UNL     1      44.629   3.135   9.292  0.00  0.00    +0.000 A 
ATOM     18  C   UNL     1      45.091   1.851   9.000  0.00  0.00    +0.000 A 
ATOM     19  C   UNL     1      46.091   1.664   8.039  0.00  0.00    +0.000 A 
ATOM     20  C   UNL     1      46.634   2.756   7.358  0.00  0.00    +0.000 A 
ATOM     21  C   UNL     1      46.191   4.049   7.670  0.00  0.00    +0.000 A 
ATOM     22  C   UNL     1      45.193   4.229   8.630  0.00  0.00    +0.000 A 
BRANCH  20  23
ATOM     23  C   UNL     1      47.678   2.500   6.333  0.00  0.00    +0.000 C 
ATOM     24  N   UNL     1      47.396   2.853   5.042  0.00  0.00    +0.000 N 
ATOM     25  O   UNL     1      48.739   1.955   6.616  0.00  0.00    +0.000 OA
ATOM     26  H   UNL     1      46.460   3.063   4.731  0.00  0.00    +0.000 HD
ATOM     27  H   UNL     1      48.068   2.556   4.346  0.00  0.00    +0.000 HD
ENDBRANCH  20  23
ENDBRANCH  16  17
ENDBRANCH  15  16
ENDBRANCH   2  15
TORSDOF 7
ENDMDL
MODEL 4
REMARK VINA RESULT:    -7.036      3.213      5.337
REMARK INTER + INTRA:         -11.224
REMARK INTER:                  -9.916
REMARK INTRA:                  -1.308
REMARK UNBOUND:                -1.309
REMARK  Name = 
REMARK  8 active torsions:
REMARK  status: ('A' for Active; 'I' for Inactive)
REMARK    1  A    between atoms: C_1  and  C_2
REMARK    2  A    between atoms: C_2  and  C_3
REMARK    3  A    between atoms: C_2  and  C_14
REMARK    4  A    between atoms: C_3  and  O_4
REMARK    5  A    between atoms: O_4  and  C_5
REMARK    6  A    between atoms: C_8  and  C_9
REMARK    7  A    between atoms: C_18  and  O_19
REMARK    8  A    between atoms: O_19  and  C_20
REMARK                            x       y       z     vdW  Elec       q    Type
REMARK                         _______ _______ _______ _____ _____    ______ ____
ROOT
ATOM      1  C   UNL     1      42.463   5.425  11.918  0.00  0.00    +0.000 C 
ATOM      2  C   UNL     1      43.811   4.988  12.504  0.00  0.00    +0.000 C 
ENDROOT
BRANCH   2   3
ATOM      3  C   UNL     1      44.868   6.055  12.276  0.00  0.00    +0.000 A 
ATOM      4  C   UNL     1      46.220   5.692  12.244  0.00  0.00    +0.000 A 
ATOM      5  C   UNL     1      47.209   6.667  12.128  0.00  0.00    +0.000 A 
ATOM      6  C   UNL     1      46.861   8.013  12.006  0.00  0.00    +0.000 A 
ATOM      7  C   UNL     1      45.517   8.388  11.957  0.00  0.00    +0.000 A 
ATOM      8  C   UNL     1      44.530   7.410  12.120  0.00  0.00    +0.000 A 
BRANCH   7   9
ATOM      9  O   UNL     1      45.045   9.660  11.747  0.00  0.00    +0.000 OA
BRANCH   9  10
ATOM     10  C   UNL     1      43.944   9.803  10.838  0.00  0.00    +0.000 C 
ATOM     11  C   UNL     1      44.368  10.707   9.696  0.00  0.00    +0.000 C 
ATOM     12  C   UNL     1      43.989  12.090  10.173  0.00  0.00    +0.000 C 
ATOM     13  O   UNL     1      42.866  11.946  11.043  0.00  0.00    +0.000 OA
ATOM     14  C   UNL     1      42.776  10.573  11.453  0.00  0.00    +0.000 C 
ENDBRANCH   9  10
ENDBRANCH   7   9
ENDBRANCH   2   3
BRANCH   2  15
ATOM     15  C   UNL     1      44.253   3.616  11.967  0.00  0.00    +0.000 C 
BRANCH  15  16
ATOM     16  O   UNL     1      43.697   3.431  10.659  0.00  0.00    +0.000 OA
BRANCH  16  17
ATOM     17  C   UNL     1      44.575   3.160   9.647  0.00  0.00    +0.000 A 
ATOM     18  C   UNL     1      45.000   1.891   9.250  0.00  0.00    +0.000 A 
ATOM     19  C   UNL     1      45.895   1.750   8.184  0.00  0.00    +0.000 A 
ATOM     20  C   UNL     1      46.369   2.874   7.502  0.00  0.00    +0.000 A 
ATOM     21  C   UNL     1      45.965   4.150   7.918  0.00  0.00    +0.000 A 
ATOM     22  C   UNL     1      45.072   4.284   8.982  0.00  0.00    +0.000 A 
BRANCH  20  23
ATOM     23  C   UNL     1      47.302   2.667   6.364  0.00  0.00    +0.000 C 
ATOM     24  N   UNL     1      48.523   2.118   6.640  0.00  0.00    +0.000 N 
ATOM     25  O   UNL     1      47.013   3.013   5.224  0.00  0.00    +0.000 OA
ATOM     26  H   UNL     1      48.890   2.058   7.578  0.00  0.00    +0.000 HD
ATOM     27  H   UNL     1      49.185   2.103   5.874  0.00  0.00    +0.000 HD
ENDBRANCH  20  23
ENDBRANCH  16  17
ENDBRANCH  15  16
ENDBRANCH   2  15
TORSDOF 7
ENDMDL
MODEL 5
REMARK VINA RESULT:    -6.717      2.869      7.585
REMARK INTER + INTRA:         -10.776
REMARK INTER:                  -9.752
REMARK INTRA:                  -1.024
REMARK UNBOUND:                -1.309
REMARK  Name = 
REMARK  8 active torsions:
REMARK  status: ('A' for Active; 'I' for Inactive)
REMARK    1  A    between atoms: C_1  and  C_2
REMARK    2  A    between atoms: C_2  and  C_3
REMARK    3  A    between atoms: C_2  and  C_14
REMARK    4  A    between atoms: C_3  and  O_4
REMARK    5  A    between atoms: O_4  and  C_5
REMARK    6  A    between atoms: C_8  and  C_9
REMARK    7  A    between atoms: C_18  and  O_19
REMARK    8  A    between atoms: O_19  and  C_20
REMARK                            x       y       z     vdW  Elec       q    Type
REMARK                         _______ _______ _______ _____ _____    ______ ____
ROOT
ATOM      1  C   UNL     1      45.510   8.407  12.690  0.00  0.00    +0.000 C 
ATOM      2  C   UNL     1      46.071   7.395  11.683  0.00  0.00    +0.000 C 
ENDROOT
BRANCH   2   3
ATOM      3  C   UNL     1      45.075   6.276  11.434  0.00  0.00    +0.000 A 
ATOM      4  C   UNL     1      43.713   6.496  11.678  0.00  0.00    +0.000 A 
ATOM      5  C   UNL     1      42.796   5.455  11.544  0.00  0.00    +0.000 A 
ATOM      6  C   UNL     1      43.220   4.190  11.132  0.00  0.00    +0.000 A 
ATOM      7  C   UNL     1      44.560   3.971  10.810  0.00  0.00    +0.000 A 
ATOM      8  C   UNL     1      45.483   5.007  10.989  0.00  0.00    +0.000 A 
BRANCH   7   9
ATOM      9  O   UNL     1      45.085   2.807  10.306  0.00  0.00    +0.000 OA
BRANCH   9  10
ATOM     10  C   UNL     1      44.649   2.409   8.998  0.00  0.00    +0.000 C 
ATOM     11  C   UNL     1      45.649   1.422   8.429  0.00  0.00    +0.000 C 
ATOM     12  C   UNL     1      46.639   2.296   7.694  0.00  0.00    +0.000 C 
ATOM     13  O   UNL     1      45.934   3.456   7.251  0.00  0.00    +0.000 OA
ATOM     14  C   UNL     1      44.706   3.556   7.990  0.00  0.00    +0.000 C 
ENDBRANCH   9  10
ENDBRANCH   7   9
ENDBRANCH   2   3
BRANCH   2  15
ATOM     15  C   UNL     1      47.446   6.858  12.114  0.00  0.00    +0.000 C 
BRANCH  15  16
ATOM     16  O   UNL     1      47.730   7.324  13.439  0.00  0.00    +0.000 OA
BRANCH  16  17
ATOM     17  C   UNL     1      47.862   6.375  14.414  0.00  0.00    +0.000 A 
ATOM     18  C   UNL     1      48.642   6.488  15.565  0.00  0.00    +0.000 A 
ATOM     19  C   UNL     1      48.678   5.444  16.496  0.00  0.00    +0.000 A 
ATOM     20  C   UNL     1      47.933   4.280  16.287  0.00  0.00    +0.000 A 
ATOM     21  C   UNL     1      47.171   4.154  15.117  0.00  0.00    +0.000 A 
ATOM     22  C   UNL     1      47.139   5.200  14.192  0.00  0.00    +0.000 A 
BRANCH  20  23
ATOM     23  C   UNL     1      47.991   3.211  17.316  0.00  0.00    +0.000 C 
ATOM     24  N   UNL     1      46.804   2.721  17.786  0.00  0.00    +0.000 N 
ATOM     25  O   UNL     1      49.058   2.806  17.765  0.00  0.00    +0.000 OA
ATOM     26  H   UNL     1      45.925   3.194  17.635  0.00  0.00    +0.000 HD
ATOM     27  H   UNL     1      46.867   2.086  18.572  0.00  0.00    +0.000 HD
ENDBRANCH  20  23
ENDBRANCH  16  17
ENDBRANCH  15  16
ENDBRANCH   2  15
TORSDOF 7
ENDMDL
MODEL 6
REMARK VINA RESULT:    -6.677      2.921      8.111
REMARK INTER + INTRA:         -10.718
REMARK INTER:                  -9.705
REMARK INTRA:                  -1.013
REMARK UNBOUND:                -1.309
REMARK  Name = 
REMARK  8 active torsions:
REMARK  status: ('A' for Active; 'I' for Inactive)
REMARK    1  A    between atoms: C_1  and  C_2
REMARK    2  A    between atoms: C_2  and  C_3
REMARK    3  A    between atoms: C_2  and  C_14
REMARK    4  A    between atoms: C_3  and  O_4
REMARK    5  A    between atoms: O_4  and  C_5
REMARK    6  A    between atoms: C_8  and  C_9
REMARK    7  A    between atoms: C_18  and  O_19
REMARK    8  A    between atoms: O_19  and  C_20
REMARK                            x       y       z     vdW  Elec       q    Type
REMARK                         _______ _______ _______ _____ _____    ______ ____
ROOT
ATOM      1  C   UNL     1      44.492   6.882  11.841  0.00  0.00    +0.000 C 
ATOM      2  C   UNL     1      45.570   6.334  10.900  0.00  0.00    +0.000 C 
ENDROOT
BRANCH   2   3
ATOM      3  C   UNL     1      45.138   5.005  10.304  0.00  0.00    +0.000 A 
ATOM      4  C   UNL     1      44.370   4.121  11.071  0.00  0.00    +0.000 A 
ATOM      5  C   UNL     1      44.041   2.860  10.576  0.00  0.00    +0.000 A 
ATOM      6  C   UNL     1      44.445   2.478   9.296  0.00  0.00    +0.000 A 
ATOM      7  C   UNL     1      45.145   3.374   8.486  0.00  0.00    +0.000 A 
ATOM      8  C   UNL     1      45.511   4.620   9.005  0.00  0.00    +0.000 A 
BRANCH   7   9
ATOM      9  O   UNL     1      45.515   3.156   7.182  0.00  0.00    +0.000 OA
BRANCH   9  10
ATOM     10  C   UNL     1      46.914   2.969   6.926  0.00  0.00    +0.000 C 
ATOM     11  C   UNL     1      47.155   3.065   5.431  0.00  0.00    +0.000 C 
ATOM     12  C   UNL     1      47.006   1.640   4.951  0.00  0.00    +0.000 C 
ATOM     13  O   UNL     1      47.393   0.786   6.028  0.00  0.00    +0.000 OA
ATOM     14  C   UNL     1      47.382   1.550   7.245  0.00  0.00    +0.000 C 
ENDBRANCH   9  10
ENDBRANCH   7   9
ENDBRANCH   2   3
BRANCH   2  15
ATOM     15  C   UNL     1      46.941   6.236  11.591  0.00  0.00    +0.000 C 
BRANCH  15  16
ATOM     16  O   UNL     1      46.874   6.920  12.849  0.00  0.00    +0.000 OA
BRANCH  16  17
ATOM     17  C   UNL     1      47.273   6.222  13.954  0.00  0.00    +0.000 A 
ATOM     18  C   UNL     1      48.225   6.639  14.885  0.00  0.00    +0.000 A 
ATOM     19  C   UNL     1      48.534   5.832  15.985  0.00  0.00    +0.000 A 
ATOM     20  C   UNL     1      47.890   4.605  16.169  0.00  0.00    +0.000 A 
ATOM     21  C   UNL     1      46.954   4.173  15.220  0.00  0.00    +0.000 A 
ATOM     22  C   UNL     1      46.651   4.982  14.123  0.00  0.00    +0.000 A 
BRANCH  20  23
ATOM     23  C   UNL     1      48.240   3.797  17.366  0.00  0.00    +0.000 C 
ATOM     24  N   UNL     1      47.310   2.902  17.817  0.00  0.00    +0.000 N 
ATOM     25  O   UNL     1      49.302   3.950  17.958  0.00  0.00    +0.000 OA
ATOM     26  H   UNL     1      46.346   2.926  17.520  0.00  0.00    +0.000 HD
ATOM     27  H   UNL     1      47.518   2.456  18.701  0.00  0.00    +0.000 HD
ENDBRANCH  20  23
ENDBRANCH  16  17
ENDBRANCH  15  16
ENDBRANCH   2  15
TORSDOF 7
ENDMDL
MODEL 7
REMARK VINA RESULT:    -6.238      2.782      4.695
REMARK INTER + INTRA:         -10.100
REMARK INTER:                  -8.940
REMARK INTRA:                  -1.160
REMARK UNBOUND:                -1.309
REMARK  Name = 
REMARK  8 active torsions:
REMARK  status: ('A' for Active; 'I' for Inactive)
REMARK    1  A    between atoms: C_1  and  C_2
REMARK    2  A    between atoms: C_2  and  C_3
REMARK    3  A    between atoms: C_2  and  C_14
REMARK    4  A    between atoms: C_3  and  O_4
REMARK    5  A    between atoms: O_4  and  C_5
REMARK    6  A    between atoms: C_8  and  C_9
REMARK    7  A    between atoms: C_18  and  O_19
REMARK    8  A    between atoms: O_19  and  C_20
REMARK                            x       y       z     vdW  Elec       q    Type
REMARK                         _______ _______ _______ _____ _____    ______ ____
ROOT
ATOM      1  C   UNL     1      49.154   7.490  11.929  0.00  0.00    +0.000 C 
ATOM      2  C   UNL     1      48.387   8.512  12.776  0.00  0.00    +0.000 C 
ENDROOT
BRANCH   2   3
ATOM      3  C   UNL     1      48.511   8.186  14.254  0.00  0.00    +0.000 A 
ATOM      4  C   UNL     1      48.184   9.159  15.207  0.00  0.00    +0.000 A 
ATOM      5  C   UNL     1      48.378   8.910  16.564  0.00  0.00    +0.000 A 
ATOM      6  C   UNL     1      48.867   7.674  16.992  0.00  0.00    +0.000 A 
ATOM      7  C   UNL     1      49.125   6.664  16.064  0.00  0.00    +0.000 A 
ATOM      8  C   UNL     1      48.972   6.935  14.700  0.00  0.00    +0.000 A 
BRANCH   7   9
ATOM      9  O   UNL     1      49.516   5.382  16.361  0.00  0.00    +0.000 OA
BRANCH   9  10
ATOM     10  C   UNL     1      48.537   4.527  16.968  0.00  0.00    +0.000 C 
ATOM     11  C   UNL     1      49.250   3.504  17.832  0.00  0.00    +0.000 C 
ATOM     12  C   UNL     1      49.492   2.346  16.890  0.00  0.00    +0.000 C 
ATOM     13  O   UNL     1      48.443   2.361  15.921  0.00  0.00    +0.000 OA
ATOM     14  C   UNL     1      47.813   3.652  15.947  0.00  0.00    +0.000 C 
ENDBRANCH   9  10
ENDBRANCH   7   9
ENDBRANCH   2   3
BRANCH   2  15
ATOM     15  C   UNL     1      46.919   8.638  12.336  0.00  0.00    +0.000 C 
BRANCH  15  16
ATOM     16  O   UNL     1      46.106   7.839  13.203  0.00  0.00    +0.000 OA
BRANCH  16  17
ATOM     17  C   UNL     1      45.683   6.633  12.718  0.00  0.00    +0.000 A 
ATOM     18  C   UNL     1      46.127   5.380  13.141  0.00  0.00    +0.000 A 
ATOM     19  C   UNL     1      45.599   4.217  12.569  0.00  0.00    +0.000 A 
ATOM     20  C   UNL     1      44.621   4.295  11.574  0.00  0.00    +0.000 A 
ATOM     21  C   UNL     1      44.195   5.554  11.129  0.00  0.00    +0.000 A 
ATOM     22  C   UNL     1      44.725   6.711  11.704  0.00  0.00    +0.000 A 
BRANCH  20  23
ATOM     23  C   UNL     1      44.080   3.029  11.015  0.00  0.00    +0.000 C 
ATOM     24  N   UNL     1      44.843   2.369  10.093  0.00  0.00    +0.000 N 
ATOM     25  O   UNL     1      42.973   2.607  11.331  0.00  0.00    +0.000 OA
ATOM     26  H   UNL     1      45.626   2.804   9.626  0.00  0.00    +0.000 HD
ATOM     27  H   UNL     1      44.402   1.581   9.636  0.00  0.00    +0.000 HD
ENDBRANCH  20  23
ENDBRANCH  16  17
ENDBRANCH  15  16
ENDBRANCH   2  15
TORSDOF 7
ENDMDL
MODEL 8
REMARK VINA RESULT:    -5.861      2.813      4.588
REMARK INTER + INTRA:          -9.568
REMARK INTER:                  -8.925
REMARK INTRA:                  -0.643
REMARK UNBOUND:                -1.309
REMARK  Name = 
REMARK  8 active torsions:
REMARK  status: ('A' for Active; 'I' for Inactive)
REMARK    1  A    between atoms: C_1  and  C_2
REMARK    2  A    between atoms: C_2  and  C_3
REMARK    3  A    between atoms: C_2  and  C_14
REMARK    4  A    between atoms: C_3  and  O_4
REMARK    5  A    between atoms: O_4  and  C_5
REMARK    6  A    between atoms: C_8  and  C_9
REMARK    7  A    between atoms: C_18  and  O_19
REMARK    8  A    between atoms: O_19  and  C_20
REMARK                            x       y       z     vdW  Elec       q    Type
REMARK                         _______ _______ _______ _____ _____    ______ ____
ROOT
ATOM      1  C   UNL     1      45.765   4.657   8.229  0.00  0.00    +0.000 C 
ATOM      2  C   UNL     1      45.005   3.472   8.838  0.00  0.00    +0.000 C 
ENDROOT
BRANCH   2   3
ATOM      3  C   UNL     1      44.640   3.754  10.285  0.00  0.00    +0.000 A 
ATOM      4  C   UNL     1      43.950   2.784  11.025  0.00  0.00    +0.000 A 
ATOM      5  C   UNL     1      43.526   3.059  12.323  0.00  0.00    +0.000 A 
ATOM      6  C   UNL     1      43.815   4.291  12.914  0.00  0.00    +0.000 A 
ATOM      7  C   UNL     1      44.567   5.240  12.222  0.00  0.00    +0.000 A 
ATOM      8  C   UNL     1      44.951   4.977  10.902  0.00  0.00    +0.000 A 
BRANCH   7   9
ATOM      9  O   UNL     1      44.996   6.445  12.722  0.00  0.00    +0.000 OA
BRANCH   9  10
ATOM     10  C   UNL     1      46.249   6.944  12.232  0.00  0.00    +0.000 C 
ATOM     11  C   UNL     1      47.364   6.056  12.749  0.00  0.00    +0.000 C 
ATOM     12  C   UNL     1      47.762   6.703  14.056  0.00  0.00    +0.000 C 
ATOM     13  O   UNL     1      47.498   8.102  13.934  0.00  0.00    +0.000 OA
ATOM     14  C   UNL     1      46.608   8.305  12.825  0.00  0.00    +0.000 C 
ENDBRANCH   9  10
ENDBRANCH   7   9
ENDBRANCH   2   3
BRANCH   2  15
ATOM     15  C   UNL     1      45.781   2.153   8.686  0.00  0.00    +0.000 C 
BRANCH  15  16
ATOM     16  O   UNL     1      46.915   2.378   7.839  0.00  0.00    +0.000 OA
BRANCH  16  17
ATOM     17  C   UNL     1      46.931   1.723   6.640  0.00  0.00    +0.000 A 
ATOM     18  C   UNL     1      46.922   2.322   5.379  0.00  0.00    +0.000 A 
ATOM     19  C   UNL     1      46.956   1.533   4.225  0.00  0.00    +0.000 A 
ATOM     20  C   UNL     1      47.003   0.139   4.318  0.00  0.00    +0.000 A 
ATOM     21  C   UNL     1      46.983  -0.465   5.583  0.00  0.00    +0.000 A 
ATOM     22  C   UNL     1      46.950   0.328   6.732  0.00  0.00    +0.000 A 
BRANCH  20  23
ATOM     23  C   UNL     1      47.058  -0.651   3.061  0.00  0.00    +0.000 C 
ATOM     24  N   UNL     1      46.411  -1.856   3.044  0.00  0.00    +0.000 N 
ATOM     25  O   UNL     1      47.692  -0.266   2.086  0.00  0.00    +0.000 OA
ATOM     26  H   UNL     1      46.101  -2.316   3.887  0.00  0.00    +0.000 HD
ATOM     27  H   UNL     1      46.567  -2.430   2.225  0.00  0.00    +0.000 HD
ENDBRANCH  20  23
ENDBRANCH  16  17
ENDBRANCH  15  16
ENDBRANCH   2  15
TORSDOF 7
ENDMDL
MODEL 9
REMARK VINA RESULT:    -5.765      3.640      8.352
REMARK INTER + INTRA:          -9.434
REMARK INTER:                  -8.577
REMARK INTRA:                  -0.857
REMARK UNBOUND:                -1.309
REMARK  Name = 
REMARK  8 active torsions:
REMARK  status: ('A' for Active; 'I' for Inactive)
REMARK    1  A    between atoms: C_1  and  C_2
REMARK    2  A    between atoms: C_2  and  C_3
REMARK    3  A    between atoms: C_2  and  C_14
REMARK    4  A    between atoms: C_3  and  O_4
REMARK    5  A    between atoms: O_4  and  C_5
REMARK    6  A    between atoms: C_8  and  C_9
REMARK    7  A    between atoms: C_18  and  O_19
REMARK    8  A    between atoms: O_19  and  C_20
REMARK                            x       y       z     vdW  Elec       q    Type
REMARK                         _______ _______ _______ _____ _____    ______ ____
ROOT
ATOM      1  C   UNL     1      48.596   8.185  16.069  0.00  0.00    +0.000 C 
ATOM      2  C   UNL     1      48.869   6.830  15.405  0.00  0.00    +0.000 C 
ENDROOT
BRANCH   2   3
ATOM      3  C   UNL     1      48.218   6.762  14.034  0.00  0.00    +0.000 A 
ATOM      4  C   UNL     1      48.546   7.720  13.066  0.00  0.00    +0.000 A 
ATOM      5  C   UNL     1      47.892   7.729  11.835  0.00  0.00    +0.000 A 
ATOM      6  C   UNL     1      46.929   6.763  11.540  0.00  0.00    +0.000 A 
ATOM      7  C   UNL     1      46.644   5.754  12.461  0.00  0.00    +0.000 A 
ATOM      8  C   UNL     1      47.270   5.776  13.712  0.00  0.00    +0.000 A 
BRANCH   7   9
ATOM      9  O   UNL     1      45.792   4.697  12.257  0.00  0.00    +0.000 OA
BRANCH   9  10
ATOM     10  C   UNL     1      44.516   4.994  11.674  0.00  0.00    +0.000 C 
ATOM     11  C   UNL     1      43.433   4.335  12.506  0.00  0.00    +0.000 C 
ATOM     12  C   UNL     1      43.266   2.975  11.866  0.00  0.00    +0.000 C 
ATOM     13  O   UNL     1      43.597   3.113  10.484  0.00  0.00    +0.000 OA
ATOM     14  C   UNL     1      44.330   4.335  10.308  0.00  0.00    +0.000 C 
ENDBRANCH   9  10
ENDBRANCH   7   9
ENDBRANCH   2   3
BRANCH   2  15
ATOM     15  C   UNL     1      48.445   5.654  16.302  0.00  0.00    +0.000 C 
BRANCH  15  16
ATOM     16  O   UNL     1      49.263   5.652  17.478  0.00  0.00    +0.000 OA
BRANCH  16  17
ATOM     17  C   UNL     1      50.189   4.652  17.586  0.00  0.00    +0.000 A 
ATOM     18  C   UNL     1      51.534   4.815  17.919  0.00  0.00    +0.000 A 
ATOM     19  C   UNL     1      52.376   3.702  18.011  0.00  0.00    +0.000 A 
ATOM     20  C   UNL     1      51.882   2.416  17.775  0.00  0.00    +0.000 A 
ATOM     21  C   UNL     1      50.537   2.254  17.412  0.00  0.00    +0.000 A 
ATOM     22  C   UNL     1      49.702   3.369  17.323  0.00  0.00    +0.000 A 
BRANCH  20  23
ATOM     23  C   UNL     1      52.814   1.266  17.905  0.00  0.00    +0.000 C 
ATOM     24  N   UNL     1      52.674   0.236  17.016  0.00  0.00    +0.000 N 
ATOM     25  O   UNL     1      53.651   1.214  18.799  0.00  0.00    +0.000 OA
ATOM     26  H   UNL     1      51.853   0.125  16.441  0.00  0.00    +0.000 HD
ATOM     27  H   UNL     1      53.234  -0.586  17.201  0.00  0.00    +0.000 HD
ENDBRANCH  20  23
ENDBRANCH  16  17
ENDBRANCH  15  16
ENDBRANCH   2  15
TORSDOF 7
ENDMDL
