MODEL 1
REMARK VINA RESULT:    -8.263      0.000      0.000
REMARK INTER + INTRA:         -13.114
REMARK INTER:                 -11.886
REMARK INTRA:                  -1.228
REMARK UNBOUND:                -1.228
REMARK  Name = 
REMARK  8 active torsions:
REMARK  status: ('A' for Active; 'I' for Inactive)
REMARK    1  A    between atoms: N_1  and  C_2
REMARK    2  A    between atoms: C_2  and  C_3
REMARK    3  A    between atoms: C_2  and  C_24
REMARK    4  A    between atoms: C_3  and  C_4
REMARK    5  A    between atoms: C_8  and  C_9
REMARK    6  A    between atoms: C_9  and  N_10
REMARK    7  A    between atoms: C_11  and  C_13
REMARK    8  A    between atoms: C_24  and  C_26
REMARK                            x       y       z     vdW  Elec       q    Type
REMARK                         _______ _______ _______ _____ _____    ______ ____
ROOT
ATOM      1  C   UNL     1      45.266   6.674  12.190  0.00  0.00    +0.000 A 
ATOM      2  C   UNL     1      44.538   7.655  11.505  0.00  0.00    +0.000 A 
ATOM      3  C   UNL     1      44.941   8.989  11.544  0.00  0.00    +0.000 A 
ATOM      4  C   UNL     1      46.057   9.362  12.294  0.00  0.00    +0.000 A 
ATOM      5  C   UNL     1      46.782   8.403  13.010  0.00  0.00    +0.000 A 
ATOM      6  C   UNL     1      46.412   7.054  12.905  0.00  0.00    +0.000 A 
ENDROOT
BRANCH   1   7
ATOM      7  C   UNL     1      44.770   5.245  12.243  0.00  0.00    +0.000 C 
BRANCH   7   8
ATOM      8  C   UNL     1      43.676   4.901  11.206  0.00  0.00    +0.000 C 
BRANCH   8   9
ATOM      9  N   UNL     1      42.306   5.014  11.753  0.00  0.00    +0.000 NA
ATOM     10  H   UNL     1      41.997   4.113  12.106  0.00  0.00    +0.000 HD
ATOM     11  H   UNL     1      41.686   5.237  10.966  0.00  0.00    +0.000 HD
ENDBRANCH   8   9
BRANCH   8  12
ATOM     12  C   UNL     1      43.860   3.485  10.614  0.00  0.00    +0.000 C 
ATOM     13  O   UNL     1      43.273   2.503  11.074  0.00  0.00    +0.000 OA
BRANCH  12  14
ATOM     14  C   UNL     1      44.792   3.281   9.468  0.00  0.00    +0.000 A 
ATOM     15  C   UNL     1      45.310   2.042   9.083  0.00  0.00    +0.000 A 
ATOM     16  C   UNL     1      46.218   1.971   8.024  0.00  0.00    +0.000 A 
ATOM     17  C   UNL     1      46.567   3.140   7.371  0.00  0.00    +0.000 A 
ATOM     18  N   UNL     1      46.071   4.349   7.698  0.00  0.00    +0.000 NA
ATOM     19  C   UNL     1      45.199   4.394   8.739  0.00  0.00    +0.000 A 
ENDBRANCH  12  14
ENDBRANCH   8  12
ENDBRANCH   7   8
ENDBRANCH   1   7
BRANCH   5  20
ATOM     20  C   UNL     1      47.906   8.812  13.927  0.00  0.00    +0.000 C 
BRANCH  20  21
ATOM     21  N   UNL     1      48.015   7.946  15.069  0.00  0.00    +0.000 N 
ATOM     22  C   UNL     1      49.201   7.314  15.355  0.00  0.00    +0.000 C 
ATOM     23  O   UNL     1      50.216   7.495  14.693  0.00  0.00    +0.000 OA
ATOM     24  H   UNL     1      47.150   7.585  15.457  0.00  0.00    +0.000 HD
BRANCH  22  25
ATOM     25  C   UNL     1      49.204   6.452  16.543  0.00  0.00    +0.000 A 
ATOM     26  C   UNL     1      49.942   6.823  17.661  0.00  0.00    +0.000 A 
ATOM     27  S   UNL     1      49.800   5.733  18.965  0.00  0.00    +0.000 S 
ATOM     28  C   UNL     1      48.790   4.701  18.064  0.00  0.00    +0.000 A 
ATOM     29  N   UNL     1      48.323   3.540  18.596  0.00  0.00    +0.000 NA
ATOM     30  C   UNL     1      47.593   2.841  17.792  0.00  0.00    +0.000 A 
ATOM     31  N   UNL     1      47.282   3.201  16.507  0.00  0.00    +0.000 N 
ATOM     32  C   UNL     1      47.704   4.380  15.938  0.00  0.00    +0.000 A 
ATOM     33  O   UNL     1      47.363   4.693  14.802  0.00  0.00    +0.000 OA
ATOM     34  C   UNL     1      48.544   5.194  16.793  0.00  0.00    +0.000 A 
ATOM     35  H   UNL     1      46.695   2.616  15.932  0.00  0.00    +0.000 HD
ENDBRANCH  22  25
ENDBRANCH  20  21
ENDBRANCH   5  20
TORSDOF 8
ENDMDL
MODEL 2
REMARK VINA RESULT:    -7.754      1.680      2.160
REMARK INTER + INTRA:         -12.381
REMARK INTER:                 -11.154
REMARK INTRA:                  -1.227
REMARK UNBOUND:                -1.228
REMARK  Name = 
REMARK  8 active torsions:
REMARK  status: ('A' for Active; 'I' for Inactive)
REMARK    1  A    between atoms: N_1  and  C_2
REMARK    2  A    between atoms: C_2  and  C_3
REMARK    3  A    between atoms: C_2  and  C_24
REMARK    4  A    between atoms: C_3  and  C_4
REMARK    5  A    between atoms: C_8  and  C_9
REMARK    6  A    between atoms: C_9  and  N_10
REMARK    7  A    between atoms: C_11  and  C_13
REMARK    8  A    between atoms: C_24  and  C_26
REMARK                            x       y       z     vdW  Elec       q    Type
REMARK                         _______ _______ _______ _____ _____    ______ ____
ROOT
ATOM      1  C   UNL     1      45.421   6.416  12.439  0.00  0.00    +0.000 A 
ATOM      2  C   UNL     1      44.857   7.487  11.733  0.00  0.00    +0.000 A 
ATOM      3  C   UNL     1      45.427   8.757  11.806  0.00  0.00    +0.000 A 
ATOM      4  C   UNL     1      46.546   8.979  12.609  0.00  0.00    +0.000 A 
ATOM      5  C   UNL     1      47.108   7.930  13.346  0.00  0.00    +0.000 A 
ATOM      6  C   UNL     1      46.572   6.641  13.209  0.00  0.00    +0.000 A 
ENDROOT
BRANCH   1   7
ATOM      7  C   UNL     1      44.743   5.063  12.454  0.00  0.00    +0.000 C 
BRANCH   7   8
ATOM      8  C   UNL     1      43.713   4.843  11.322  0.00  0.00    +0.000 C 
BRANCH   8   9
ATOM      9  N   UNL     1      42.314   5.005  11.774  0.00  0.00    +0.000 NA
ATOM     10  H   UNL     1      42.107   4.336  12.512  0.00  0.00    +0.000 HD
ATOM     11  H   UNL     1      41.711   4.749  10.984  0.00  0.00    +0.000 HD
ENDBRANCH   8   9
BRANCH   8  12
ATOM     12  C   UNL     1      43.864   3.455  10.659  0.00  0.00    +0.000 C 
ATOM     13  O   UNL     1      43.261   2.464  11.075  0.00  0.00    +0.000 OA
BRANCH  12  14
ATOM     14  C   UNL     1      44.784   3.289   9.497  0.00  0.00    +0.000 A 
ATOM     15  C   UNL     1      45.281   2.062   9.052  0.00  0.00    +0.000 A 
ATOM     16  C   UNL     1      46.179   2.026   7.984  0.00  0.00    +0.000 A 
ATOM     17  C   UNL     1      46.541   3.218   7.381  0.00  0.00    +0.000 A 
ATOM     18  N   UNL     1      46.065   4.418   7.767  0.00  0.00    +0.000 NA
ATOM     19  C   UNL     1      45.202   4.429   8.816  0.00  0.00    +0.000 A 
ENDBRANCH  12  14
ENDBRANCH   8  12
ENDBRANCH   7   8
ENDBRANCH   1   7
BRANCH   5  20
ATOM     20  C   UNL     1      48.232   8.185  14.316  0.00  0.00    +0.000 C 
BRANCH  20  21
ATOM     21  N   UNL     1      48.077   7.436  15.533  0.00  0.00    +0.000 N 
ATOM     22  C   UNL     1      49.098   6.644  16.001  0.00  0.00    +0.000 C 
ATOM     23  O   UNL     1      50.186   6.581  15.442  0.00  0.00    +0.000 OA
ATOM     24  H   UNL     1      47.128   7.270  15.853  0.00  0.00    +0.000 HD
BRANCH  22  25
ATOM     25  C   UNL     1      48.835   5.923  17.252  0.00  0.00    +0.000 A 
ATOM     26  C   UNL     1      49.010   4.545  17.301  0.00  0.00    +0.000 A 
ATOM     27  S   UNL     1      48.704   3.873  18.839  0.00  0.00    +0.000 S 
ATOM     28  C   UNL     1      48.276   5.391  19.477  0.00  0.00    +0.000 A 
ATOM     29  N   UNL     1      47.873   5.518  20.770  0.00  0.00    +0.000 NA
ATOM     30  C   UNL     1      47.551   6.721  21.113  0.00  0.00    +0.000 A 
ATOM     31  N   UNL     1      47.602   7.809  20.282  0.00  0.00    +0.000 N 
ATOM     32  C   UNL     1      48.033   7.735  18.978  0.00  0.00    +0.000 A 
ATOM     33  O   UNL     1      48.114   8.740  18.280  0.00  0.00    +0.000 OA
ATOM     34  C   UNL     1      48.390   6.402  18.537  0.00  0.00    +0.000 A 
ATOM     35  H   UNL     1      47.348   8.728  20.614  0.00  0.00    +0.000 HD
ENDBRANCH  22  25
ENDBRANCH  20  21
ENDBRANCH   5  20
TORSDOF 8
ENDMDL
MODEL 3
REMARK VINA RESULT:    -7.732      3.209      5.848
REMARK INTER + INTRA:         -12.349
REMARK INTER:                 -10.657
REMARK INTRA:                  -1.692
REMARK UNBOUND:                -1.228
REMARK  Name = 
REMARK  8 active torsions:
REMARK  status: ('A' for Active; 'I' for Inactive)
REMARK    1  A    between atoms: N_1  and  C_2
REMARK    2  A    between atoms: C_2  and  C_3
REMARK    3  A    between atoms: C_2  and  C_24
REMARK    4  A    between atoms: C_3  and  C_4
REMARK    5  A    between atoms: C_8  and  C_9
REMARK    6  A    between atoms: C_9  and  N_10
REMARK    7  A    between atoms: C_11  and  C_13
REMARK    8  A    between atoms: C_24  and  C_26
REMARK                            x       y       z     vdW  Elec       q    Type
REMARK                         _______ _______ _______ _____ _____    ______ ____
ROOT
ATOM      1  C   UNL     1      46.664   4.843  13.723  0.00  0.00    +0.000 A 
ATOM      2  C   UNL     1      47.180   4.210  14.861  0.00  0.00    +0.000 A 
ATOM      3  C   UNL     1      47.987   4.914  15.754  0.00  0.00    +0.000 A 
ATOM      4  C   UNL     1      48.314   6.247  15.503  0.00  0.00    +0.000 A 
ATOM      5  C   UNL     1      47.833   6.890  14.356  0.00  0.00    +0.000 A 
ATOM      6  C   UNL     1      46.962   6.196  13.503  0.00  0.00    +0.000 A 
ENDROOT
BRANCH   1   7
ATOM      7  C   UNL     1      45.881   4.055  12.694  0.00  0.00    +0.000 C 
BRANCH   7   8
ATOM      8  C   UNL     1      44.370   4.377  12.645  0.00  0.00    +0.000 C 
BRANCH   8   9
ATOM      9  N   UNL     1      43.531   3.300  13.213  0.00  0.00    +0.000 NA
ATOM     10  H   UNL     1      42.631   3.274  12.742  0.00  0.00    +0.000 HD
ATOM     11  H   UNL     1      43.332   3.556  14.187  0.00  0.00    +0.000 HD
ENDBRANCH   8   9
BRANCH   8  12
ATOM     12  C   UNL     1      43.886   4.679  11.208  0.00  0.00    +0.000 C 
ATOM     13  O   UNL     1      42.945   5.442  10.982  0.00  0.00    +0.000 OA
BRANCH  12  14
ATOM     14  C   UNL     1      44.552   4.013  10.051  0.00  0.00    +0.000 A 
ATOM     15  C   UNL     1      44.539   2.636   9.818  0.00  0.00    +0.000 A 
ATOM     16  C   UNL     1      45.240   2.112   8.730  0.00  0.00    +0.000 A 
ATOM     17  C   UNL     1      45.919   2.984   7.897  0.00  0.00    +0.000 A 
ATOM     18  N   UNL     1      45.936   4.320   8.076  0.00  0.00    +0.000 NA
ATOM     19  C   UNL     1      45.257   4.804   9.148  0.00  0.00    +0.000 A 
ENDBRANCH  12  14
ENDBRANCH   8  12
ENDBRANCH   7   8
ENDBRANCH   1   7
BRANCH   5  20
ATOM     20  C   UNL     1      48.285   8.284  14.008  0.00  0.00    +0.000 C 
BRANCH  20  21
ATOM     21  N   UNL     1      47.216   9.082  13.471  0.00  0.00    +0.000 N 
ATOM     22  C   UNL     1      47.393   9.799  12.313  0.00  0.00    +0.000 C 
ATOM     23  O   UNL     1      48.433   9.753  11.667  0.00  0.00    +0.000 OA
ATOM     24  H   UNL     1      46.468   9.337  14.109  0.00  0.00    +0.000 HD
BRANCH  22  25
ATOM     25  C   UNL     1      46.238  10.580  11.853  0.00  0.00    +0.000 A 
ATOM     26  C   UNL     1      46.310  11.967  11.833  0.00  0.00    +0.000 A 
ATOM     27  S   UNL     1      44.899  12.715  11.231  0.00  0.00    +0.000 S 
ATOM     28  C   UNL     1      44.125  11.213  11.027  0.00  0.00    +0.000 A 
ATOM     29  N   UNL     1      42.849  11.141  10.562  0.00  0.00    +0.000 NA
ATOM     30  C   UNL     1      42.377   9.942  10.484  0.00  0.00    +0.000 A 
ATOM     31  N   UNL     1      43.067   8.807  10.822  0.00  0.00    +0.000 N 
ATOM     32  C   UNL     1      44.368   8.828  11.265  0.00  0.00    +0.000 A 
ATOM     33  O   UNL     1      44.971   7.788  11.510  0.00  0.00    +0.000 OA
ATOM     34  C   UNL     1      44.941  10.154  11.389  0.00  0.00    +0.000 A 
ATOM     35  H   UNL     1      42.645   7.896  10.727  0.00  0.00    +0.000 HD
ENDBRANCH  22  25
ENDBRANCH  20  21
ENDBRANCH   5  20
TORSDOF 8
ENDMDL
MODEL 4
REMARK VINA RESULT:    -7.711      2.420      2.826
REMARK INTER + INTRA:         -12.320
REMARK INTER:                 -11.114
REMARK INTRA:                  -1.206
REMARK UNBOUND:                -1.228
REMARK  Name = 
REMARK  8 active torsions:
REMARK  status: ('A' for Active; 'I' for Inactive)
REMARK    1  A    between atoms: N_1  and  C_2
REMARK    2  A    between atoms: C_2  and  C_3
REMARK    3  A    between atoms: C_2  and  C_24
REMARK    4  A    between atoms: C_3  and  C_4
REMARK    5  A    between atoms: C_8  and  C_9
REMARK    6  A    between atoms: C_9  and  N_10
REMARK    7  A    between atoms: C_11  and  C_13
REMARK    8  A    between atoms: C_24  and  C_26
REMARK                            x       y       z     vdW  Elec       q    Type
REMARK                         _______ _______ _______ _____ _____    ______ ____
ROOT
ATOM      1  C   UNL     1      46.853   5.635  12.778  0.00  0.00    +0.000 A 
ATOM      2  C   UNL     1      47.048   6.531  11.719  0.00  0.00    +0.000 A 
ATOM      3  C   UNL     1      47.812   7.682  11.900  0.00  0.00    +0.000 A 
ATOM      4  C   UNL     1      48.365   7.968  13.149  0.00  0.00    +0.000 A 
ATOM      5  C   UNL     1      48.159   7.101  14.228  0.00  0.00    +0.000 A 
ATOM      6  C   UNL     1      47.450   5.909  14.017  0.00  0.00    +0.000 A 
ENDROOT
BRANCH   1   7
ATOM      7  C   UNL     1      45.933   4.443  12.618  0.00  0.00    +0.000 C 
BRANCH   7   8
ATOM      8  C   UNL     1      44.428   4.791  12.565  0.00  0.00    +0.000 C 
BRANCH   8   9
ATOM      9  N   UNL     1      43.589   3.844  13.331  0.00  0.00    +0.000 NA
ATOM     10  H   UNL     1      42.823   3.510  12.751  0.00  0.00    +0.000 HD
ATOM     11  H   UNL     1      43.153   4.377  14.093  0.00  0.00    +0.000 HD
ENDBRANCH   8   9
BRANCH   8  12
ATOM     12  C   UNL     1      43.899   4.864  11.114  0.00  0.00    +0.000 C 
ATOM     13  O   UNL     1      42.898   5.518  10.816  0.00  0.00    +0.000 OA
BRANCH  12  14
ATOM     14  C   UNL     1      44.596   4.104  10.036  0.00  0.00    +0.000 A 
ATOM     15  C   UNL     1      45.384   4.688   9.041  0.00  0.00    +0.000 A 
ATOM     16  C   UNL     1      45.949   3.887   8.048  0.00  0.00    +0.000 A 
ATOM     17  C   UNL     1      45.725   2.521   8.090  0.00  0.00    +0.000 A 
ATOM     18  N   UNL     1      44.990   1.919   9.046  0.00  0.00    +0.000 NA
ATOM     19  C   UNL     1      44.441   2.721   9.994  0.00  0.00    +0.000 A 
ENDBRANCH  12  14
ENDBRANCH   8  12
ENDBRANCH   7   8
ENDBRANCH   1   7
BRANCH   5  20
ATOM     20  C   UNL     1      48.638   7.464  15.610  0.00  0.00    +0.000 C 
BRANCH  20  21
ATOM     21  N   UNL     1      49.735   6.638  16.038  0.00  0.00    +0.000 N 
ATOM     22  C   UNL     1      49.605   5.815  17.130  0.00  0.00    +0.000 C 
ATOM     23  O   UNL     1      48.553   5.709  17.749  0.00  0.00    +0.000 OA
ATOM     24  H   UNL     1      50.661   6.902  15.717  0.00  0.00    +0.000 HD
BRANCH  22  25
ATOM     25  C   UNL     1      50.785   5.015  17.481  0.00  0.00    +0.000 A 
ATOM     26  C   UNL     1      51.941   5.649  17.918  0.00  0.00    +0.000 A 
ATOM     27  S   UNL     1      53.199   4.571  18.324  0.00  0.00    +0.000 S 
ATOM     28  C   UNL     1      52.260   3.223  17.880  0.00  0.00    +0.000 A 
ATOM     29  N   UNL     1      52.765   1.963  17.958  0.00  0.00    +0.000 NA
ATOM     30  C   UNL     1      51.955   1.038  17.561  0.00  0.00    +0.000 A 
ATOM     31  N   UNL     1      50.683   1.259  17.102  0.00  0.00    +0.000 N 
ATOM     32  C   UNL     1      50.119   2.511  17.035  0.00  0.00    +0.000 A 
ATOM     33  O   UNL     1      48.960   2.665  16.666  0.00  0.00    +0.000 OA
ATOM     34  C   UNL     1      50.995   3.588  17.451  0.00  0.00    +0.000 A 
ATOM     35  H   UNL     1      50.093   0.491  16.817  0.00  0.00    +0.000 HD
ENDBRANCH  22  25
ENDBRANCH  20  21
ENDBRANCH   5  20
TORSDOF 8
ENDMDL
MODEL 5
REMARK VINA RESULT:    -7.643      3.124      7.854
REMARK INTER + INTRA:         -12.221
REMARK INTER:                 -10.874
REMARK INTRA:                  -1.347
REMARK UNBOUND:                -1.228
REMARK  Name = 
REMARK  8 active torsions:
REMARK  status: ('A' for Active; 'I' for Inactive)
REMARK    1  A    between atoms: N_1  and  C_2
REMARK    2  A    between atoms: C_2  and  C_3
REMARK    3  A    between atoms: C_2  and  C_24
REMARK    4  A    between atoms: C_3  and  C_4
REMARK    5  A    between atoms: C_8  and  C_9
REMARK    6  A    between atoms: C_9  and  N_10
REMARK    7  A    between atoms: C_11  and  C_13
REMARK    8  A    between atoms: C_24  and  C_26
REMARK                            x       y       z     vdW  Elec       q    Type
REMARK                         _______ _______ _______ _____ _____    ______ ____
ROOT
ATOM      1  C   UNL     1      47.693   4.979  16.869  0.00  0.00    +0.000 A 
ATOM      2  C   UNL     1      48.239   5.837  17.832  0.00  0.00    +0.000 A 
ATOM      3  C   UNL     1      48.870   7.019  17.447  0.00  0.00    +0.000 A 
ATOM      4  C   UNL     1      48.991   7.341  16.095  0.00  0.00    +0.000 A 
ATOM      5  C   UNL     1      48.478   6.483  15.114  0.00  0.00    +0.000 A 
ATOM      6  C   UNL     1      47.780   5.334  15.515  0.00  0.00    +0.000 A 
ENDROOT
BRANCH   1   7
ATOM      7  C   UNL     1      47.107   3.643  17.274  0.00  0.00    +0.000 C 
BRANCH   7   8
ATOM      8  C   UNL     1      48.122   2.652  17.890  0.00  0.00    +0.000 C 
BRANCH   8   9
ATOM      9  N   UNL     1      48.650   3.103  19.196  0.00  0.00    +0.000 NA
ATOM     10  H   UNL     1      47.904   3.514  19.750  0.00  0.00    +0.000 HD
ATOM     11  H   UNL     1      49.313   3.864  19.006  0.00  0.00    +0.000 HD
ENDBRANCH   8   9
BRANCH   8  12
ATOM     12  C   UNL     1      49.310   2.372  16.942  0.00  0.00    +0.000 C 
ATOM     13  O   UNL     1      49.153   1.869  15.828  0.00  0.00    +0.000 OA
BRANCH  12  14
ATOM     14  C   UNL     1      50.698   2.693  17.385  0.00  0.00    +0.000 A 
ATOM     15  C   UNL     1      51.209   3.987  17.508  0.00  0.00    +0.000 A 
ATOM     16  C   UNL     1      52.541   4.173  17.881  0.00  0.00    +0.000 A 
ATOM     17  C   UNL     1      53.318   3.057  18.139  0.00  0.00    +0.000 A 
ATOM     18  N   UNL     1      52.855   1.794  18.054  0.00  0.00    +0.000 NA
ATOM     19  C   UNL     1      51.560   1.639  17.677  0.00  0.00    +0.000 A 
ENDBRANCH  12  14
ENDBRANCH   8  12
ENDBRANCH   7   8
ENDBRANCH   1   7
BRANCH   5  20
ATOM     20  C   UNL     1      48.718   6.754  13.652  0.00  0.00    +0.000 C 
BRANCH  20  21
ATOM     21  N   UNL     1      47.866   5.962  12.807  0.00  0.00    +0.000 N 
ATOM     22  C   UNL     1      46.864   6.551  12.075  0.00  0.00    +0.000 C 
ATOM     23  O   UNL     1      46.686   7.763  12.066  0.00  0.00    +0.000 OA
ATOM     24  H   UNL     1      47.825   4.966  13.001  0.00  0.00    +0.000 HD
BRANCH  22  25
ATOM     25  C   UNL     1      46.053   5.651  11.247  0.00  0.00    +0.000 A 
ATOM     26  C   UNL     1      46.099   5.761   9.863  0.00  0.00    +0.000 A 
ATOM     27  S   UNL     1      45.132   4.612   9.054  0.00  0.00    +0.000 S 
ATOM     28  C   UNL     1      44.577   3.962  10.526  0.00  0.00    +0.000 A 
ATOM     29  N   UNL     1      43.678   2.942  10.546  0.00  0.00    +0.000 NA
ATOM     30  C   UNL     1      43.322   2.568  11.730  0.00  0.00    +0.000 A 
ATOM     31  N   UNL     1      43.790   3.116  12.896  0.00  0.00    +0.000 N 
ATOM     32  C   UNL     1      44.723   4.126  12.925  0.00  0.00    +0.000 A 
ATOM     33  O   UNL     1      45.156   4.557  13.989  0.00  0.00    +0.000 OA
ATOM     34  C   UNL     1      45.142   4.596  11.620  0.00  0.00    +0.000 A 
ATOM     35  H   UNL     1      43.482   2.771  13.792  0.00  0.00    +0.000 HD
ENDBRANCH  22  25
ENDBRANCH  20  21
ENDBRANCH   5  20
TORSDOF 8
ENDMDL
MODEL 6
REMARK VINA RESULT:    -7.516      1.830      2.491
REMARK INTER + INTRA:         -12.039
REMARK INTER:                 -10.933
REMARK INTRA:                  -1.107
REMARK UNBOUND:                -1.228
REMARK  Name = 
REMARK  8 active torsions:
REMARK  status: ('A' for Active; 'I' for Inactive)
REMARK    1  A    between atoms: N_1  and  C_2
REMARK    2  A    between atoms: C_2  and  C_3
REMARK    3  A    between atoms: C_2  and  C_24
REMARK    4  A    between atoms: C_3  and  C_4
REMARK    5  A    between atoms: C_8  and  C_9
REMARK    6  A    between atoms: C_9  and  N_10
REMARK    7  A    between atoms: C_11  and  C_13
REMARK    8  A    between atoms: C_24  and  C_26
REMARK                            x       y       z     vdW  Elec       q    Type
REMARK                         _______ _______ _______ _____ _____    ______ ____
ROOT
ATOM      1  C   UNL     1      45.288   6.246  12.965  0.00  0.00    +0.000 A 
ATOM      2  C   UNL     1      45.033   7.588  12.654  0.00  0.00    +0.000 A 
ATOM      3  C   UNL     1      46.021   8.554  12.835  0.00  0.00    +0.000 A 
ATOM      4  C   UNL     1      47.264   8.196  13.358  0.00  0.00    +0.000 A 
ATOM      5  C   UNL     1      47.531   6.866  13.703  0.00  0.00    +0.000 A 
ATOM      6  C   UNL     1      46.556   5.890  13.449  0.00  0.00    +0.000 A 
ENDROOT
BRANCH   1   7
ATOM      7  C   UNL     1      44.185   5.213  12.877  0.00  0.00    +0.000 C 
BRANCH   7   8
ATOM      8  C   UNL     1      43.508   5.106  11.491  0.00  0.00    +0.000 C 
BRANCH   8   9
ATOM      9  N   UNL     1      42.068   5.439  11.524  0.00  0.00    +0.000 NA
ATOM     10  H   UNL     1      41.516   4.624  11.268  0.00  0.00    +0.000 HD
ATOM     11  H   UNL     1      41.903   6.133  10.786  0.00  0.00    +0.000 HD
ENDBRANCH   8   9
BRANCH   8  12
ATOM     12  C   UNL     1      43.680   3.701  10.868  0.00  0.00    +0.000 C 
ATOM     13  O   UNL     1      43.097   2.712  11.316  0.00  0.00    +0.000 OA
BRANCH  12  14
ATOM     14  C   UNL     1      44.596   3.518   9.705  0.00  0.00    +0.000 A 
ATOM     15  C   UNL     1      44.966   2.278   9.179  0.00  0.00    +0.000 A 
ATOM     16  C   UNL     1      45.872   2.219   8.119  0.00  0.00    +0.000 A 
ATOM     17  C   UNL     1      46.368   3.405   7.604  0.00  0.00    +0.000 A 
ATOM     18  N   UNL     1      46.017   4.620   8.069  0.00  0.00    +0.000 NA
ATOM     19  C   UNL     1      45.144   4.651   9.108  0.00  0.00    +0.000 A 
ENDBRANCH  12  14
ENDBRANCH   8  12
ENDBRANCH   7   8
ENDBRANCH   1   7
BRANCH   5  20
ATOM     20  C   UNL     1      48.818   6.492  14.390  0.00  0.00    +0.000 C 
BRANCH  20  21
ATOM     21  N   UNL     1      48.701   6.535  15.822  0.00  0.00    +0.000 N 
ATOM     22  C   UNL     1      48.511   5.381  16.543  0.00  0.00    +0.000 C 
ATOM     23  O   UNL     1      48.487   4.276  16.015  0.00  0.00    +0.000 OA
ATOM     24  H   UNL     1      48.457   7.430  16.236  0.00  0.00    +0.000 HD
BRANCH  22  25
ATOM     25  C   UNL     1      48.404   5.538  17.998  0.00  0.00    +0.000 A 
ATOM     26  C   UNL     1      47.261   6.106  18.547  0.00  0.00    +0.000 A 
ATOM     27  S   UNL     1      47.282   6.174  20.251  0.00  0.00    +0.000 S 
ATOM     28  C   UNL     1      48.841   5.495  20.313  0.00  0.00    +0.000 A 
ATOM     29  N   UNL     1      49.474   5.302  21.501  0.00  0.00    +0.000 NA
ATOM     30  C   UNL     1      50.662   4.807  21.398  0.00  0.00    +0.000 A 
ATOM     31  N   UNL     1      51.272   4.480  20.216  0.00  0.00    +0.000 N 
ATOM     32  C   UNL     1      50.660   4.626  18.993  0.00  0.00    +0.000 A 
ATOM     33  O   UNL     1      51.218   4.275  17.959  0.00  0.00    +0.000 OA
ATOM     34  C   UNL     1      49.329   5.197  19.051  0.00  0.00    +0.000 A 
ATOM     35  H   UNL     1      52.200   4.084  20.203  0.00  0.00    +0.000 HD
ENDBRANCH  22  25
ENDBRANCH  20  21
ENDBRANCH   5  20
TORSDOF 8
ENDMDL
MODEL 7
REMARK VINA RESULT:    -7.318      2.886      3.696
REMARK INTER + INTRA:         -11.755
REMARK INTER:                 -10.663
REMARK INTRA:                  -1.092
REMARK UNBOUND:                -1.228
REMARK  Name = 
REMARK  8 active torsions:
REMARK  status: ('A' for Active; 'I' for Inactive)
REMARK    1  A    between atoms: N_1  and  C_2
REMARK    2  A    between atoms: C_2  and  C_3
REMARK    3  A    between atoms: C_2  and  C_24
REMARK    4  A    between atoms: C_3  and  C_4
REMARK    5  A    between atoms: C_8  and  C_9
REMARK    6  A    between atoms: C_9  and  N_10
REMARK    7  A    between atoms: C_11  and  C_13
REMARK    8  A    between atoms: C_24  and  C_26
REMARK                            x       y       z     vdW  Elec       q    Type
REMARK                         _______ _______ _______ _____ _____    ______ ____
ROOT
ATOM      1  C   UNL     1      46.965   5.663  13.124  0.00  0.00    +0.000 A 
ATOM      2  C   UNL     1      46.510   4.393  13.502  0.00  0.00    +0.000 A 
ATOM      3  C   UNL     1      46.811   3.883  14.764  0.00  0.00    +0.000 A 
ATOM      4  C   UNL     1      47.597   4.621  15.649  0.00  0.00    +0.000 A 
ATOM      5  C   UNL     1      48.086   5.880  15.281  0.00  0.00    +0.000 A 
ATOM      6  C   UNL     1      47.716   6.416  14.038  0.00  0.00    +0.000 A 
ENDROOT
BRANCH   1   7
ATOM      7  C   UNL     1      46.736   6.174  11.717  0.00  0.00    +0.000 C 
BRANCH   7   8
ATOM      8  C   UNL     1      45.304   6.684  11.439  0.00  0.00    +0.000 C 
BRANCH   8   9
ATOM      9  N   UNL     1      44.696   7.364  12.604  0.00  0.00    +0.000 NA
ATOM     10  H   UNL     1      44.138   6.705  13.140  0.00  0.00    +0.000 HD
ATOM     11  H   UNL     1      44.036   8.059  12.236  0.00  0.00    +0.000 HD
ENDBRANCH   8   9
BRANCH   8  12
ATOM     12  C   UNL     1      44.361   5.549  10.979  0.00  0.00    +0.000 C 
ATOM     13  O   UNL     1      43.211   5.441  11.408  0.00  0.00    +0.000 OA
BRANCH  12  14
ATOM     14  C   UNL     1      44.853   4.531  10.006  0.00  0.00    +0.000 A 
ATOM     15  C   UNL     1      45.545   4.833   8.830  0.00  0.00    +0.000 A 
ATOM     16  C   UNL     1      45.914   3.804   7.962  0.00  0.00    +0.000 A 
ATOM     17  C   UNL     1      45.597   2.501   8.305  0.00  0.00    +0.000 A 
ATOM     18  N   UNL     1      44.952   2.169   9.440  0.00  0.00    +0.000 NA
ATOM     19  C   UNL     1      44.592   3.188  10.262  0.00  0.00    +0.000 A 
ENDBRANCH  12  14
ENDBRANCH   8  12
ENDBRANCH   7   8
ENDBRANCH   1   7
BRANCH   5  20
ATOM     20  C   UNL     1      49.042   6.627  16.175  0.00  0.00    +0.000 C 
BRANCH  20  21
ATOM     21  N   UNL     1      50.119   5.792  16.633  0.00  0.00    +0.000 N 
ATOM     22  C   UNL     1      50.209   5.432  17.956  0.00  0.00    +0.000 C 
ATOM     23  O   UNL     1      49.364   5.755  18.782  0.00  0.00    +0.000 OA
ATOM     24  H   UNL     1      50.943   5.740  16.043  0.00  0.00    +0.000 HD
BRANCH  22  25
ATOM     25  C   UNL     1      51.348   4.578  18.317  0.00  0.00    +0.000 A 
ATOM     26  C   UNL     1      52.396   5.108  19.059  0.00  0.00    +0.000 A 
ATOM     27  S   UNL     1      53.614   3.971  19.428  0.00  0.00    +0.000 S 
ATOM     28  C   UNL     1      52.807   2.746  18.565  0.00  0.00    +0.000 A 
ATOM     29  N   UNL     1      53.339   1.499  18.457  0.00  0.00    +0.000 NA
ATOM     30  C   UNL     1      52.636   0.678  17.750  0.00  0.00    +0.000 A 
ATOM     31  N   UNL     1      51.446   0.989  17.147  0.00  0.00    +0.000 N 
ATOM     32  C   UNL     1      50.854   2.225  17.254  0.00  0.00    +0.000 A 
ATOM     33  O   UNL     1      49.762   2.451  16.743  0.00  0.00    +0.000 OA
ATOM     34  C   UNL     1      51.612   3.191  18.023  0.00  0.00    +0.000 A 
ATOM     35  H   UNL     1      50.937   0.298  16.616  0.00  0.00    +0.000 HD
ENDBRANCH  22  25
ENDBRANCH  20  21
ENDBRANCH   5  20
TORSDOF 8
ENDMDL
MODEL 8
REMARK VINA RESULT:    -7.219      2.979      7.687
REMARK INTER + INTRA:         -11.612
REMARK INTER:                 -10.343
REMARK INTRA:                  -1.269
REMARK UNBOUND:                -1.228
REMARK  Name = 
REMARK  8 active torsions:
REMARK  status: ('A' for Active; 'I' for Inactive)
REMARK    1  A    between atoms: N_1  and  C_2
REMARK    2  A    between atoms: C_2  and  C_3
REMARK    3  A    between atoms: C_2  and  C_24
REMARK    4  A    between atoms: C_3  and  C_4
REMARK    5  A    between atoms: C_8  and  C_9
REMARK    6  A    between atoms: C_9  and  N_10
REMARK    7  A    between atoms: C_11  and  C_13
REMARK    8  A    between atoms: C_24  and  C_26
REMARK                            x       y       z     vdW  Elec       q    Type
REMARK                         _______ _______ _______ _____ _____    ______ ____
ROOT
ATOM      1  C   UNL     1      48.133   8.101  19.364  0.00  0.00    +0.000 A 
ATOM      2  C   UNL     1      47.865   9.471  19.479  0.00  0.00    +0.000 A 
ATOM      3  C   UNL     1      47.841  10.283  18.346  0.00  0.00    +0.000 A 
ATOM      4  C   UNL     1      48.115   9.742  17.090  0.00  0.00    +0.000 A 
ATOM      5  C   UNL     1      48.414   8.381  16.955  0.00  0.00    +0.000 A 
ATOM      6  C   UNL     1      48.363   7.559  18.091  0.00  0.00    +0.000 A 
ENDROOT
BRANCH   1   7
ATOM      7  C   UNL     1      48.271   7.238  20.600  0.00  0.00    +0.000 C 
BRANCH   7   8
ATOM      8  C   UNL     1      47.935   5.744  20.386  0.00  0.00    +0.000 C 
BRANCH   8   9
ATOM      9  N   UNL     1      47.351   5.106  21.586  0.00  0.00    +0.000 NA
ATOM     10  H   UNL     1      47.147   4.128  21.396  0.00  0.00    +0.000 HD
ATOM     11  H   UNL     1      46.443   5.555  21.755  0.00  0.00    +0.000 HD
ENDBRANCH   8   9
BRANCH   8  12
ATOM     12  C   UNL     1      49.170   4.929  19.940  0.00  0.00    +0.000 C 
ATOM     13  O   UNL     1      50.246   4.995  20.536  0.00  0.00    +0.000 OA
BRANCH  12  14
ATOM     14  C   UNL     1      49.078   4.050  18.738  0.00  0.00    +0.000 A 
ATOM     15  C   UNL     1      47.880   3.606  18.174  0.00  0.00    +0.000 A 
ATOM     16  C   UNL     1      47.909   2.742  17.078  0.00  0.00    +0.000 A 
ATOM     17  C   UNL     1      49.138   2.361  16.568  0.00  0.00    +0.000 A 
ATOM     18  N   UNL     1      50.314   2.786  17.070  0.00  0.00    +0.000 NA
ATOM     19  C   UNL     1      50.260   3.616  18.143  0.00  0.00    +0.000 A 
ENDBRANCH  12  14
ENDBRANCH   8  12
ENDBRANCH   7   8
ENDBRANCH   1   7
BRANCH   5  20
ATOM     20  C   UNL     1      48.840   7.813  15.626  0.00  0.00    +0.000 C 
BRANCH  20  21
ATOM     21  N   UNL     1      47.715   7.454  14.805  0.00  0.00    +0.000 N 
ATOM     22  C   UNL     1      47.895   6.726  13.654  0.00  0.00    +0.000 C 
ATOM     23  O   UNL     1      48.994   6.310  13.307  0.00  0.00    +0.000 OA
ATOM     24  H   UNL     1      46.866   7.997  14.926  0.00  0.00    +0.000 HD
BRANCH  22  25
ATOM     25  C   UNL     1      46.681   6.414  12.890  0.00  0.00    +0.000 A 
ATOM     26  C   UNL     1      45.968   7.440  12.282  0.00  0.00    +0.000 A 
ATOM     27  S   UNL     1      44.611   6.900  11.400  0.00  0.00    +0.000 S 
ATOM     28  C   UNL     1      44.899   5.283  11.844  0.00  0.00    +0.000 A 
ATOM     29  N   UNL     1      44.067   4.287  11.437  0.00  0.00    +0.000 NA
ATOM     30  C   UNL     1      44.387   3.113  11.871  0.00  0.00    +0.000 A 
ATOM     31  N   UNL     1      45.469   2.844  12.669  0.00  0.00    +0.000 N 
ATOM     32  C   UNL     1      46.355   3.813  13.079  0.00  0.00    +0.000 A 
ATOM     33  O   UNL     1      47.340   3.526  13.751  0.00  0.00    +0.000 OA
ATOM     34  C   UNL     1      46.030   5.153  12.634  0.00  0.00    +0.000 A 
ATOM     35  H   UNL     1      45.673   1.902  12.966  0.00  0.00    +0.000 HD
ENDBRANCH  22  25
ENDBRANCH  20  21
ENDBRANCH   5  20
TORSDOF 8
ENDMDL
MODEL 9
REMARK VINA RESULT:    -7.190      1.944      2.747
REMARK INTER + INTRA:         -11.570
REMARK INTER:                 -11.498
REMARK INTRA:                  -0.072
REMARK UNBOUND:                -1.228
REMARK  Name = 
REMARK  8 active torsions:
REMARK  status: ('A' for Active; 'I' for Inactive)
REMARK    1  A    between atoms: N_1  and  C_2
REMARK    2  A    between atoms: C_2  and  C_3
REMARK    3  A    between atoms: C_2  and  C_24
REMARK    4  A    between atoms: C_3  and  C_4
REMARK    5  A    between atoms: C_8  and  C_9
REMARK    6  A    between atoms: C_9  and  N_10
REMARK    7  A    between atoms: C_11  and  C_13
REMARK    8  A    between atoms: C_24  and  C_26
REMARK                            x       y       z     vdW  Elec       q    Type
REMARK                         _______ _______ _______ _____ _____    ______ ____
ROOT
ATOM      1  C   UNL     1      45.805   5.289  11.884  0.00  0.00    +0.000 A 
ATOM      2  C   UNL     1      45.715   4.020  12.470  0.00  0.00    +0.000 A 
ATOM      3  C   UNL     1      46.406   3.735  13.646  0.00  0.00    +0.000 A 
ATOM      4  C   UNL     1      47.220   4.705  14.233  0.00  0.00    +0.000 A 
ATOM      5  C   UNL     1      47.348   5.970  13.648  0.00  0.00    +0.000 A 
ATOM      6  C   UNL     1      46.591   6.270  12.506  0.00  0.00    +0.000 A 
ENDROOT
BRANCH   1   7
ATOM      7  C   UNL     1      45.148   5.568  10.549  0.00  0.00    +0.000 C 
BRANCH   7   8
ATOM      8  C   UNL     1      43.854   4.764  10.284  0.00  0.00    +0.000 C 
BRANCH   8   9
ATOM      9  N   UNL     1      42.912   4.793  11.424  0.00  0.00    +0.000 NA
ATOM     10  H   UNL     1      42.040   4.338  11.167  0.00  0.00    +0.000 HD
ATOM     11  H   UNL     1      42.677   5.777  11.596  0.00  0.00    +0.000 HD
ENDBRANCH   8   9
BRANCH   8  12
ATOM     12  C   UNL     1      44.149   3.290   9.920  0.00  0.00    +0.000 C 
ATOM     13  O   UNL     1      43.604   2.352  10.505  0.00  0.00    +0.000 OA
BRANCH  12  14
ATOM     14  C   UNL     1      45.139   2.980   8.849  0.00  0.00    +0.000 A 
ATOM     15  C   UNL     1      45.565   3.890   7.879  0.00  0.00    +0.000 A 
ATOM     16  C   UNL     1      46.458   3.478   6.889  0.00  0.00    +0.000 A 
ATOM     17  C   UNL     1      46.913   2.171   6.908  0.00  0.00    +0.000 A 
ATOM     18  N   UNL     1      46.543   1.271   7.840  0.00  0.00    +0.000 NA
ATOM     19  C   UNL     1      45.664   1.692   8.786  0.00  0.00    +0.000 A 
ENDBRANCH  12  14
ENDBRANCH   8  12
ENDBRANCH   7   8
ENDBRANCH   1   7
BRANCH   5  20
ATOM     20  C   UNL     1      48.324   6.978  14.198  0.00  0.00    +0.000 C 
BRANCH  20  21
ATOM     21  N   UNL     1      48.171   7.163  15.615  0.00  0.00    +0.000 N 
ATOM     22  C   UNL     1      49.118   6.685  16.489  0.00  0.00    +0.000 C 
ATOM     23  O   UNL     1      50.143   6.135  16.105  0.00  0.00    +0.000 OA
ATOM     24  H   UNL     1      47.236   7.368  15.954  0.00  0.00    +0.000 HD
BRANCH  22  25
ATOM     25  C   UNL     1      48.864   6.927  17.914  0.00  0.00    +0.000 A 
ATOM     26  C   UNL     1      48.724   8.229  18.376  0.00  0.00    +0.000 A 
ATOM     27  S   UNL     1      48.390   8.328  20.046  0.00  0.00    +0.000 S 
ATOM     28  C   UNL     1      48.473   6.638  20.219  0.00  0.00    +0.000 A 
ATOM     29  N   UNL     1      48.305   6.049  21.433  0.00  0.00    +0.000 NA
ATOM     30  C   UNL     1      48.423   4.763  21.423  0.00  0.00    +0.000 A 
ATOM     31  N   UNL     1      48.686   4.011  20.308  0.00  0.00    +0.000 N 
ATOM     32  C   UNL     1      48.832   4.559  19.055  0.00  0.00    +0.000 A 
ATOM     33  O   UNL     1      49.016   3.850  18.071  0.00  0.00    +0.000 OA
ATOM     34  C   UNL     1      48.727   6.003  19.014  0.00  0.00    +0.000 A 
ATOM     35  H   UNL     1      48.755   3.006  20.364  0.00  0.00    +0.000 HD
ENDBRANCH  22  25
ENDBRANCH  20  21
ENDBRANCH   5  20
TORSDOF 8
ENDMDL
