MODEL 1
REMARK VINA RESULT:    -7.607      0.000      0.000
REMARK INTER + INTRA:         -11.288
REMARK INTER:                 -10.053
REMARK INTRA:                  -1.235
REMARK UNBOUND:                -1.235
REMARK  Name = 
REMARK  6 active torsions:
REMARK  status: ('A' for Active; 'I' for Inactive)
REMARK    1  A    between atoms: C_2  and  O_3
REMARK    2  A    between atoms: C_2  and  C_4
REMARK    3  A    between atoms: C_8  and  C_9
REMARK    4  A    between atoms: C_9  and  C_10
REMARK    5  A    between atoms: C_10  and  C_11
REMARK    6  A    between atoms: C_15  and  C_16
REMARK                            x       y       z     vdW  Elec       q    Type
REMARK                         _______ _______ _______ _____ _____    ______ ____
ROOT
ATOM      1  C   UNL     1      44.621   4.034  11.477  0.00  0.00    +0.000 C 
ATOM      2  C   UNL     1      45.363   3.058  12.380  0.00  0.00    +0.000 C 
ATOM      3  C   UNL     1      44.004   3.529  12.781  0.00  0.00    +0.000 C 
ENDROOT
BRANCH   1   4
ATOM      4  C   UNL     1      44.945   5.529  11.501  0.00  0.00    +0.000 A 
ATOM      5  C   UNL     1      43.926   6.493  11.404  0.00  0.00    +0.000 A 
ATOM      6  C   UNL     1      44.203   7.852  11.475  0.00  0.00    +0.000 A 
ATOM      7  C   UNL     1      45.504   8.282  11.718  0.00  0.00    +0.000 A 
ATOM      8  C   UNL     1      46.550   7.365  11.870  0.00  0.00    +0.000 A 
ATOM      9  C   UNL     1      46.254   6.003  11.700  0.00  0.00    +0.000 A 
BRANCH   8  10
ATOM     10  C   UNL     1      47.961   7.750  12.297  0.00  0.00    +0.000 C 
ATOM     11  C   UNL     1      48.687   6.627  13.055  0.00  0.00    +0.000 C 
ATOM     12  C   UNL     1      48.312   6.559  14.533  0.00  0.00    +0.000 C 
ATOM     13  N   UNL     1      48.435   7.850  15.211  0.00  0.00    +0.000 NA
ATOM     14  C   UNL     1      47.702   8.928  14.544  0.00  0.00    +0.000 C 
ATOM     15  C   UNL     1      48.061   9.069  13.068  0.00  0.00    +0.000 C 
ATOM     16  H   UNL     1      49.421   8.104  15.256  0.00  0.00    +0.000 HD
ENDBRANCH   8  10
ENDBRANCH   1   4
BRANCH   1  17
ATOM     17  C   UNL     1      44.033   3.474  10.182  0.00  0.00    +0.000 C 
BRANCH  17  22
ATOM     18  C   UNL     1      46.460   1.850   7.712  0.00  0.00    +0.000 A 
ATOM     19  C   UNL     1      47.044   2.970   7.115  0.00  0.00    +0.000 A 
ATOM     20  C   UNL     1      46.613   4.246   7.474  0.00  0.00    +0.000 A 
ATOM     21  C   UNL     1      45.611   4.406   8.435  0.00  0.00    +0.000 A 
ATOM     22  C   UNL     1      45.058   3.294   9.084  0.00  0.00    +0.000 A 
ATOM     23  C   UNL     1      45.503   2.014   8.720  0.00  0.00    +0.000 A 
BRANCH  18  25
ATOM     24  O   UNL     1      46.843  -0.483   7.984  0.00  0.00    +0.000 OA
ATOM     25  C   UNL     1      46.892   0.503   7.270  0.00  0.00    +0.000 C 
BRANCH  25  26
ATOM     26  O   UNL     1      47.404   0.494   6.019  0.00  0.00    +0.000 OA
ATOM     27  H   UNL     1      47.311   1.337   5.532  0.00  0.00    +0.000 HD
ENDBRANCH  25  26
ENDBRANCH  18  25
ENDBRANCH  17  22
ENDBRANCH   1  17
TORSDOF 6
ENDMDL
MODEL 2
REMARK VINA RESULT:    -7.334      1.480      2.361
REMARK INTER + INTRA:         -10.927
REMARK INTER:                 -10.010
REMARK INTRA:                  -0.917
REMARK UNBOUND:                -1.235
REMARK  Name = 
REMARK  6 active torsions:
REMARK  status: ('A' for Active; 'I' for Inactive)
REMARK    1  A    between atoms: C_2  and  O_3
REMARK    2  A    between atoms: C_2  and  C_4
REMARK    3  A    between atoms: C_8  and  C_9
REMARK    4  A    between atoms: C_9  and  C_10
REMARK    5  A    between atoms: C_10  and  C_11
REMARK    6  A    between atoms: C_15  and  C_16
REMARK                            x       y       z     vdW  Elec       q    Type
REMARK                         _______ _______ _______ _____ _____    ______ ____
ROOT
ATOM      1  C   UNL     1      44.052   5.070  11.037  0.00  0.00    +0.000 C 
ATOM      2  C   UNL     1      42.875   4.295  11.612  0.00  0.00    +0.000 C 
ATOM      3  C   UNL     1      42.804   5.785  11.552  0.00  0.00    +0.000 C 
ENDROOT
BRANCH   1   4
ATOM      4  C   UNL     1      45.299   5.347  11.881  0.00  0.00    +0.000 A 
ATOM      5  C   UNL     1      45.680   4.476  12.917  0.00  0.00    +0.000 A 
ATOM      6  C   UNL     1      46.837   4.689  13.656  0.00  0.00    +0.000 A 
ATOM      7  C   UNL     1      47.683   5.743  13.328  0.00  0.00    +0.000 A 
ATOM      8  C   UNL     1      47.379   6.612  12.276  0.00  0.00    +0.000 A 
ATOM      9  C   UNL     1      46.157   6.427  11.609  0.00  0.00    +0.000 A 
BRANCH   8  10
ATOM     10  C   UNL     1      48.330   7.684  11.756  0.00  0.00    +0.000 C 
ATOM     11  C   UNL     1      49.776   7.488  12.236  0.00  0.00    +0.000 C 
ATOM     12  C   UNL     1      50.022   8.022  13.645  0.00  0.00    +0.000 C 
ATOM     13  N   UNL     1      49.568   9.403  13.816  0.00  0.00    +0.000 NA
ATOM     14  C   UNL     1      48.172   9.608  13.424  0.00  0.00    +0.000 C 
ATOM     15  C   UNL     1      47.873   9.124  12.009  0.00  0.00    +0.000 C 
ATOM     16  H   UNL     1      50.159  10.014  13.254  0.00  0.00    +0.000 HD
ENDBRANCH   8  10
ENDBRANCH   1   4
BRANCH   1  17
ATOM     17  C   UNL     1      44.240   5.029   9.521  0.00  0.00    +0.000 C 
BRANCH  17  22
ATOM     18  C   UNL     1      46.422   2.595   7.536  0.00  0.00    +0.000 A 
ATOM     19  C   UNL     1      45.998   1.363   8.039  0.00  0.00    +0.000 A 
ATOM     20  C   UNL     1      45.047   1.324   9.057  0.00  0.00    +0.000 A 
ATOM     21  C   UNL     1      44.510   2.512   9.564  0.00  0.00    +0.000 A 
ATOM     22  C   UNL     1      44.883   3.752   9.028  0.00  0.00    +0.000 A 
ATOM     23  C   UNL     1      45.837   3.779   7.999  0.00  0.00    +0.000 A 
BRANCH  18  25
ATOM     24  O   UNL     1      48.473   1.910   6.540  0.00  0.00    +0.000 OA
ATOM     25  C   UNL     1      47.478   2.612   6.496  0.00  0.00    +0.000 C 
BRANCH  25  26
ATOM     26  O   UNL     1      47.255   3.530   5.529  0.00  0.00    +0.000 OA
ATOM     27  H   UNL     1      46.446   4.065   5.651  0.00  0.00    +0.000 HD
ENDBRANCH  25  26
ENDBRANCH  18  25
ENDBRANCH  17  22
ENDBRANCH   1  17
TORSDOF 6
ENDMDL
MODEL 3
REMARK VINA RESULT:    -6.631      3.604      6.978
REMARK INTER + INTRA:          -9.998
REMARK INTER:                  -8.875
REMARK INTRA:                  -1.123
REMARK UNBOUND:                -1.235
REMARK  Name = 
REMARK  6 active torsions:
REMARK  status: ('A' for Active; 'I' for Inactive)
REMARK    1  A    between atoms: C_2  and  O_3
REMARK    2  A    between atoms: C_2  and  C_4
REMARK    3  A    between atoms: C_8  and  C_9
REMARK    4  A    between atoms: C_9  and  C_10
REMARK    5  A    between atoms: C_10  and  C_11
REMARK    6  A    between atoms: C_15  and  C_16
REMARK                            x       y       z     vdW  Elec       q    Type
REMARK                         _______ _______ _______ _____ _____    ______ ____
ROOT
ATOM      1  C   UNL     1      48.469   7.931  12.818  0.00  0.00    +0.000 C 
ATOM      2  C   UNL     1      49.413   6.928  12.170  0.00  0.00    +0.000 C 
ATOM      3  C   UNL     1      49.449   8.352  11.725  0.00  0.00    +0.000 C 
ENDROOT
BRANCH   1   4
ATOM      4  C   UNL     1      47.003   8.024  12.386  0.00  0.00    +0.000 A 
ATOM      5  C   UNL     1      46.372   9.270  12.230  0.00  0.00    +0.000 A 
ATOM      6  C   UNL     1      45.059   9.368  11.789  0.00  0.00    +0.000 A 
ATOM      7  C   UNL     1      44.363   8.219  11.424  0.00  0.00    +0.000 A 
ATOM      8  C   UNL     1      44.958   6.957  11.514  0.00  0.00    +0.000 A 
ATOM      9  C   UNL     1      46.253   6.882  12.051  0.00  0.00    +0.000 A 
BRANCH   8  10
ATOM     10  C   UNL     1      44.322   5.677  10.984  0.00  0.00    +0.000 C 
ATOM     11  C   UNL     1      42.915   5.428  11.549  0.00  0.00    +0.000 C 
ATOM     12  C   UNL     1      42.927   4.789  12.935  0.00  0.00    +0.000 C 
ATOM     13  N   UNL     1      43.767   3.593  13.003  0.00  0.00    +0.000 NA
ATOM     14  C   UNL     1      45.134   3.817  12.529  0.00  0.00    +0.000 C 
ATOM     15  C   UNL     1      45.188   4.423  11.130  0.00  0.00    +0.000 C 
ATOM     16  H   UNL     1      43.340   2.860  12.438  0.00  0.00    +0.000 HD
ENDBRANCH   8  10
ENDBRANCH   1   4
BRANCH   1  17
ATOM     17  C   UNL     1      48.799   8.379  14.242  0.00  0.00    +0.000 C 
BRANCH  17  22
ATOM     18  C   UNL     1      48.304   5.074  16.102  0.00  0.00    +0.000 A 
ATOM     19  C   UNL     1      49.308   5.143  17.069  0.00  0.00    +0.000 A 
ATOM     20  C   UNL     1      50.178   6.232  17.084  0.00  0.00    +0.000 A 
ATOM     21  C   UNL     1      50.038   7.257  16.144  0.00  0.00    +0.000 A 
ATOM     22  C   UNL     1      48.998   7.229  15.204  0.00  0.00    +0.000 A 
ATOM     23  C   UNL     1      48.124   6.131  15.202  0.00  0.00    +0.000 A 
BRANCH  18  25
ATOM     24  O   UNL     1      46.681   3.570  16.980  0.00  0.00    +0.000 OA
ATOM     25  C   UNL     1      47.430   3.877  16.069  0.00  0.00    +0.000 C 
BRANCH  25  26
ATOM     26  O   UNL     1      47.597   3.129  14.956  0.00  0.00    +0.000 OA
ATOM     27  H   UNL     1      46.826   2.578  14.713  0.00  0.00    +0.000 HD
ENDBRANCH  25  26
ENDBRANCH  18  25
ENDBRANCH  17  22
ENDBRANCH   1  17
TORSDOF 6
ENDMDL
MODEL 4
REMARK VINA RESULT:    -6.585      2.596      3.933
REMARK INTER + INTRA:          -9.938
REMARK INTER:                  -9.004
REMARK INTRA:                  -0.934
REMARK UNBOUND:                -1.235
REMARK  Name = 
REMARK  6 active torsions:
REMARK  status: ('A' for Active; 'I' for Inactive)
REMARK    1  A    between atoms: C_2  and  O_3
REMARK    2  A    between atoms: C_2  and  C_4
REMARK    3  A    between atoms: C_8  and  C_9
REMARK    4  A    between atoms: C_9  and  C_10
REMARK    5  A    between atoms: C_10  and  C_11
REMARK    6  A    between atoms: C_15  and  C_16
REMARK                            x       y       z     vdW  Elec       q    Type
REMARK                         _______ _______ _______ _____ _____    ______ ____
ROOT
ATOM      1  C   UNL     1      45.770   6.100  11.923  0.00  0.00    +0.000 C 
ATOM      2  C   UNL     1      46.258   4.826  12.598  0.00  0.00    +0.000 C 
ATOM      3  C   UNL     1      45.259   5.684  13.301  0.00  0.00    +0.000 C 
ENDROOT
BRANCH   1   4
ATOM      4  C   UNL     1      46.613   7.377  11.950  0.00  0.00    +0.000 A 
ATOM      5  C   UNL     1      48.002   7.332  11.740  0.00  0.00    +0.000 A 
ATOM      6  C   UNL     1      48.769   8.490  11.711  0.00  0.00    +0.000 A 
ATOM      7  C   UNL     1      48.153   9.732  11.821  0.00  0.00    +0.000 A 
ATOM      8  C   UNL     1      46.768   9.838  11.983  0.00  0.00    +0.000 A 
ATOM      9  C   UNL     1      46.032   8.649  12.102  0.00  0.00    +0.000 A 
BRANCH   8  10
ATOM     10  C   UNL     1      46.007  11.158  11.947  0.00  0.00    +0.000 C 
ATOM     11  C   UNL     1      44.541  10.995  11.516  0.00  0.00    +0.000 C 
ATOM     12  C   UNL     1      44.365  10.909  10.002  0.00  0.00    +0.000 C 
ATOM     13  N   UNL     1      45.030  12.001   9.289  0.00  0.00    +0.000 NA
ATOM     14  C   UNL     1      46.447  12.141   9.634  0.00  0.00    +0.000 C 
ATOM     15  C   UNL     1      46.684  12.267  11.136  0.00  0.00    +0.000 C 
ATOM     16  H   UNL     1      44.552  12.873   9.507  0.00  0.00    +0.000 HD
ENDBRANCH   8  10
ENDBRANCH   1   4
BRANCH   1  17
ATOM     17  C   UNL     1      44.796   5.940  10.756  0.00  0.00    +0.000 C 
BRANCH  17  22
ATOM     18  C   UNL     1      46.030   3.419   8.158  0.00  0.00    +0.000 A 
ATOM     19  C   UNL     1      45.267   2.293   8.475  0.00  0.00    +0.000 A 
ATOM     20  C   UNL     1      44.395   2.334   9.561  0.00  0.00    +0.000 A 
ATOM     21  C   UNL     1      44.275   3.500  10.323  0.00  0.00    +0.000 A 
ATOM     22  C   UNL     1      44.990   4.656   9.981  0.00  0.00    +0.000 A 
ATOM     23  C   UNL     1      45.861   4.605   8.881  0.00  0.00    +0.000 A 
BRANCH  18  25
ATOM     24  O   UNL     1      47.932   2.553   7.018  0.00  0.00    +0.000 OA
ATOM     25  C   UNL     1      46.994   3.331   7.036  0.00  0.00    +0.000 C 
BRANCH  25  26
ATOM     26  O   UNL     1      46.764   4.245   6.066  0.00  0.00    +0.000 OA
ATOM     27  H   UNL     1      45.910   4.716   6.141  0.00  0.00    +0.000 HD
ENDBRANCH  25  26
ENDBRANCH  18  25
ENDBRANCH  17  22
ENDBRANCH   1  17
TORSDOF 6
ENDMDL
MODEL 5
REMARK VINA RESULT:    -6.243      3.760      6.249
REMARK INTER + INTRA:          -9.486
REMARK INTER:                  -7.981
REMARK INTRA:                  -1.505
REMARK UNBOUND:                -1.235
REMARK  Name = 
REMARK  6 active torsions:
REMARK  status: ('A' for Active; 'I' for Inactive)
REMARK    1  A    between atoms: C_2  and  O_3
REMARK    2  A    between atoms: C_2  and  C_4
REMARK    3  A    between atoms: C_8  and  C_9
REMARK    4  A    between atoms: C_9  and  C_10
REMARK    5  A    between atoms: C_10  and  C_11
REMARK    6  A    between atoms: C_15  and  C_16
REMARK                            x       y       z     vdW  Elec       q    Type
REMARK                         _______ _______ _______ _____ _____    ______ ____
ROOT
ATOM      1  C   UNL     1      49.453   8.122  13.212  0.00  0.00    +0.000 C 
ATOM      2  C   UNL     1      49.637   9.372  12.361  0.00  0.00    +0.000 C 
ATOM      3  C   UNL     1      50.843   8.623  12.824  0.00  0.00    +0.000 C 
ENDROOT
BRANCH   1   4
ATOM      4  C   UNL     1      49.168   8.228  14.712  0.00  0.00    +0.000 A 
ATOM      5  C   UNL     1      48.546   9.366  15.253  0.00  0.00    +0.000 A 
ATOM      6  C   UNL     1      48.237   9.451  16.604  0.00  0.00    +0.000 A 
ATOM      7  C   UNL     1      48.478   8.365  17.439  0.00  0.00    +0.000 A 
ATOM      8  C   UNL     1      49.052   7.189  16.946  0.00  0.00    +0.000 A 
ATOM      9  C   UNL     1      49.439   7.168  15.596  0.00  0.00    +0.000 A 
BRANCH   8  10
ATOM     10  C   UNL     1      49.197   5.908  17.758  0.00  0.00    +0.000 C 
ATOM     11  C   UNL     1      48.872   4.643  16.949  0.00  0.00    +0.000 C 
ATOM     12  C   UNL     1      47.376   4.355  16.855  0.00  0.00    +0.000 C 
ATOM     13  N   UNL     1      46.713   4.359  18.160  0.00  0.00    +0.000 NA
ATOM     14  C   UNL     1      46.955   5.581  18.930  0.00  0.00    +0.000 C 
ATOM     15  C   UNL     1      48.438   5.903  19.088  0.00  0.00    +0.000 C 
ATOM     16  H   UNL     1      47.047   3.561  18.699  0.00  0.00    +0.000 HD
ENDBRANCH   8  10
ENDBRANCH   1   4
BRANCH   1  17
ATOM     17  C   UNL     1      48.957   6.863  12.501  0.00  0.00    +0.000 C 
BRANCH  17  22
ATOM     18  C   UNL     1      45.507   5.236  12.773  0.00  0.00    +0.000 A 
ATOM     19  C   UNL     1      44.664   6.335  12.600  0.00  0.00    +0.000 A 
ATOM     20  C   UNL     1      45.211   7.608  12.451  0.00  0.00    +0.000 A 
ATOM     21  C   UNL     1      46.598   7.783  12.461  0.00  0.00    +0.000 A 
ATOM     22  C   UNL     1      47.457   6.681  12.574  0.00  0.00    +0.000 A 
ATOM     23  C   UNL     1      46.895   5.403  12.718  0.00  0.00    +0.000 A 
BRANCH  18  25
ATOM     24  O   UNL     1      43.733   3.740  13.306  0.00  0.00    +0.000 OA
ATOM     25  C   UNL     1      44.899   3.902  12.990  0.00  0.00    +0.000 C 
BRANCH  25  26
ATOM     26  O   UNL     1      45.785   2.888  12.864  0.00  0.00    +0.000 OA
ATOM     27  H   UNL     1      45.503   2.169  12.265  0.00  0.00    +0.000 HD
ENDBRANCH  25  26
ENDBRANCH  18  25
ENDBRANCH  17  22
ENDBRANCH   1  17
TORSDOF 6
ENDMDL
MODEL 6
REMARK VINA RESULT:    -6.196      4.411      6.570
REMARK INTER + INTRA:          -9.424
REMARK INTER:                  -7.755
REMARK INTRA:                  -1.669
REMARK UNBOUND:                -1.235
REMARK  Name = 
REMARK  6 active torsions:
REMARK  status: ('A' for Active; 'I' for Inactive)
REMARK    1  A    between atoms: C_2  and  O_3
REMARK    2  A    between atoms: C_2  and  C_4
REMARK    3  A    between atoms: C_8  and  C_9
REMARK    4  A    between atoms: C_9  and  C_10
REMARK    5  A    between atoms: C_10  and  C_11
REMARK    6  A    between atoms: C_15  and  C_16
REMARK                            x       y       z     vdW  Elec       q    Type
REMARK                         _______ _______ _______ _____ _____    ______ ____
ROOT
ATOM      1  C   UNL     1      49.335   7.939  13.059  0.00  0.00    +0.000 C 
ATOM      2  C   UNL     1      49.370   9.130  12.112  0.00  0.00    +0.000 C 
ATOM      3  C   UNL     1      50.657   8.521  12.562  0.00  0.00    +0.000 C 
ENDROOT
BRANCH   1   4
ATOM      4  C   UNL     1      49.114   8.135  14.561  0.00  0.00    +0.000 A 
ATOM      5  C   UNL     1      48.527   9.311  15.059  0.00  0.00    +0.000 A 
ATOM      6  C   UNL     1      48.274   9.479  16.414  0.00  0.00    +0.000 A 
ATOM      7  C   UNL     1      48.539   8.441  17.302  0.00  0.00    +0.000 A 
ATOM      8  C   UNL     1      49.079   7.231  16.855  0.00  0.00    +0.000 A 
ATOM      9  C   UNL     1      49.410   7.126  15.495  0.00  0.00    +0.000 A 
BRANCH   8  10
ATOM     10  C   UNL     1      49.245   5.998  17.735  0.00  0.00    +0.000 C 
ATOM     11  C   UNL     1      48.921   4.687  17.001  0.00  0.00    +0.000 C 
ATOM     12  C   UNL     1      47.425   4.384  16.942  0.00  0.00    +0.000 C 
ATOM     13  N   UNL     1      46.778   4.455  18.253  0.00  0.00    +0.000 NA
ATOM     14  C   UNL     1      47.019   5.720  18.951  0.00  0.00    +0.000 C 
ATOM     15  C   UNL     1      48.501   6.060  19.073  0.00  0.00    +0.000 C 
ATOM     16  H   UNL     1      47.125   3.691  18.830  0.00  0.00    +0.000 HD
ENDBRANCH   8  10
ENDBRANCH   1   4
BRANCH   1  17
ATOM     17  C   UNL     1      48.916   6.592  12.470  0.00  0.00    +0.000 C 
BRANCH  17  22
ATOM     18  C   UNL     1      45.125   6.934  12.093  0.00  0.00    +0.000 A 
ATOM     19  C   UNL     1      44.668   5.875  12.879  0.00  0.00    +0.000 A 
ATOM     20  C   UNL     1      45.586   5.020  13.486  0.00  0.00    +0.000 A 
ATOM     21  C   UNL     1      46.959   5.228  13.319  0.00  0.00    +0.000 A 
ATOM     22  C   UNL     1      47.432   6.321  12.581  0.00  0.00    +0.000 A 
ATOM     23  C   UNL     1      46.498   7.180  11.979  0.00  0.00    +0.000 A 
BRANCH  18  25
ATOM     24  O   UNL     1      44.301   8.981  11.200  0.00  0.00    +0.000 OA
ATOM     25  C   UNL     1      44.129   7.793  11.409  0.00  0.00    +0.000 C 
BRANCH  25  26
ATOM     26  O   UNL     1      42.987   7.138  11.101  0.00  0.00    +0.000 OA
ATOM     27  H   UNL     1      42.491   6.796  11.871  0.00  0.00    +0.000 HD
ENDBRANCH  25  26
ENDBRANCH  18  25
ENDBRANCH  17  22
ENDBRANCH   1  17
TORSDOF 6
ENDMDL
MODEL 7
REMARK VINA RESULT:    -6.160      2.867      5.621
REMARK INTER + INTRA:          -9.376
REMARK INTER:                  -8.904
REMARK INTRA:                  -0.472
REMARK UNBOUND:                -1.235
REMARK  Name = 
REMARK  6 active torsions:
REMARK  status: ('A' for Active; 'I' for Inactive)
REMARK    1  A    between atoms: C_2  and  O_3
REMARK    2  A    between atoms: C_2  and  C_4
REMARK    3  A    between atoms: C_8  and  C_9
REMARK    4  A    between atoms: C_9  and  C_10
REMARK    5  A    between atoms: C_10  and  C_11
REMARK    6  A    between atoms: C_15  and  C_16
REMARK                            x       y       z     vdW  Elec       q    Type
REMARK                         _______ _______ _______ _____ _____    ______ ____
ROOT
ATOM      1  C   UNL     1      48.119   7.836  12.831  0.00  0.00    +0.000 C 
ATOM      2  C   UNL     1      48.630   8.904  11.874  0.00  0.00    +0.000 C 
ATOM      3  C   UNL     1      48.742   7.467  11.486  0.00  0.00    +0.000 C 
ENDROOT
BRANCH   1   4
ATOM      4  C   UNL     1      48.958   7.389  14.030  0.00  0.00    +0.000 A 
ATOM      5  C   UNL     1      50.217   7.958  14.285  0.00  0.00    +0.000 A 
ATOM      6  C   UNL     1      50.965   7.597  15.399  0.00  0.00    +0.000 A 
ATOM      7  C   UNL     1      50.438   6.705  16.327  0.00  0.00    +0.000 A 
ATOM      8  C   UNL     1      49.170   6.143  16.148  0.00  0.00    +0.000 A 
ATOM      9  C   UNL     1      48.479   6.456  14.967  0.00  0.00    +0.000 A 
BRANCH   8  10
ATOM     10  C   UNL     1      48.463   5.290  17.195  0.00  0.00    +0.000 C 
ATOM     11  C   UNL     1      49.434   4.473  18.060  0.00  0.00    +0.000 C 
ATOM     12  C   UNL     1      49.896   3.181  17.390  0.00  0.00    +0.000 C 
ATOM     13  N   UNL     1      48.784   2.369  16.893  0.00  0.00    +0.000 NA
ATOM     14  C   UNL     1      47.874   3.106  16.014  0.00  0.00    +0.000 C 
ATOM     15  C   UNL     1      47.350   4.393  16.645  0.00  0.00    +0.000 C 
ATOM     16  H   UNL     1      48.256   2.015  17.689  0.00  0.00    +0.000 HD
ENDBRANCH   8  10
ENDBRANCH   1   4
BRANCH   1  17
ATOM     17  C   UNL     1      46.604   7.676  12.950  0.00  0.00    +0.000 C 
BRANCH  17  22
ATOM     18  C   UNL     1      45.379   4.965  10.546  0.00  0.00    +0.000 A 
ATOM     19  C   UNL     1      45.042   3.938  11.429  0.00  0.00    +0.000 A 
ATOM     20  C   UNL     1      45.261   4.103  12.795  0.00  0.00    +0.000 A 
ATOM     21  C   UNL     1      45.805   5.296  13.281  0.00  0.00    +0.000 A 
ATOM     22  C   UNL     1      46.094   6.357  12.413  0.00  0.00    +0.000 A 
ATOM     23  C   UNL     1      45.863   6.182  11.039  0.00  0.00    +0.000 A 
BRANCH  18  25
ATOM     24  O   UNL     1      46.068   4.935   8.267  0.00  0.00    +0.000 OA
ATOM     25  C   UNL     1      45.192   4.742   9.092  0.00  0.00    +0.000 C 
BRANCH  25  26
ATOM     26  O   UNL     1      43.934   4.366   8.771  0.00  0.00    +0.000 OA
ATOM     27  H   UNL     1      43.877   3.592   8.176  0.00  0.00    +0.000 HD
ENDBRANCH  25  26
ENDBRANCH  18  25
ENDBRANCH  17  22
ENDBRANCH   1  17
TORSDOF 6
ENDMDL
MODEL 8
REMARK VINA RESULT:    -6.148      4.115      7.435
REMARK INTER + INTRA:          -9.361
REMARK INTER:                  -8.873
REMARK INTRA:                  -0.488
REMARK UNBOUND:                -1.235
REMARK  Name = 
REMARK  6 active torsions:
REMARK  status: ('A' for Active; 'I' for Inactive)
REMARK    1  A    between atoms: C_2  and  O_3
REMARK    2  A    between atoms: C_2  and  C_4
REMARK    3  A    between atoms: C_8  and  C_9
REMARK    4  A    between atoms: C_9  and  C_10
REMARK    5  A    between atoms: C_10  and  C_11
REMARK    6  A    between atoms: C_15  and  C_16
REMARK                            x       y       z     vdW  Elec       q    Type
REMARK                         _______ _______ _______ _____ _____    ______ ____
ROOT
ATOM      1  C   UNL     1      48.830   8.235  12.642  0.00  0.00    +0.000 C 
ATOM      2  C   UNL     1      50.340   8.048  12.583  0.00  0.00    +0.000 C 
ATOM      3  C   UNL     1      49.588   8.296  11.317  0.00  0.00    +0.000 C 
ENDROOT
BRANCH   1   4
ATOM      4  C   UNL     1      47.892   7.029  12.747  0.00  0.00    +0.000 A 
ATOM      5  C   UNL     1      47.864   6.232  13.904  0.00  0.00    +0.000 A 
ATOM      6  C   UNL     1      46.981   5.167  14.031  0.00  0.00    +0.000 A 
ATOM      7  C   UNL     1      46.051   4.916  13.027  0.00  0.00    +0.000 A 
ATOM      8  C   UNL     1      46.001   5.708  11.875  0.00  0.00    +0.000 A 
ATOM      9  C   UNL     1      46.967   6.717  11.735  0.00  0.00    +0.000 A 
BRANCH   8  10
ATOM     10  C   UNL     1      44.913   5.597  10.814  0.00  0.00    +0.000 C 
ATOM     11  C   UNL     1      43.517   5.961  11.345  0.00  0.00    +0.000 C 
ATOM     12  C   UNL     1      42.838   4.815  12.091  0.00  0.00    +0.000 C 
ATOM     13  N   UNL     1      42.829   3.567  11.327  0.00  0.00    +0.000 NA
ATOM     14  C   UNL     1      44.156   3.161  10.860  0.00  0.00    +0.000 C 
ATOM     15  C   UNL     1      44.872   4.256  10.075  0.00  0.00    +0.000 C 
ATOM     16  H   UNL     1      42.218   3.682  10.519  0.00  0.00    +0.000 HD
ENDBRANCH   8  10
ENDBRANCH   1   4
BRANCH   1  17
ATOM     17  C   UNL     1      48.314   9.561  13.198  0.00  0.00    +0.000 C 
BRANCH  17  22
ATOM     18  C   UNL     1      45.204  10.677  11.271  0.00  0.00    +0.000 A 
ATOM     19  C   UNL     1      45.744  11.611  10.384  0.00  0.00    +0.000 A 
ATOM     20  C   UNL     1      47.102  11.918  10.446  0.00  0.00    +0.000 A 
ATOM     21  C   UNL     1      47.923  11.285  11.384  0.00  0.00    +0.000 A 
ATOM     22  C   UNL     1      47.407  10.303  12.241  0.00  0.00    +0.000 A 
ATOM     23  C   UNL     1      46.039   9.998  12.166  0.00  0.00    +0.000 A 
BRANCH  18  25
ATOM     24  O   UNL     1      42.934  11.021  11.900  0.00  0.00    +0.000 OA
ATOM     25  C   UNL     1      43.747  10.413  11.225  0.00  0.00    +0.000 C 
BRANCH  25  26
ATOM     26  O   UNL     1      43.419   9.387  10.407  0.00  0.00    +0.000 OA
ATOM     27  H   UNL     1      43.748   9.473   9.490  0.00  0.00    +0.000 HD
ENDBRANCH  25  26
ENDBRANCH  18  25
ENDBRANCH  17  22
ENDBRANCH   1  17
TORSDOF 6
ENDMDL
MODEL 9
REMARK VINA RESULT:    -6.087      3.967      7.054
REMARK INTER + INTRA:          -9.279
REMARK INTER:                  -8.263
REMARK INTRA:                  -1.016
REMARK UNBOUND:                -1.235
REMARK  Name = 
REMARK  6 active torsions:
REMARK  status: ('A' for Active; 'I' for Inactive)
REMARK    1  A    between atoms: C_2  and  O_3
REMARK    2  A    between atoms: C_2  and  C_4
REMARK    3  A    between atoms: C_8  and  C_9
REMARK    4  A    between atoms: C_9  and  C_10
REMARK    5  A    between atoms: C_10  and  C_11
REMARK    6  A    between atoms: C_15  and  C_16
REMARK                            x       y       z     vdW  Elec       q    Type
REMARK                         _______ _______ _______ _____ _____    ______ ____
ROOT
ATOM      1  C   UNL     1      49.517   8.021  15.064  0.00  0.00    +0.000 C 
ATOM      2  C   UNL     1      48.396   8.808  15.728  0.00  0.00    +0.000 C 
ATOM      3  C   UNL     1      49.735   9.447  15.567  0.00  0.00    +0.000 C 
ENDROOT
BRANCH   1   4
ATOM      4  C   UNL     1      50.314   6.974  15.847  0.00  0.00    +0.000 A 
ATOM      5  C   UNL     1      51.717   7.025  15.903  0.00  0.00    +0.000 A 
ATOM      6  C   UNL     1      52.448   6.111  16.651  0.00  0.00    +0.000 A 
ATOM      7  C   UNL     1      51.786   5.163  17.425  0.00  0.00    +0.000 A 
ATOM      8  C   UNL     1      50.389   5.097  17.445  0.00  0.00    +0.000 A 
ATOM      9  C   UNL     1      49.682   5.973  16.606  0.00  0.00    +0.000 A 
BRANCH   8  10
ATOM     10  C   UNL     1      49.594   4.199  18.386  0.00  0.00    +0.000 C 
ATOM     11  C   UNL     1      49.306   2.812  17.791  0.00  0.00    +0.000 C 
ATOM     12  C   UNL     1      48.107   2.799  16.844  0.00  0.00    +0.000 C 
ATOM     13  N   UNL     1      46.912   3.405  17.433  0.00  0.00    +0.000 NA
ATOM     14  C   UNL     1      47.142   4.754  17.954  0.00  0.00    +0.000 C 
ATOM     15  C   UNL     1      48.308   4.824  18.935  0.00  0.00    +0.000 C 
ATOM     16  H   UNL     1      46.585   2.811  18.194  0.00  0.00    +0.000 HD
ENDBRANCH   8  10
ENDBRANCH   1   4
BRANCH   1  17
ATOM     17  C   UNL     1      49.435   7.835  13.550  0.00  0.00    +0.000 C 
BRANCH  17  22
ATOM     18  C   UNL     1      46.542   5.403  12.967  0.00  0.00    +0.000 A 
ATOM     19  C   UNL     1      45.714   6.148  12.125  0.00  0.00    +0.000 A 
ATOM     20  C   UNL     1      46.066   7.454  11.790  0.00  0.00    +0.000 A 
ATOM     21  C   UNL     1      47.248   8.013  12.285  0.00  0.00    +0.000 A 
ATOM     22  C   UNL     1      48.118   7.257  13.084  0.00  0.00    +0.000 A 
ATOM     23  C   UNL     1      47.756   5.940  13.410  0.00  0.00    +0.000 A 
BRANCH  18  25
ATOM     24  O   UNL     1      46.898   3.149  13.647  0.00  0.00    +0.000 OA
ATOM     25  C   UNL     1      46.116   4.038  13.356  0.00  0.00    +0.000 C 
BRANCH  25  26
ATOM     26  O   UNL     1      44.777   3.862  13.294  0.00  0.00    +0.000 OA
ATOM     27  H   UNL     1      44.277   4.252  14.038  0.00  0.00    +0.000 HD
ENDBRANCH  25  26
ENDBRANCH  18  25
ENDBRANCH  17  22
ENDBRANCH   1  17
TORSDOF 6
ENDMDL
