MODEL 1
REMARK VINA RESULT:    -7.964      0.000      0.000
REMARK INTER + INTRA:         -12.381
REMARK INTER:                 -11.224
REMARK INTRA:                  -1.157
REMARK UNBOUND:                -1.157
REMARK  Name = 
REMARK  7 active torsions:
REMARK  status: ('A' for Active; 'I' for Inactive)
REMARK    1  A    between atoms: C_2  and  C_20
REMARK    2  A    between atoms: N_3  and  C_4
REMARK    3  A    between atoms: C_4  and  C_5
REMARK    4  A    between atoms: C_8  and  C_9
REMARK    5  A    between atoms: C_9  and  N_10
REMARK    6  A    between atoms: N_10  and  C_11
REMARK    7  A    between atoms: C_11  and  C_12
REMARK                            x       y       z     vdW  Elec       q    Type
REMARK                         _______ _______ _______ _____ _____    ______ ____
ROOT
ATOM      1  C   UNL     1      46.456   7.143  12.600  0.00  0.00    +0.000 A 
ATOM      2  C   UNL     1      47.192   6.066  13.120  0.00  0.00    +0.000 A 
ATOM      3  C   UNL     1      48.070   6.260  14.194  0.00  0.00    +0.000 A 
ATOM      4  C   UNL     1      48.228   7.524  14.774  0.00  0.00    +0.000 A 
ATOM      5  C   UNL     1      47.480   8.593  14.262  0.00  0.00    +0.000 A 
ATOM      6  C   UNL     1      46.600   8.405  13.194  0.00  0.00    +0.000 A 
ENDROOT
BRANCH   1   7
ATOM      7  C   UNL     1      45.489   6.950  11.456  0.00  0.00    +0.000 C 
BRANCH   7  10
ATOM      8  O   UNL     1      43.039   5.638  10.820  0.00  0.00    +0.000 OA
ATOM      9  C   UNL     1      44.118   5.047  10.706  0.00  0.00    +0.000 C 
ATOM     10  N   UNL     1      45.317   5.555  11.148  0.00  0.00    +0.000 N 
ATOM     11  H   UNL     1      46.132   5.001  10.883  0.00  0.00    +0.000 HD
BRANCH   9  12
ATOM     12  C   UNL     1      44.284   3.780   9.963  0.00  0.00    +0.000 A 
ATOM     13  N   UNL     1      43.716   2.641  10.423  0.00  0.00    +0.000 NA
ATOM     14  N   UNL     1      44.305   1.681   9.694  0.00  0.00    +0.000 N 
ATOM     15  C   UNL     1      45.260   2.138   8.833  0.00  0.00    +0.000 A 
ATOM     16  C   UNL     1      46.218   1.466   8.068  0.00  0.00    +0.000 A 
ATOM     17  C   UNL     1      47.028   2.247   7.236  0.00  0.00    +0.000 A 
ATOM     18  C   UNL     1      46.840   3.626   7.139  0.00  0.00    +0.000 A 
ATOM     19  C   UNL     1      45.908   4.284   7.951  0.00  0.00    +0.000 A 
ATOM     20  C   UNL     1      45.137   3.524   8.852  0.00  0.00    +0.000 A 
ATOM     21  H   UNL     1      44.037   0.717   9.863  0.00  0.00    +0.000 HD
ENDBRANCH   9  12
ENDBRANCH   7  10
ENDBRANCH   1   7
BRANCH   4  22
ATOM     22  C   UNL     1      49.159   7.736  15.948  0.00  0.00    +0.000 C 
BRANCH  22  23
ATOM     23  N   UNL     1      48.438   7.721  17.219  0.00  0.00    +0.000 NA
ATOM     24  H   UNL     1      47.467   7.462  17.045  0.00  0.00    +0.000 HD
BRANCH  23  25
ATOM     25  C   UNL     1      49.030   6.760  18.150  0.00  0.00    +0.000 C 
BRANCH  25  26
ATOM     26  C   UNL     1      48.780   5.344  17.705  0.00  0.00    +0.000 A 
ATOM     27  C   UNL     1      47.484   4.832  17.589  0.00  0.00    +0.000 A 
ATOM     28  C   UNL     1      47.291   3.517  17.176  0.00  0.00    +0.000 A 
ATOM     29  C   UNL     1      48.411   2.750  16.897  0.00  0.00    +0.000 A 
ATOM     30  N   UNL     1      49.680   3.197  17.012  0.00  0.00    +0.000 NA
ATOM     31  C   UNL     1      49.836   4.482  17.415  0.00  0.00    +0.000 A 
ENDBRANCH  25  26
ENDBRANCH  23  25
ENDBRANCH  22  23
ENDBRANCH   4  22
TORSDOF 7
ENDMDL
MODEL 2
REMARK VINA RESULT:    -7.918      2.177      8.474
REMARK INTER + INTRA:         -12.315
REMARK INTER:                 -10.999
REMARK INTRA:                  -1.316
REMARK UNBOUND:                -1.157
REMARK  Name = 
REMARK  7 active torsions:
REMARK  status: ('A' for Active; 'I' for Inactive)
REMARK    1  A    between atoms: C_2  and  C_20
REMARK    2  A    between atoms: N_3  and  C_4
REMARK    3  A    between atoms: C_4  and  C_5
REMARK    4  A    between atoms: C_8  and  C_9
REMARK    5  A    between atoms: C_9  and  N_10
REMARK    6  A    between atoms: N_10  and  C_11
REMARK    7  A    between atoms: C_11  and  C_12
REMARK                            x       y       z     vdW  Elec       q    Type
REMARK                         _______ _______ _______ _____ _____    ______ ____
ROOT
ATOM      1  C   UNL     1      46.831   6.435  12.732  0.00  0.00    +0.000 A 
ATOM      2  C   UNL     1      46.346   5.401  13.549  0.00  0.00    +0.000 A 
ATOM      3  C   UNL     1      45.451   4.453  13.037  0.00  0.00    +0.000 A 
ATOM      4  C   UNL     1      45.028   4.510  11.704  0.00  0.00    +0.000 A 
ATOM      5  C   UNL     1      45.527   5.534  10.888  0.00  0.00    +0.000 A 
ATOM      6  C   UNL     1      46.422   6.480  11.391  0.00  0.00    +0.000 A 
ENDROOT
BRANCH   1   7
ATOM      7  C   UNL     1      47.813   7.455  13.259  0.00  0.00    +0.000 C 
BRANCH   7  10
ATOM      8  O   UNL     1      48.634   8.513  15.775  0.00  0.00    +0.000 OA
ATOM      9  C   UNL     1      48.958   7.370  15.437  0.00  0.00    +0.000 C 
ATOM     10  N   UNL     1      48.742   6.856  14.180  0.00  0.00    +0.000 N 
ATOM     11  H   UNL     1      48.963   5.863  14.087  0.00  0.00    +0.000 HD
BRANCH   9  12
ATOM     12  C   UNL     1      49.497   6.360  16.372  0.00  0.00    +0.000 A 
ATOM     13  N   UNL     1      50.812   6.362  16.692  0.00  0.00    +0.000 NA
ATOM     14  N   UNL     1      50.990   5.175  17.294  0.00  0.00    +0.000 N 
ATOM     15  C   UNL     1      49.873   4.391  17.325  0.00  0.00    +0.000 A 
ATOM     16  C   UNL     1      49.693   3.047  17.668  0.00  0.00    +0.000 A 
ATOM     17  C   UNL     1      48.384   2.556  17.639  0.00  0.00    +0.000 A 
ATOM     18  C   UNL     1      47.308   3.392  17.337  0.00  0.00    +0.000 A 
ATOM     19  C   UNL     1      47.517   4.721  16.949  0.00  0.00    +0.000 A 
ATOM     20  C   UNL     1      48.836   5.213  16.897  0.00  0.00    +0.000 A 
ATOM     21  H   UNL     1      51.918   4.941  17.630  0.00  0.00    +0.000 HD
ENDBRANCH   9  12
ENDBRANCH   7  10
ENDBRANCH   1   7
BRANCH   4  22
ATOM     22  C   UNL     1      44.078   3.477  11.139  0.00  0.00    +0.000 C 
BRANCH  22  23
ATOM     23  N   UNL     1      44.795   2.353  10.543  0.00  0.00    +0.000 NA
ATOM     24  H   UNL     1      44.540   1.498  11.037  0.00  0.00    +0.000 HD
BRANCH  23  25
ATOM     25  C   UNL     1      44.459   2.204   9.125  0.00  0.00    +0.000 C 
BRANCH  25  26
ATOM     26  C   UNL     1      45.684   2.322   8.259  0.00  0.00    +0.000 A 
ATOM     27  C   UNL     1      46.059   3.542   7.687  0.00  0.00    +0.000 A 
ATOM     28  C   UNL     1      47.198   3.614   6.890  0.00  0.00    +0.000 A 
ATOM     29  C   UNL     1      47.925   2.452   6.683  0.00  0.00    +0.000 A 
ATOM     30  N   UNL     1      47.590   1.251   7.201  0.00  0.00    +0.000 NA
ATOM     31  C   UNL     1      46.477   1.212   7.975  0.00  0.00    +0.000 A 
ENDBRANCH  25  26
ENDBRANCH  23  25
ENDBRANCH  22  23
ENDBRANCH   4  22
TORSDOF 7
ENDMDL
MODEL 3
REMARK VINA RESULT:    -7.820      2.459      9.410
REMARK INTER + INTRA:         -12.178
REMARK INTER:                 -11.434
REMARK INTRA:                  -0.744
REMARK UNBOUND:                -1.157
REMARK  Name = 
REMARK  7 active torsions:
REMARK  status: ('A' for Active; 'I' for Inactive)
REMARK    1  A    between atoms: C_2  and  C_20
REMARK    2  A    between atoms: N_3  and  C_4
REMARK    3  A    between atoms: C_4  and  C_5
REMARK    4  A    between atoms: C_8  and  C_9
REMARK    5  A    between atoms: C_9  and  N_10
REMARK    6  A    between atoms: N_10  and  C_11
REMARK    7  A    between atoms: C_11  and  C_12
REMARK                            x       y       z     vdW  Elec       q    Type
REMARK                         _______ _______ _______ _____ _____    ______ ____
ROOT
ATOM      1  C   UNL     1      46.774   5.767  13.199  0.00  0.00    +0.000 A 
ATOM      2  C   UNL     1      46.178   4.503  13.333  0.00  0.00    +0.000 A 
ATOM      3  C   UNL     1      45.133   4.117  12.483  0.00  0.00    +0.000 A 
ATOM      4  C   UNL     1      44.668   4.976  11.481  0.00  0.00    +0.000 A 
ATOM      5  C   UNL     1      45.276   6.231  11.340  0.00  0.00    +0.000 A 
ATOM      6  C   UNL     1      46.320   6.619  12.182  0.00  0.00    +0.000 A 
ENDROOT
BRANCH   1   7
ATOM      7  C   UNL     1      47.916   6.194  14.091  0.00  0.00    +0.000 C 
BRANCH   7  10
ATOM      8  O   UNL     1      49.941   5.854  16.068  0.00  0.00    +0.000 OA
ATOM      9  C   UNL     1      48.747   5.732  16.363  0.00  0.00    +0.000 C 
ATOM     10  N   UNL     1      47.731   5.717  15.437  0.00  0.00    +0.000 N 
ATOM     11  H   UNL     1      46.793   5.722  15.841  0.00  0.00    +0.000 HD
BRANCH   9  12
ATOM     12  C   UNL     1      48.243   5.720  17.752  0.00  0.00    +0.000 A 
ATOM     13  N   UNL     1      47.178   4.953  18.083  0.00  0.00    +0.000 NA
ATOM     14  N   UNL     1      46.829   5.408  19.297  0.00  0.00    +0.000 N 
ATOM     15  C   UNL     1      47.577   6.463  19.735  0.00  0.00    +0.000 A 
ATOM     16  C   UNL     1      47.412   7.330  20.820  0.00  0.00    +0.000 A 
ATOM     17  C   UNL     1      48.406   8.293  21.019  0.00  0.00    +0.000 A 
ATOM     18  C   UNL     1      49.537   8.339  20.201  0.00  0.00    +0.000 A 
ATOM     19  C   UNL     1      49.657   7.493  19.092  0.00  0.00    +0.000 A 
ATOM     20  C   UNL     1      48.628   6.568  18.829  0.00  0.00    +0.000 A 
ATOM     21  H   UNL     1      46.037   4.978  19.762  0.00  0.00    +0.000 HD
ENDBRANCH   9  12
ENDBRANCH   7  10
ENDBRANCH   1   7
BRANCH   4  22
ATOM     22  C   UNL     1      43.554   4.558  10.546  0.00  0.00    +0.000 C 
BRANCH  22  23
ATOM     23  N   UNL     1      43.976   3.481   9.652  0.00  0.00    +0.000 NA
ATOM     24  H   UNL     1      43.150   2.976   9.331  0.00  0.00    +0.000 HD
BRANCH  23  25
ATOM     25  C   UNL     1      44.695   4.009   8.492  0.00  0.00    +0.000 C 
BRANCH  25  26
ATOM     26  C   UNL     1      45.686   3.008   7.961  0.00  0.00    +0.000 A 
ATOM     27  C   UNL     1      46.578   3.336   6.936  0.00  0.00    +0.000 A 
ATOM     28  C   UNL     1      47.480   2.384   6.470  0.00  0.00    +0.000 A 
ATOM     29  C   UNL     1      47.454   1.123   7.044  0.00  0.00    +0.000 A 
ATOM     30  N   UNL     1      46.599   0.758   8.024  0.00  0.00    +0.000 NA
ATOM     31  C   UNL     1      45.733   1.707   8.459  0.00  0.00    +0.000 A 
ENDBRANCH  25  26
ENDBRANCH  23  25
ENDBRANCH  22  23
ENDBRANCH   4  22
TORSDOF 7
ENDMDL
MODEL 4
REMARK VINA RESULT:    -7.814      2.172      8.147
REMARK INTER + INTRA:         -12.169
REMARK INTER:                 -10.772
REMARK INTRA:                  -1.397
REMARK UNBOUND:                -1.157
REMARK  Name = 
REMARK  7 active torsions:
REMARK  status: ('A' for Active; 'I' for Inactive)
REMARK    1  A    between atoms: C_2  and  C_20
REMARK    2  A    between atoms: N_3  and  C_4
REMARK    3  A    between atoms: C_4  and  C_5
REMARK    4  A    between atoms: C_8  and  C_9
REMARK    5  A    between atoms: C_9  and  N_10
REMARK    6  A    between atoms: N_10  and  C_11
REMARK    7  A    between atoms: C_11  and  C_12
REMARK                            x       y       z     vdW  Elec       q    Type
REMARK                         _______ _______ _______ _____ _____    ______ ____
ROOT
ATOM      1  C   UNL     1      46.944   6.618  12.911  0.00  0.00    +0.000 A 
ATOM      2  C   UNL     1      46.875   5.290  13.360  0.00  0.00    +0.000 A 
ATOM      3  C   UNL     1      45.660   4.592  13.326  0.00  0.00    +0.000 A 
ATOM      4  C   UNL     1      44.496   5.198  12.839  0.00  0.00    +0.000 A 
ATOM      5  C   UNL     1      44.574   6.519  12.376  0.00  0.00    +0.000 A 
ATOM      6  C   UNL     1      45.782   7.218  12.404  0.00  0.00    +0.000 A 
ENDROOT
BRANCH   1   7
ATOM      7  C   UNL     1      48.249   7.380  12.919  0.00  0.00    +0.000 C 
BRANCH   7  10
ATOM      8  O   UNL     1      48.498   8.528  15.517  0.00  0.00    +0.000 OA
ATOM      9  C   UNL     1      49.047   7.455  15.248  0.00  0.00    +0.000 C 
ATOM     10  N   UNL     1      49.110   6.927  13.980  0.00  0.00    +0.000 N 
ATOM     11  H   UNL     1      49.497   5.983  13.935  0.00  0.00    +0.000 HD
BRANCH   9  12
ATOM     12  C   UNL     1      49.591   6.534  16.268  0.00  0.00    +0.000 A 
ATOM     13  N   UNL     1      50.889   6.622  16.641  0.00  0.00    +0.000 NA
ATOM     14  N   UNL     1      51.096   5.486  17.326  0.00  0.00    +0.000 N 
ATOM     15  C   UNL     1      50.017   4.650  17.361  0.00  0.00    +0.000 A 
ATOM     16  C   UNL     1      49.886   3.323  17.782  0.00  0.00    +0.000 A 
ATOM     17  C   UNL     1      48.604   2.766  17.731  0.00  0.00    +0.000 A 
ATOM     18  C   UNL     1      47.504   3.526  17.331  0.00  0.00    +0.000 A 
ATOM     19  C   UNL     1      47.667   4.838  16.867  0.00  0.00    +0.000 A 
ATOM     20  C   UNL     1      48.962   5.391  16.838  0.00  0.00    +0.000 A 
ATOM     21  H   UNL     1      52.018   5.320  17.714  0.00  0.00    +0.000 HD
ENDBRANCH   9  12
ENDBRANCH   7  10
ENDBRANCH   1   7
BRANCH   4  22
ATOM     22  C   UNL     1      43.186   4.444  12.779  0.00  0.00    +0.000 C 
BRANCH  22  23
ATOM     23  N   UNL     1      42.872   4.014  11.419  0.00  0.00    +0.000 NA
ATOM     24  H   UNL     1      43.110   4.765  10.772  0.00  0.00    +0.000 HD
BRANCH  23  25
ATOM     25  C   UNL     1      43.628   2.813  11.057  0.00  0.00    +0.000 C 
BRANCH  25  26
ATOM     26  C   UNL     1      44.489   3.054   9.847  0.00  0.00    +0.000 A 
ATOM     27  C   UNL     1      45.121   2.001   9.178  0.00  0.00    +0.000 A 
ATOM     28  C   UNL     1      45.911   2.262   8.063  0.00  0.00    +0.000 A 
ATOM     29  C   UNL     1      46.050   3.579   7.654  0.00  0.00    +0.000 A 
ATOM     30  N   UNL     1      45.472   4.627   8.278  0.00  0.00    +0.000 NA
ATOM     31  C   UNL     1      44.706   4.342   9.362  0.00  0.00    +0.000 A 
ENDBRANCH  25  26
ENDBRANCH  23  25
ENDBRANCH  22  23
ENDBRANCH   4  22
TORSDOF 7
ENDMDL
MODEL 5
REMARK VINA RESULT:    -7.260      1.318      1.791
REMARK INTER + INTRA:         -11.389
REMARK INTER:                 -10.220
REMARK INTRA:                  -1.169
REMARK UNBOUND:                -1.157
REMARK  Name = 
REMARK  7 active torsions:
REMARK  status: ('A' for Active; 'I' for Inactive)
REMARK    1  A    between atoms: C_2  and  C_20
REMARK    2  A    between atoms: N_3  and  C_4
REMARK    3  A    between atoms: C_4  and  C_5
REMARK    4  A    between atoms: C_8  and  C_9
REMARK    5  A    between atoms: C_9  and  N_10
REMARK    6  A    between atoms: N_10  and  C_11
REMARK    7  A    between atoms: C_11  and  C_12
REMARK                            x       y       z     vdW  Elec       q    Type
REMARK                         _______ _______ _______ _____ _____    ______ ____
ROOT
ATOM      1  C   UNL     1      45.187   5.426  13.189  0.00  0.00    +0.000 A 
ATOM      2  C   UNL     1      46.158   4.738  13.935  0.00  0.00    +0.000 A 
ATOM      3  C   UNL     1      47.435   5.286  14.115  0.00  0.00    +0.000 A 
ATOM      4  C   UNL     1      47.767   6.529  13.564  0.00  0.00    +0.000 A 
ATOM      5  C   UNL     1      46.790   7.220  12.834  0.00  0.00    +0.000 A 
ATOM      6  C   UNL     1      45.515   6.680  12.655  0.00  0.00    +0.000 A 
ENDROOT
BRANCH   1   7
ATOM      7  C   UNL     1      43.799   4.862  13.002  0.00  0.00    +0.000 C 
BRANCH   7  10
ATOM      8  O   UNL     1      43.266   5.315  10.238  0.00  0.00    +0.000 OA
ATOM      9  C   UNL     1      43.658   4.212  10.631  0.00  0.00    +0.000 C 
ATOM     10  N   UNL     1      43.776   3.871  11.958  0.00  0.00    +0.000 N 
ATOM     11  H   UNL     1      44.218   2.966  12.123  0.00  0.00    +0.000 HD
BRANCH   9  12
ATOM     12  C   UNL     1      44.179   3.160   9.732  0.00  0.00    +0.000 A 
ATOM     13  N   UNL     1      43.875   1.860   9.958  0.00  0.00    +0.000 NA
ATOM     14  N   UNL     1      44.730   1.196   9.163  0.00  0.00    +0.000 N 
ATOM     15  C   UNL     1      45.602   1.999   8.486  0.00  0.00    +0.000 A 
ATOM     16  C   UNL     1      46.745   1.702   7.737  0.00  0.00    +0.000 A 
ATOM     17  C   UNL     1      47.396   2.775   7.121  0.00  0.00    +0.000 A 
ATOM     18  C   UNL     1      46.885   4.071   7.207  0.00  0.00    +0.000 A 
ATOM     19  C   UNL     1      45.767   4.352   8.002  0.00  0.00    +0.000 A 
ATOM     20  C   UNL     1      45.144   3.296   8.694  0.00  0.00    +0.000 A 
ATOM     21  H   UNL     1      44.694   0.183   9.160  0.00  0.00    +0.000 HD
ENDBRANCH   9  12
ENDBRANCH   7  10
ENDBRANCH   1   7
BRANCH   4  22
ATOM     22  C   UNL     1      49.137   7.137  13.772  0.00  0.00    +0.000 C 
BRANCH  22  23
ATOM     23  N   UNL     1      49.265   7.740  15.097  0.00  0.00    +0.000 NA
ATOM     24  H   UNL     1      48.345   7.773  15.535  0.00  0.00    +0.000 HD
BRANCH  23  25
ATOM     25  C   UNL     1      50.170   6.962  15.945  0.00  0.00    +0.000 C 
BRANCH  25  26
ATOM     26  C   UNL     1      49.424   6.281  17.060  0.00  0.00    +0.000 A 
ATOM     27  C   UNL     1      48.503   6.973  17.853  0.00  0.00    +0.000 A 
ATOM     28  C   UNL     1      47.832   6.310  18.876  0.00  0.00    +0.000 A 
ATOM     29  C   UNL     1      48.111   4.968  19.078  0.00  0.00    +0.000 A 
ATOM     30  N   UNL     1      49.004   4.266  18.349  0.00  0.00    +0.000 NA
ATOM     31  C   UNL     1      49.642   4.937  17.358  0.00  0.00    +0.000 A 
ENDBRANCH  25  26
ENDBRANCH  23  25
ENDBRANCH  22  23
ENDBRANCH   4  22
TORSDOF 7
ENDMDL
MODEL 6
REMARK VINA RESULT:    -7.019      2.420      9.461
REMARK INTER + INTRA:         -11.049
REMARK INTER:                 -10.147
REMARK INTRA:                  -0.902
REMARK UNBOUND:                -1.157
REMARK  Name = 
REMARK  7 active torsions:
REMARK  status: ('A' for Active; 'I' for Inactive)
REMARK    1  A    between atoms: C_2  and  C_20
REMARK    2  A    between atoms: N_3  and  C_4
REMARK    3  A    between atoms: C_4  and  C_5
REMARK    4  A    between atoms: C_8  and  C_9
REMARK    5  A    between atoms: C_9  and  N_10
REMARK    6  A    between atoms: N_10  and  C_11
REMARK    7  A    between atoms: C_11  and  C_12
REMARK                            x       y       z     vdW  Elec       q    Type
REMARK                         _______ _______ _______ _____ _____    ______ ____
ROOT
ATOM      1  C   UNL     1      47.265   6.592  13.369  0.00  0.00    +0.000 A 
ATOM      2  C   UNL     1      46.629   7.532  12.543  0.00  0.00    +0.000 A 
ATOM      3  C   UNL     1      45.401   7.231  11.939  0.00  0.00    +0.000 A 
ATOM      4  C   UNL     1      44.781   5.994  12.151  0.00  0.00    +0.000 A 
ATOM      5  C   UNL     1      45.412   5.065  12.989  0.00  0.00    +0.000 A 
ATOM      6  C   UNL     1      46.634   5.361  13.596  0.00  0.00    +0.000 A 
ENDROOT
BRANCH   1   7
ATOM      7  C   UNL     1      48.579   6.906  14.046  0.00  0.00    +0.000 C 
BRANCH   7  10
ATOM      8  O   UNL     1      49.154   5.327  16.348  0.00  0.00    +0.000 OA
ATOM      9  C   UNL     1      48.829   6.514  16.464  0.00  0.00    +0.000 C 
ATOM     10  N   UNL     1      48.379   7.287  15.419  0.00  0.00    +0.000 N 
ATOM     11  H   UNL     1      48.257   8.274  15.648  0.00  0.00    +0.000 HD
BRANCH   9  12
ATOM     12  C   UNL     1      49.007   7.295  17.706  0.00  0.00    +0.000 A 
ATOM     13  N   UNL     1      49.944   8.269  17.769  0.00  0.00    +0.000 NA
ATOM     14  N   UNL     1      50.023   8.542  19.081  0.00  0.00    +0.000 N 
ATOM     15  C   UNL     1      49.229   7.756  19.866  0.00  0.00    +0.000 A 
ATOM     16  C   UNL     1      49.172   7.587  21.252  0.00  0.00    +0.000 A 
ATOM     17  C   UNL     1      48.189   6.723  21.745  0.00  0.00    +0.000 A 
ATOM     18  C   UNL     1      47.275   6.110  20.888  0.00  0.00    +0.000 A 
ATOM     19  C   UNL     1      47.382   6.255  19.499  0.00  0.00    +0.000 A 
ATOM     20  C   UNL     1      48.414   7.059  18.979  0.00  0.00    +0.000 A 
ATOM     21  H   UNL     1      50.677   9.257  19.385  0.00  0.00    +0.000 HD
ENDBRANCH   9  12
ENDBRANCH   7  10
ENDBRANCH   1   7
BRANCH   4  22
ATOM     22  C   UNL     1      43.445   5.669  11.519  0.00  0.00    +0.000 C 
BRANCH  22  23
ATOM     23  N   UNL     1      43.601   5.153  10.161  0.00  0.00    +0.000 NA
ATOM     24  H   UNL     1      44.412   5.596   9.731  0.00  0.00    +0.000 HD
BRANCH  23  25
ATOM     25  C   UNL     1      43.795   3.702  10.167  0.00  0.00    +0.000 C 
BRANCH  25  26
ATOM     26  C   UNL     1      44.850   3.288   9.177  0.00  0.00    +0.000 A 
ATOM     27  C   UNL     1      45.472   4.219   8.340  0.00  0.00    +0.000 A 
ATOM     28  C   UNL     1      46.443   3.800   7.435  0.00  0.00    +0.000 A 
ATOM     29  C   UNL     1      46.758   2.451   7.394  0.00  0.00    +0.000 A 
ATOM     30  N   UNL     1      46.172   1.516   8.171  0.00  0.00    +0.000 NA
ATOM     31  C   UNL     1      45.230   1.954   9.044  0.00  0.00    +0.000 A 
ENDBRANCH  25  26
ENDBRANCH  23  25
ENDBRANCH  22  23
ENDBRANCH   4  22
TORSDOF 7
ENDMDL
MODEL 7
REMARK VINA RESULT:    -6.869      4.788      8.935
REMARK INTER + INTRA:         -10.838
REMARK INTER:                 -10.341
REMARK INTRA:                  -0.497
REMARK UNBOUND:                -1.157
REMARK  Name = 
REMARK  7 active torsions:
REMARK  status: ('A' for Active; 'I' for Inactive)
REMARK    1  A    between atoms: C_2  and  C_20
REMARK    2  A    between atoms: N_3  and  C_4
REMARK    3  A    between atoms: C_4  and  C_5
REMARK    4  A    between atoms: C_8  and  C_9
REMARK    5  A    between atoms: C_9  and  N_10
REMARK    6  A    between atoms: N_10  and  C_11
REMARK    7  A    between atoms: C_11  and  C_12
REMARK                            x       y       z     vdW  Elec       q    Type
REMARK                         _______ _______ _______ _____ _____    ______ ____
ROOT
ATOM      1  C   UNL     1      44.481   7.249  11.398  0.00  0.00    +0.000 A 
ATOM      2  C   UNL     1      45.620   6.458  11.612  0.00  0.00    +0.000 A 
ATOM      3  C   UNL     1      45.521   5.060  11.629  0.00  0.00    +0.000 A 
ATOM      4  C   UNL     1      44.291   4.425  11.427  0.00  0.00    +0.000 A 
ATOM      5  C   UNL     1      43.158   5.218  11.198  0.00  0.00    +0.000 A 
ATOM      6  C   UNL     1      43.252   6.611  11.176  0.00  0.00    +0.000 A 
ENDROOT
BRANCH   1   7
ATOM      7  C   UNL     1      44.570   8.756  11.354  0.00  0.00    +0.000 C 
BRANCH   7  10
ATOM      8  O   UNL     1      43.559  11.327  12.057  0.00  0.00    +0.000 OA
ATOM      9  C   UNL     1      43.001  10.647  11.191  0.00  0.00    +0.000 C 
ATOM     10  N   UNL     1      43.329   9.339  10.919  0.00  0.00    +0.000 N 
ATOM     11  H   UNL     1      42.856   8.948  10.103  0.00  0.00    +0.000 HD
BRANCH   9  12
ATOM     12  C   UNL     1      42.000  11.184  10.245  0.00  0.00    +0.000 A 
ATOM     13  N   UNL     1      42.375  12.057   9.281  0.00  0.00    +0.000 NA
ATOM     14  N   UNL     1      41.208  12.542   8.827  0.00  0.00    +0.000 N 
ATOM     15  C   UNL     1      40.111  12.070   9.488  0.00  0.00    +0.000 A 
ATOM     16  C   UNL     1      38.770  12.466   9.461  0.00  0.00    +0.000 A 
ATOM     17  C   UNL     1      37.875  11.724  10.237  0.00  0.00    +0.000 A 
ATOM     18  C   UNL     1      38.300  10.606  10.956  0.00  0.00    +0.000 A 
ATOM     19  C   UNL     1      39.655  10.258  11.008  0.00  0.00    +0.000 A 
ATOM     20  C   UNL     1      40.584  11.040  10.294  0.00  0.00    +0.000 A 
ATOM     21  H   UNL     1      41.231  13.232   8.084  0.00  0.00    +0.000 HD
ENDBRANCH   9  12
ENDBRANCH   7  10
ENDBRANCH   1   7
BRANCH   4  22
ATOM     22  C   UNL     1      44.180   2.916  11.423  0.00  0.00    +0.000 C 
BRANCH  22  23
ATOM     23  N   UNL     1      44.972   2.319  10.350  0.00  0.00    +0.000 NA
ATOM     24  H   UNL     1      44.673   1.353  10.218  0.00  0.00    +0.000 HD
BRANCH  23  25
ATOM     25  C   UNL     1      44.795   3.050   9.094  0.00  0.00    +0.000 C 
BRANCH  25  26
ATOM     26  C   UNL     1      45.743   2.555   8.036  0.00  0.00    +0.000 A 
ATOM     27  C   UNL     1      46.033   3.317   6.900  0.00  0.00    +0.000 A 
ATOM     28  C   UNL     1      46.914   2.826   5.941  0.00  0.00    +0.000 A 
ATOM     29  C   UNL     1      47.475   1.576   6.148  0.00  0.00    +0.000 A 
ATOM     30  N   UNL     1      47.211   0.800   7.221  0.00  0.00    +0.000 NA
ATOM     31  C   UNL     1      46.350   1.305   8.139  0.00  0.00    +0.000 A 
ENDBRANCH  25  26
ENDBRANCH  23  25
ENDBRANCH  22  23
ENDBRANCH   4  22
TORSDOF 7
ENDMDL
MODEL 8
REMARK VINA RESULT:    -6.766      2.470      4.232
REMARK INTER + INTRA:         -10.692
REMARK INTER:                  -9.742
REMARK INTRA:                  -0.950
REMARK UNBOUND:                -1.157
REMARK  Name = 
REMARK  7 active torsions:
REMARK  status: ('A' for Active; 'I' for Inactive)
REMARK    1  A    between atoms: C_2  and  C_20
REMARK    2  A    between atoms: N_3  and  C_4
REMARK    3  A    between atoms: C_4  and  C_5
REMARK    4  A    between atoms: C_8  and  C_9
REMARK    5  A    between atoms: C_9  and  N_10
REMARK    6  A    between atoms: N_10  and  C_11
REMARK    7  A    between atoms: C_11  and  C_12
REMARK                            x       y       z     vdW  Elec       q    Type
REMARK                         _______ _______ _______ _____ _____    ______ ____
ROOT
ATOM      1  C   UNL     1      47.714   4.875  15.701  0.00  0.00    +0.000 A 
ATOM      2  C   UNL     1      47.301   3.611  16.151  0.00  0.00    +0.000 A 
ATOM      3  C   UNL     1      47.669   3.156  17.424  0.00  0.00    +0.000 A 
ATOM      4  C   UNL     1      48.446   3.952  18.274  0.00  0.00    +0.000 A 
ATOM      5  C   UNL     1      48.843   5.219  17.827  0.00  0.00    +0.000 A 
ATOM      6  C   UNL     1      48.476   5.679  16.561  0.00  0.00    +0.000 A 
ENDROOT
BRANCH   1   7
ATOM      7  C   UNL     1      47.310   5.392  14.340  0.00  0.00    +0.000 C 
BRANCH   7  10
ATOM      8  O   UNL     1      44.906   6.341  13.138  0.00  0.00    +0.000 OA
ATOM      9  C   UNL     1      45.211   5.146  13.076  0.00  0.00    +0.000 C 
ATOM     10  N   UNL     1      46.261   4.590  13.768  0.00  0.00    +0.000 N 
ATOM     11  H   UNL     1      46.455   3.616  13.528  0.00  0.00    +0.000 HD
BRANCH   9  12
ATOM     12  C   UNL     1      44.575   4.184  12.152  0.00  0.00    +0.000 A 
ATOM     13  N   UNL     1      43.851   3.149  12.638  0.00  0.00    +0.000 NA
ATOM     14  N   UNL     1      43.690   2.351  11.571  0.00  0.00    +0.000 N 
ATOM     15  C   UNL     1      44.320   2.791  10.443  0.00  0.00    +0.000 A 
ATOM     16  C   UNL     1      44.563   2.170   9.213  0.00  0.00    +0.000 A 
ATOM     17  C   UNL     1      45.205   2.933   8.234  0.00  0.00    +0.000 A 
ATOM     18  C   UNL     1      45.533   4.269   8.463  0.00  0.00    +0.000 A 
ATOM     19  C   UNL     1      45.326   4.856   9.718  0.00  0.00    +0.000 A 
ATOM     20  C   UNL     1      44.750   4.079  10.742  0.00  0.00    +0.000 A 
ATOM     21  H   UNL     1      43.168   1.489  11.690  0.00  0.00    +0.000 HD
ENDBRANCH   9  12
ENDBRANCH   7  10
ENDBRANCH   1   7
BRANCH   4  22
ATOM     22  C   UNL     1      48.830   3.476  19.659  0.00  0.00    +0.000 C 
BRANCH  22  23
ATOM     23  N   UNL     1      48.114   4.210  20.699  0.00  0.00    +0.000 NA
ATOM     24  H   UNL     1      47.635   3.544  21.304  0.00  0.00    +0.000 HD
BRANCH  23  25
ATOM     25  C   UNL     1      49.034   5.013  21.507  0.00  0.00    +0.000 C 
BRANCH  25  26
ATOM     26  C   UNL     1      48.724   6.482  21.389  0.00  0.00    +0.000 A 
ATOM     27  C   UNL     1      49.695   7.404  20.987  0.00  0.00    +0.000 A 
ATOM     28  C   UNL     1      49.373   8.754  20.891  0.00  0.00    +0.000 A 
ATOM     29  C   UNL     1      48.081   9.141  21.210  0.00  0.00    +0.000 A 
ATOM     30  N   UNL     1      47.118   8.289  21.619  0.00  0.00    +0.000 NA
ATOM     31  C   UNL     1      47.461   6.979  21.701  0.00  0.00    +0.000 A 
ENDBRANCH  25  26
ENDBRANCH  23  25
ENDBRANCH  22  23
ENDBRANCH   4  22
TORSDOF 7
ENDMDL
MODEL 9
REMARK VINA RESULT:    -6.737      4.227      8.349
REMARK INTER + INTRA:         -10.651
REMARK INTER:                  -9.765
REMARK INTRA:                  -0.887
REMARK UNBOUND:                -1.157
REMARK  Name = 
REMARK  7 active torsions:
REMARK  status: ('A' for Active; 'I' for Inactive)
REMARK    1  A    between atoms: C_2  and  C_20
REMARK    2  A    between atoms: N_3  and  C_4
REMARK    3  A    between atoms: C_4  and  C_5
REMARK    4  A    between atoms: C_8  and  C_9
REMARK    5  A    between atoms: C_9  and  N_10
REMARK    6  A    between atoms: N_10  and  C_11
REMARK    7  A    between atoms: C_11  and  C_12
REMARK                            x       y       z     vdW  Elec       q    Type
REMARK                         _______ _______ _______ _____ _____    ______ ____
ROOT
ATOM      1  C   UNL     1      47.470   6.281  12.998  0.00  0.00    +0.000 A 
ATOM      2  C   UNL     1      47.096   6.946  11.820  0.00  0.00    +0.000 A 
ATOM      3  C   UNL     1      45.984   6.515  11.085  0.00  0.00    +0.000 A 
ATOM      4  C   UNL     1      45.220   5.422  11.511  0.00  0.00    +0.000 A 
ATOM      5  C   UNL     1      45.589   4.771  12.696  0.00  0.00    +0.000 A 
ATOM      6  C   UNL     1      46.694   5.198  13.435  0.00  0.00    +0.000 A 
ENDROOT
BRANCH   1   7
ATOM      7  C   UNL     1      48.654   6.743  13.816  0.00  0.00    +0.000 C 
BRANCH   7  10
ATOM      8  O   UNL     1      49.481   9.367  13.069  0.00  0.00    +0.000 OA
ATOM      9  C   UNL     1      50.178   8.385  12.794  0.00  0.00    +0.000 C 
ATOM     10  N   UNL     1      49.768   7.085  12.972  0.00  0.00    +0.000 N 
ATOM     11  H   UNL     1      50.495   6.387  12.804  0.00  0.00    +0.000 HD
BRANCH   9  12
ATOM     12  C   UNL     1      51.589   8.476  12.363  0.00  0.00    +0.000 A 
ATOM     13  N   UNL     1      52.478   9.193  13.089  0.00  0.00    +0.000 NA
ATOM     14  N   UNL     1      53.537   9.298  12.271  0.00  0.00    +0.000 N 
ATOM     15  C   UNL     1      53.352   8.738  11.041  0.00  0.00    +0.000 A 
ATOM     16  C   UNL     1      54.109   8.807   9.866  0.00  0.00    +0.000 A 
ATOM     17  C   UNL     1      53.656   8.059   8.775  0.00  0.00    +0.000 A 
ATOM     18  C   UNL     1      52.532   7.239   8.882  0.00  0.00    +0.000 A 
ATOM     19  C   UNL     1      51.762   7.224  10.052  0.00  0.00    +0.000 A 
ATOM     20  C   UNL     1      52.159   8.030  11.136  0.00  0.00    +0.000 A 
ATOM     21  H   UNL     1      54.351   9.807  12.602  0.00  0.00    +0.000 HD
ENDBRANCH   9  12
ENDBRANCH   7  10
ENDBRANCH   1   7
BRANCH   4  22
ATOM     22  C   UNL     1      44.006   4.964  10.734  0.00  0.00    +0.000 C 
BRANCH  22  23
ATOM     23  N   UNL     1      44.363   4.507   9.393  0.00  0.00    +0.000 NA
ATOM     24  H   UNL     1      45.290   4.862   9.159  0.00  0.00    +0.000 HD
BRANCH  23  25
ATOM     25  C   UNL     1      44.377   3.045   9.319  0.00  0.00    +0.000 C 
BRANCH  25  26
ATOM     26  C   UNL     1      45.522   2.552   8.476  0.00  0.00    +0.000 A 
ATOM     27  C   UNL     1      46.243   3.416   7.645  0.00  0.00    +0.000 A 
ATOM     28  C   UNL     1      47.295   2.924   6.878  0.00  0.00    +0.000 A 
ATOM     29  C   UNL     1      47.588   1.572   6.963  0.00  0.00    +0.000 A 
ATOM     30  N   UNL     1      46.909   0.700   7.737  0.00  0.00    +0.000 NA
ATOM     31  C   UNL     1      45.890   1.208   8.475  0.00  0.00    +0.000 A 
ENDBRANCH  25  26
ENDBRANCH  23  25
ENDBRANCH  22  23
ENDBRANCH   4  22
TORSDOF 7
ENDMDL
