MODEL 1
REMARK VINA RESULT:    -8.696      0.000      0.000
REMARK INTER + INTRA:         -12.354
REMARK INTER:                 -11.238
REMARK INTRA:                  -1.116
REMARK UNBOUND:                -1.116
REMARK  Name = 
REMARK  5 active torsions:
REMARK  status: ('A' for Active; 'I' for Inactive)
REMARK    1  A    between atoms: C_2  and  C_18
REMARK    2  A    between atoms: N_3  and  C_4
REMARK    3  A    between atoms: C_4  and  C_5
REMARK    4  A    between atoms: C_9  and  O_10
REMARK    5  A    between atoms: O_10  and  C_11
REMARK                            x       y       z     vdW  Elec       q    Type
REMARK                         _______ _______ _______ _____ _____    ______ ____
ROOT
ATOM      1  O   UNL     1      48.857   6.512  12.912  0.00  0.00    +0.000 OA
ATOM      2  C   UNL     1      48.055   6.519  13.841  0.00  0.00    +0.000 C 
ATOM      3  N   UNL     1      46.729   6.796  13.660  0.00  0.00    +0.000 N 
ATOM      4  H   UNL     1      46.084   6.770  14.441  0.00  0.00    +0.000 HD
ENDROOT
BRANCH   2   5
ATOM      5  C   UNL     1      48.474   6.272  15.223  0.00  0.00    +0.000 A 
ATOM      6  C   UNL     1      49.335   7.154  15.858  0.00  0.00    +0.000 A 
ATOM      7  S   UNL     1      49.689   6.716  17.470  0.00  0.00    +0.000 S 
ATOM      8  C   UNL     1      48.728   5.316  17.361  0.00  0.00    +0.000 A 
ATOM      9  N   UNL     1      48.600   4.470  18.419  0.00  0.00    +0.000 NA
ATOM     10  C   UNL     1      47.860   3.436  18.186  0.00  0.00    +0.000 A 
ATOM     11  N   UNL     1      47.245   3.167  16.993  0.00  0.00    +0.000 N 
ATOM     12  C   UNL     1      47.334   3.997  15.901  0.00  0.00    +0.000 A 
ATOM     13  O   UNL     1      46.742   3.738  14.860  0.00  0.00    +0.000 OA
ATOM     14  C   UNL     1      48.146   5.182  16.112  0.00  0.00    +0.000 A 
ATOM     15  H   UNL     1      46.673   2.342  16.876  0.00  0.00    +0.000 HD
ENDBRANCH   2   5
BRANCH   3  16
ATOM     16  C   UNL     1      46.144   7.005  12.360  0.00  0.00    +0.000 C 
BRANCH  16  17
ATOM     17  C   UNL     1      45.130   5.946  12.009  0.00  0.00    +0.000 A 
ATOM     18  C   UNL     1      44.300   5.402  12.984  0.00  0.00    +0.000 A 
ATOM     19  C   UNL     1      43.362   4.444  12.612  0.00  0.00    +0.000 A 
ATOM     20  C   UNL     1      43.271   4.059  11.279  0.00  0.00    +0.000 A 
ATOM     21  C   UNL     1      44.126   4.657  10.367  0.00  0.00    +0.000 A 
ATOM     22  N   UNL     1      45.069   5.563  10.710  0.00  0.00    +0.000 NA
BRANCH  21  23
ATOM     23  O   UNL     1      43.978   4.293   9.038  0.00  0.00    +0.000 OA
BRANCH  23  24
ATOM     24  C   UNL     1      44.966   3.516   8.472  0.00  0.00    +0.000 A 
ATOM     25  C   UNL     1      45.152   2.174   8.796  0.00  0.00    +0.000 A 
ATOM     26  C   UNL     1      46.200   1.475   8.205  0.00  0.00    +0.000 A 
ATOM     27  C   UNL     1      47.056   2.144   7.342  0.00  0.00    +0.000 A 
ATOM     28  C   UNL     1      46.829   3.491   7.112  0.00  0.00    +0.000 A 
ATOM     29  N   UNL     1      45.814   4.192   7.662  0.00  0.00    +0.000 NA
ENDBRANCH  23  24
ENDBRANCH  21  23
ENDBRANCH  16  17
ENDBRANCH   3  16
TORSDOF 5
ENDMDL
MODEL 2
REMARK VINA RESULT:    -8.228      1.593      2.281
REMARK INTER + INTRA:         -11.749
REMARK INTER:                 -11.074
REMARK INTRA:                  -0.675
REMARK UNBOUND:                -1.116
REMARK  Name = 
REMARK  5 active torsions:
REMARK  status: ('A' for Active; 'I' for Inactive)
REMARK    1  A    between atoms: C_2  and  C_18
REMARK    2  A    between atoms: N_3  and  C_4
REMARK    3  A    between atoms: C_4  and  C_5
REMARK    4  A    between atoms: C_9  and  O_10
REMARK    5  A    between atoms: O_10  and  C_11
REMARK                            x       y       z     vdW  Elec       q    Type
REMARK                         _______ _______ _______ _____ _____    ______ ____
ROOT
ATOM      1  O   UNL     1      47.346   3.155  14.197  0.00  0.00    +0.000 OA
ATOM      2  C   UNL     1      46.986   4.241  14.640  0.00  0.00    +0.000 C 
ATOM      3  N   UNL     1      45.853   4.870  14.205  0.00  0.00    +0.000 N 
ATOM      4  H   UNL     1      45.566   5.754  14.606  0.00  0.00    +0.000 HD
ENDROOT
BRANCH   2   5
ATOM      5  C   UNL     1      47.774   4.964  15.641  0.00  0.00    +0.000 A 
ATOM      6  C   UNL     1      48.458   6.119  15.289  0.00  0.00    +0.000 A 
ATOM      7  S   UNL     1      49.297   6.836  16.593  0.00  0.00    +0.000 S 
ATOM      8  C   UNL     1      48.798   5.610  17.663  0.00  0.00    +0.000 A 
ATOM      9  N   UNL     1      49.181   5.621  18.968  0.00  0.00    +0.000 NA
ATOM     10  C   UNL     1      48.749   4.617  19.657  0.00  0.00    +0.000 A 
ATOM     11  N   UNL     1      47.979   3.601  19.160  0.00  0.00    +0.000 N 
ATOM     12  C   UNL     1      47.556   3.552  17.853  0.00  0.00    +0.000 A 
ATOM     13  O   UNL     1      46.840   2.641  17.453  0.00  0.00    +0.000 OA
ATOM     14  C   UNL     1      48.005   4.664  17.035  0.00  0.00    +0.000 A 
ATOM     15  H   UNL     1      47.668   2.844  19.754  0.00  0.00    +0.000 HD
ENDBRANCH   2   5
BRANCH   3  16
ATOM     16  C   UNL     1      44.938   4.270  13.268  0.00  0.00    +0.000 C 
BRANCH  16  17
ATOM     17  C   UNL     1      45.216   4.687  11.846  0.00  0.00    +0.000 A 
ATOM     18  C   UNL     1      45.911   5.860  11.570  0.00  0.00    +0.000 A 
ATOM     19  C   UNL     1      46.166   6.196  10.244  0.00  0.00    +0.000 A 
ATOM     20  C   UNL     1      45.729   5.351   9.230  0.00  0.00    +0.000 A 
ATOM     21  C   UNL     1      45.053   4.196   9.588  0.00  0.00    +0.000 A 
ATOM     22  N   UNL     1      44.762   3.867  10.867  0.00  0.00    +0.000 NA
BRANCH  21  23
ATOM     23  O   UNL     1      44.675   3.347   8.560  0.00  0.00    +0.000 OA
BRANCH  23  24
ATOM     24  C   UNL     1      45.675   2.729   7.839  0.00  0.00    +0.000 A 
ATOM     25  C   UNL     1      46.187   3.252   6.653  0.00  0.00    +0.000 A 
ATOM     26  C   UNL     1      47.169   2.541   5.970  0.00  0.00    +0.000 A 
ATOM     27  C   UNL     1      47.580   1.312   6.465  0.00  0.00    +0.000 A 
ATOM     28  C   UNL     1      46.985   0.843   7.624  0.00  0.00    +0.000 A 
ATOM     29  N   UNL     1      46.038   1.515   8.314  0.00  0.00    +0.000 NA
ENDBRANCH  23  24
ENDBRANCH  21  23
ENDBRANCH  16  17
ENDBRANCH   3  16
TORSDOF 5
ENDMDL
MODEL 3
REMARK VINA RESULT:    -8.084      2.108      2.956
REMARK INTER + INTRA:         -11.562
REMARK INTER:                 -10.914
REMARK INTRA:                  -0.648
REMARK UNBOUND:                -1.116
REMARK  Name = 
REMARK  5 active torsions:
REMARK  status: ('A' for Active; 'I' for Inactive)
REMARK    1  A    between atoms: C_2  and  C_18
REMARK    2  A    between atoms: N_3  and  C_4
REMARK    3  A    between atoms: C_4  and  C_5
REMARK    4  A    between atoms: C_9  and  O_10
REMARK    5  A    between atoms: O_10  and  C_11
REMARK                            x       y       z     vdW  Elec       q    Type
REMARK                         _______ _______ _______ _____ _____    ______ ____
ROOT
ATOM      1  O   UNL     1      46.594   3.292  17.077  0.00  0.00    +0.000 OA
ATOM      2  C   UNL     1      47.459   3.986  16.551  0.00  0.00    +0.000 C 
ATOM      3  N   UNL     1      47.345   4.453  15.272  0.00  0.00    +0.000 N 
ATOM      4  H   UNL     1      48.063   5.045  14.872  0.00  0.00    +0.000 HD
ENDROOT
BRANCH   2   5
ATOM      5  C   UNL     1      48.701   4.329  17.249  0.00  0.00    +0.000 A 
ATOM      6  C   UNL     1      48.839   5.568  17.859  0.00  0.00    +0.000 A 
ATOM      7  S   UNL     1      50.341   5.775  18.644  0.00  0.00    +0.000 S 
ATOM      8  C   UNL     1      50.868   4.229  18.168  0.00  0.00    +0.000 A 
ATOM      9  N   UNL     1      52.101   3.771  18.516  0.00  0.00    +0.000 NA
ATOM     10  C   UNL     1      52.377   2.592  18.065  0.00  0.00    +0.000 A 
ATOM     11  N   UNL     1      51.538   1.833  17.294  0.00  0.00    +0.000 N 
ATOM     12  C   UNL     1      50.279   2.246  16.928  0.00  0.00    +0.000 A 
ATOM     13  O   UNL     1      49.545   1.524  16.264  0.00  0.00    +0.000 OA
ATOM     14  C   UNL     1      49.913   3.563  17.418  0.00  0.00    +0.000 A 
ATOM     15  H   UNL     1      51.811   0.913  16.977  0.00  0.00    +0.000 HD
ENDBRANCH   2   5
BRANCH   3  16
ATOM     16  C   UNL     1      46.165   4.255  14.470  0.00  0.00    +0.000 C 
BRANCH  16  17
ATOM     17  C   UNL     1      46.184   5.075  13.206  0.00  0.00    +0.000 A 
ATOM     18  C   UNL     1      47.005   6.192  13.093  0.00  0.00    +0.000 A 
ATOM     19  C   UNL     1      47.010   6.908  11.900  0.00  0.00    +0.000 A 
ATOM     20  C   UNL     1      46.201   6.487  10.849  0.00  0.00    +0.000 A 
ATOM     21  C   UNL     1      45.420   5.358  11.037  0.00  0.00    +0.000 A 
ATOM     22  N   UNL     1      45.372   4.668  12.199  0.00  0.00    +0.000 NA
BRANCH  21  23
ATOM     23  O   UNL     1      44.665   4.932   9.956  0.00  0.00    +0.000 OA
BRANCH  23  24
ATOM     24  C   UNL     1      45.230   4.005   9.106  0.00  0.00    +0.000 A 
ATOM     25  C   UNL     1      45.176   2.632   9.338  0.00  0.00    +0.000 A 
ATOM     26  C   UNL     1      45.807   1.770   8.446  0.00  0.00    +0.000 A 
ATOM     27  C   UNL     1      46.511   2.304   7.376  0.00  0.00    +0.000 A 
ATOM     28  C   UNL     1      46.555   3.682   7.246  0.00  0.00    +0.000 A 
ATOM     29  N   UNL     1      45.943   4.542   8.089  0.00  0.00    +0.000 NA
ENDBRANCH  23  24
ENDBRANCH  21  23
ENDBRANCH  16  17
ENDBRANCH   3  16
TORSDOF 5
ENDMDL
MODEL 4
REMARK VINA RESULT:    -7.960      1.874      2.917
REMARK INTER + INTRA:         -11.402
REMARK INTER:                 -10.481
REMARK INTRA:                  -0.921
REMARK UNBOUND:                -1.116
REMARK  Name = 
REMARK  5 active torsions:
REMARK  status: ('A' for Active; 'I' for Inactive)
REMARK    1  A    between atoms: C_2  and  C_18
REMARK    2  A    between atoms: N_3  and  C_4
REMARK    3  A    between atoms: C_4  and  C_5
REMARK    4  A    between atoms: C_9  and  O_10
REMARK    5  A    between atoms: O_10  and  C_11
REMARK                            x       y       z     vdW  Elec       q    Type
REMARK                         _______ _______ _______ _____ _____    ______ ____
ROOT
ATOM      1  O   UNL     1      48.233   2.832  15.865  0.00  0.00    +0.000 OA
ATOM      2  C   UNL     1      47.682   3.926  15.806  0.00  0.00    +0.000 C 
ATOM      3  N   UNL     1      46.949   4.319  14.721  0.00  0.00    +0.000 N 
ATOM      4  H   UNL     1      46.484   5.218  14.710  0.00  0.00    +0.000 HD
ENDROOT
BRANCH   2   5
ATOM      5  C   UNL     1      47.808   4.911  16.883  0.00  0.00    +0.000 A 
ATOM      6  C   UNL     1      47.228   4.668  18.120  0.00  0.00    +0.000 A 
ATOM      7  S   UNL     1      47.503   5.914  19.255  0.00  0.00    +0.000 S 
ATOM      8  C   UNL     1      48.378   6.833  18.122  0.00  0.00    +0.000 A 
ATOM      9  N   UNL     1      48.903   8.043  18.455  0.00  0.00    +0.000 NA
ATOM     10  C   UNL     1      49.520   8.639  17.489  0.00  0.00    +0.000 A 
ATOM     11  N   UNL     1      49.654   8.141  16.221  0.00  0.00    +0.000 N 
ATOM     12  C   UNL     1      49.154   6.919  15.840  0.00  0.00    +0.000 A 
ATOM     13  O   UNL     1      49.323   6.493  14.703  0.00  0.00    +0.000 OA
ATOM     14  C   UNL     1      48.459   6.200  16.892  0.00  0.00    +0.000 A 
ATOM     15  H   UNL     1      50.156   8.655  15.510  0.00  0.00    +0.000 HD
ENDBRANCH   2   5
BRANCH   3  16
ATOM     16  C   UNL     1      46.681   3.450  13.604  0.00  0.00    +0.000 C 
BRANCH  16  17
ATOM     17  C   UNL     1      45.480   3.893  12.807  0.00  0.00    +0.000 A 
ATOM     18  C   UNL     1      44.685   4.948  13.241  0.00  0.00    +0.000 A 
ATOM     19  C   UNL     1      43.599   5.339  12.464  0.00  0.00    +0.000 A 
ATOM     20  C   UNL     1      43.339   4.672  11.271  0.00  0.00    +0.000 A 
ATOM     21  C   UNL     1      44.185   3.638  10.903  0.00  0.00    +0.000 A 
ATOM     22  N   UNL     1      45.224   3.217  11.659  0.00  0.00    +0.000 NA
BRANCH  21  23
ATOM     23  O   UNL     1      43.934   3.027   9.685  0.00  0.00    +0.000 OA
BRANCH  23  24
ATOM     24  C   UNL     1      44.998   2.848   8.827  0.00  0.00    +0.000 A 
ATOM     25  C   UNL     1      45.497   3.865   8.016  0.00  0.00    +0.000 A 
ATOM     26  C   UNL     1      46.550   3.585   7.150  0.00  0.00    +0.000 A 
ATOM     27  C   UNL     1      47.046   2.290   7.087  0.00  0.00    +0.000 A 
ATOM     28  C   UNL     1      46.460   1.328   7.893  0.00  0.00    +0.000 A 
ATOM     29  N   UNL     1      45.445   1.572   8.750  0.00  0.00    +0.000 NA
ENDBRANCH  23  24
ENDBRANCH  21  23
ENDBRANCH  16  17
ENDBRANCH   3  16
TORSDOF 5
ENDMDL
MODEL 5
REMARK VINA RESULT:    -7.762      1.882      2.460
REMARK INTER + INTRA:         -11.147
REMARK INTER:                 -10.113
REMARK INTRA:                  -1.033
REMARK UNBOUND:                -1.116
REMARK  Name = 
REMARK  5 active torsions:
REMARK  status: ('A' for Active; 'I' for Inactive)
REMARK    1  A    between atoms: C_2  and  C_18
REMARK    2  A    between atoms: N_3  and  C_4
REMARK    3  A    between atoms: C_4  and  C_5
REMARK    4  A    between atoms: C_9  and  O_10
REMARK    5  A    between atoms: O_10  and  C_11
REMARK                            x       y       z     vdW  Elec       q    Type
REMARK                         _______ _______ _______ _____ _____    ______ ____
ROOT
ATOM      1  O   UNL     1      48.439   5.876  12.829  0.00  0.00    +0.000 OA
ATOM      2  C   UNL     1      47.951   5.977  13.951  0.00  0.00    +0.000 C 
ATOM      3  N   UNL     1      47.015   5.102  14.423  0.00  0.00    +0.000 N 
ATOM      4  H   UNL     1      46.648   5.194  15.363  0.00  0.00    +0.000 HD
ENDROOT
BRANCH   2   5
ATOM      5  C   UNL     1      48.312   7.076  14.851  0.00  0.00    +0.000 A 
ATOM      6  C   UNL     1      48.123   8.392  14.454  0.00  0.00    +0.000 A 
ATOM      7  S   UNL     1      48.574   9.531  15.643  0.00  0.00    +0.000 S 
ATOM      8  C   UNL     1      49.067   8.304  16.714  0.00  0.00    +0.000 A 
ATOM      9  N   UNL     1      49.571   8.606  17.942  0.00  0.00    +0.000 NA
ATOM     10  C   UNL     1      49.926   7.577  18.637  0.00  0.00    +0.000 A 
ATOM     11  N   UNL     1      49.831   6.278  18.217  0.00  0.00    +0.000 N 
ATOM     12  C   UNL     1      49.317   5.922  16.993  0.00  0.00    +0.000 A 
ATOM     13  O   UNL     1      49.219   4.745  16.666  0.00  0.00    +0.000 OA
ATOM     14  C   UNL     1      48.892   7.041  16.173  0.00  0.00    +0.000 A 
ATOM     15  H   UNL     1      50.121   5.514  18.814  0.00  0.00    +0.000 HD
ENDBRANCH   2   5
BRANCH   3  16
ATOM     16  C   UNL     1      46.594   3.936  13.688  0.00  0.00    +0.000 C 
BRANCH  16  17
ATOM     17  C   UNL     1      45.388   4.206  12.825  0.00  0.00    +0.000 A 
ATOM     18  C   UNL     1      44.524   5.257  13.114  0.00  0.00    +0.000 A 
ATOM     19  C   UNL     1      43.436   5.485  12.277  0.00  0.00    +0.000 A 
ATOM     20  C   UNL     1      43.242   4.664  11.172  0.00  0.00    +0.000 A 
ATOM     21  C   UNL     1      44.153   3.645  10.947  0.00  0.00    +0.000 A 
ATOM     22  N   UNL     1      45.197   3.382  11.765  0.00  0.00    +0.000 NA
BRANCH  21  23
ATOM     23  O   UNL     1      43.965   2.876   9.809  0.00  0.00    +0.000 OA
BRANCH  23  24
ATOM     24  C   UNL     1      45.015   2.780   8.920  0.00  0.00    +0.000 A 
ATOM     25  C   UNL     1      45.445   3.850   8.138  0.00  0.00    +0.000 A 
ATOM     26  C   UNL     1      46.488   3.654   7.238  0.00  0.00    +0.000 A 
ATOM     27  C   UNL     1      47.041   2.388   7.112  0.00  0.00    +0.000 A 
ATOM     28  C   UNL     1      46.522   1.368   7.893  0.00  0.00    +0.000 A 
ATOM     29  N   UNL     1      45.518   1.531   8.782  0.00  0.00    +0.000 NA
ENDBRANCH  23  24
ENDBRANCH  21  23
ENDBRANCH  16  17
ENDBRANCH   3  16
TORSDOF 5
ENDMDL
MODEL 6
REMARK VINA RESULT:    -7.433      2.257      3.822
REMARK INTER + INTRA:         -10.721
REMARK INTER:                  -9.778
REMARK INTRA:                  -0.943
REMARK UNBOUND:                -1.116
REMARK  Name = 
REMARK  5 active torsions:
REMARK  status: ('A' for Active; 'I' for Inactive)
REMARK    1  A    between atoms: C_2  and  C_18
REMARK    2  A    between atoms: N_3  and  C_4
REMARK    3  A    between atoms: C_4  and  C_5
REMARK    4  A    between atoms: C_9  and  O_10
REMARK    5  A    between atoms: O_10  and  C_11
REMARK                            x       y       z     vdW  Elec       q    Type
REMARK                         _______ _______ _______ _____ _____    ______ ____
ROOT
ATOM      1  O   UNL     1      48.563   5.808  12.910  0.00  0.00    +0.000 OA
ATOM      2  C   UNL     1      47.938   6.247  13.871  0.00  0.00    +0.000 C 
ATOM      3  N   UNL     1      46.801   5.651  14.339  0.00  0.00    +0.000 N 
ATOM      4  H   UNL     1      46.319   6.021  15.149  0.00  0.00    +0.000 HD
ENDROOT
BRANCH   2   5
ATOM      5  C   UNL     1      48.348   7.474  14.559  0.00  0.00    +0.000 A 
ATOM      6  C   UNL     1      48.739   7.429  15.890  0.00  0.00    +0.000 A 
ATOM      7  S   UNL     1      49.205   8.949  16.513  0.00  0.00    +0.000 S 
ATOM      8  C   UNL     1      48.871   9.722  15.034  0.00  0.00    +0.000 A 
ATOM      9  N   UNL     1      49.055  11.062  14.886  0.00  0.00    +0.000 NA
ATOM     10  C   UNL     1      48.738  11.516  13.719  0.00  0.00    +0.000 A 
ATOM     11  N   UNL     1      48.246  10.758  12.692  0.00  0.00    +0.000 N 
ATOM     12  C   UNL     1      48.054   9.400  12.788  0.00  0.00    +0.000 A 
ATOM     13  O   UNL     1      47.642   8.750  11.834  0.00  0.00    +0.000 OA
ATOM     14  C   UNL     1      48.406   8.834  14.078  0.00  0.00    +0.000 A 
ATOM     15  H   UNL     1      48.021  11.173  11.798  0.00  0.00    +0.000 HD
ENDBRANCH   2   5
BRANCH   3  16
ATOM     16  C   UNL     1      46.296   4.409  13.811  0.00  0.00    +0.000 C 
BRANCH  16  17
ATOM     17  C   UNL     1      45.210   4.619  12.788  0.00  0.00    +0.000 A 
ATOM     18  C   UNL     1      44.421   5.765  12.809  0.00  0.00    +0.000 A 
ATOM     19  C   UNL     1      43.445   5.930  11.831  0.00  0.00    +0.000 A 
ATOM     20  C   UNL     1      43.284   4.952  10.856  0.00  0.00    +0.000 A 
ATOM     21  C   UNL     1      44.117   3.845  10.897  0.00  0.00    +0.000 A 
ATOM     22  N   UNL     1      45.048   3.646  11.857  0.00  0.00    +0.000 NA
BRANCH  21  23
ATOM     23  O   UNL     1      43.971   2.913   9.882  0.00  0.00    +0.000 OA
BRANCH  23  24
ATOM     24  C   UNL     1      44.996   2.797   8.967  0.00  0.00    +0.000 A 
ATOM     25  C   UNL     1      45.404   3.849   8.149  0.00  0.00    +0.000 A 
ATOM     26  C   UNL     1      46.421   3.632   7.225  0.00  0.00    +0.000 A 
ATOM     27  C   UNL     1      46.971   2.363   7.113  0.00  0.00    +0.000 A 
ATOM     28  C   UNL     1      46.474   1.362   7.930  0.00  0.00    +0.000 A 
ATOM     29  N   UNL     1      45.496   1.545   8.843  0.00  0.00    +0.000 NA
ENDBRANCH  23  24
ENDBRANCH  21  23
ENDBRANCH  16  17
ENDBRANCH   3  16
TORSDOF 5
ENDMDL
MODEL 7
REMARK VINA RESULT:    -7.186      2.034      3.056
REMARK INTER + INTRA:         -10.402
REMARK INTER:                  -9.577
REMARK INTRA:                  -0.825
REMARK UNBOUND:                -1.116
REMARK  Name = 
REMARK  5 active torsions:
REMARK  status: ('A' for Active; 'I' for Inactive)
REMARK    1  A    between atoms: C_2  and  C_18
REMARK    2  A    between atoms: N_3  and  C_4
REMARK    3  A    between atoms: C_4  and  C_5
REMARK    4  A    between atoms: C_9  and  O_10
REMARK    5  A    between atoms: O_10  and  C_11
REMARK                            x       y       z     vdW  Elec       q    Type
REMARK                         _______ _______ _______ _____ _____    ______ ____
ROOT
ATOM      1  O   UNL     1      48.481   2.910  16.347  0.00  0.00    +0.000 OA
ATOM      2  C   UNL     1      48.369   4.124  16.492  0.00  0.00    +0.000 C 
ATOM      3  N   UNL     1      47.528   4.878  15.724  0.00  0.00    +0.000 N 
ATOM      4  H   UNL     1      47.437   5.874  15.882  0.00  0.00    +0.000 HD
ENDROOT
BRANCH   2   5
ATOM      5  C   UNL     1      49.167   4.858  17.477  0.00  0.00    +0.000 A 
ATOM      6  C   UNL     1      50.552   4.861  17.390  0.00  0.00    +0.000 A 
ATOM      7  S   UNL     1      51.307   5.791  18.607  0.00  0.00    +0.000 S 
ATOM      8  C   UNL     1      49.810   6.193  19.309  0.00  0.00    +0.000 A 
ATOM      9  N   UNL     1      49.744   6.982  20.416  0.00  0.00    +0.000 NA
ATOM     10  C   UNL     1      48.545   7.184  20.853  0.00  0.00    +0.000 A 
ATOM     11  N   UNL     1      47.410   6.666  20.293  0.00  0.00    +0.000 N 
ATOM     12  C   UNL     1      47.423   5.876  19.167  0.00  0.00    +0.000 A 
ATOM     13  O   UNL     1      46.382   5.457  18.676  0.00  0.00    +0.000 OA
ATOM     14  C   UNL     1      48.747   5.625  18.627  0.00  0.00    +0.000 A 
ATOM     15  H   UNL     1      46.498   6.867  20.680  0.00  0.00    +0.000 HD
ENDBRANCH   2   5
BRANCH   3  16
ATOM     16  C   UNL     1      46.634   4.305  14.751  0.00  0.00    +0.000 C 
BRANCH  16  17
ATOM     17  C   UNL     1      46.548   5.130  13.492  0.00  0.00    +0.000 A 
ATOM     18  C   UNL     1      47.396   6.214  13.291  0.00  0.00    +0.000 A 
ATOM     19  C   UNL     1      47.300   6.935  12.105  0.00  0.00    +0.000 A 
ATOM     20  C   UNL     1      46.365   6.553  11.149  0.00  0.00    +0.000 A 
ATOM     21  C   UNL     1      45.564   5.455  11.420  0.00  0.00    +0.000 A 
ATOM     22  N   UNL     1      45.615   4.761  12.580  0.00  0.00    +0.000 NA
BRANCH  21  23
ATOM     23  O   UNL     1      44.679   5.064  10.428  0.00  0.00    +0.000 OA
BRANCH  23  24
ATOM     24  C   UNL     1      45.114   4.130   9.513  0.00  0.00    +0.000 A 
ATOM     25  C   UNL     1      45.000   2.756   9.720  0.00  0.00    +0.000 A 
ATOM     26  C   UNL     1      45.502   1.884   8.760  0.00  0.00    +0.000 A 
ATOM     27  C   UNL     1      46.140   2.404   7.643  0.00  0.00    +0.000 A 
ATOM     28  C   UNL     1      46.254   3.780   7.538  0.00  0.00    +0.000 A 
ATOM     29  N   UNL     1      45.767   4.651   8.448  0.00  0.00    +0.000 NA
ENDBRANCH  23  24
ENDBRANCH  21  23
ENDBRANCH  16  17
ENDBRANCH   3  16
TORSDOF 5
ENDMDL
MODEL 8
REMARK VINA RESULT:    -7.159      3.383      7.685
REMARK INTER + INTRA:         -10.367
REMARK INTER:                  -9.287
REMARK INTRA:                  -1.079
REMARK UNBOUND:                -1.116
REMARK  Name = 
REMARK  5 active torsions:
REMARK  status: ('A' for Active; 'I' for Inactive)
REMARK    1  A    between atoms: C_2  and  C_18
REMARK    2  A    between atoms: N_3  and  C_4
REMARK    3  A    between atoms: C_4  and  C_5
REMARK    4  A    between atoms: C_9  and  O_10
REMARK    5  A    between atoms: O_10  and  C_11
REMARK                            x       y       z     vdW  Elec       q    Type
REMARK                         _______ _______ _______ _____ _____    ______ ____
ROOT
ATOM      1  O   UNL     1      47.186   3.118  13.846  0.00  0.00    +0.000 OA
ATOM      2  C   UNL     1      46.733   4.156  14.319  0.00  0.00    +0.000 C 
ATOM      3  N   UNL     1      46.677   4.383  15.665  0.00  0.00    +0.000 N 
ATOM      4  H   UNL     1      46.320   5.259  16.027  0.00  0.00    +0.000 HD
ENDROOT
BRANCH   2   5
ATOM      5  C   UNL     1      46.177   5.211  13.468  0.00  0.00    +0.000 A 
ATOM      6  C   UNL     1      46.911   6.361  13.215  0.00  0.00    +0.000 A 
ATOM      7  S   UNL     1      46.114   7.463  12.183  0.00  0.00    +0.000 S 
ATOM      8  C   UNL     1      44.748   6.454  12.066  0.00  0.00    +0.000 A 
ATOM      9  N   UNL     1      43.671   6.817  11.319  0.00  0.00    +0.000 NA
ATOM     10  C   UNL     1      42.698   5.967  11.341  0.00  0.00    +0.000 A 
ATOM     11  N   UNL     1      42.701   4.794  12.046  0.00  0.00    +0.000 N 
ATOM     12  C   UNL     1      43.770   4.377  12.804  0.00  0.00    +0.000 A 
ATOM     13  O   UNL     1      43.746   3.305  13.395  0.00  0.00    +0.000 OA
ATOM     14  C   UNL     1      44.896   5.293  12.806  0.00  0.00    +0.000 A 
ATOM     15  H   UNL     1      41.908   4.166  12.018  0.00  0.00    +0.000 HD
ENDBRANCH   2   5
BRANCH   3  16
ATOM     16  C   UNL     1      47.231   3.473  16.635  0.00  0.00    +0.000 C 
BRANCH  16  17
ATOM     17  C   UNL     1      48.664   3.796  16.972  0.00  0.00    +0.000 A 
ATOM     18  C   UNL     1      49.564   2.789  17.305  0.00  0.00    +0.000 A 
ATOM     19  C   UNL     1      50.883   3.129  17.587  0.00  0.00    +0.000 A 
ATOM     20  C   UNL     1      51.272   4.462  17.524  0.00  0.00    +0.000 A 
ATOM     21  C   UNL     1      50.319   5.405  17.174  0.00  0.00    +0.000 A 
ATOM     22  N   UNL     1      49.023   5.103  16.931  0.00  0.00    +0.000 NA
BRANCH  21  23
ATOM     23  O   UNL     1      50.746   6.719  17.067  0.00  0.00    +0.000 OA
BRANCH  23  24
ATOM     24  C   UNL     1      50.089   7.536  16.171  0.00  0.00    +0.000 A 
ATOM     25  C   UNL     1      50.438   7.618  14.825  0.00  0.00    +0.000 A 
ATOM     26  C   UNL     1      49.745   8.499  14.000  0.00  0.00    +0.000 A 
ATOM     27  C   UNL     1      48.756   9.301  14.549  0.00  0.00    +0.000 A 
ATOM     28  C   UNL     1      48.506   9.192  15.906  0.00  0.00    +0.000 A 
ATOM     29  N   UNL     1      49.154   8.339  16.729  0.00  0.00    +0.000 NA
ENDBRANCH  23  24
ENDBRANCH  21  23
ENDBRANCH  16  17
ENDBRANCH   3  16
TORSDOF 5
ENDMDL
MODEL 9
REMARK VINA RESULT:    -7.063      3.790      6.011
REMARK INTER + INTRA:         -10.243
REMARK INTER:                  -9.233
REMARK INTRA:                  -1.010
REMARK UNBOUND:                -1.116
REMARK  Name = 
REMARK  5 active torsions:
REMARK  status: ('A' for Active; 'I' for Inactive)
REMARK    1  A    between atoms: C_2  and  C_18
REMARK    2  A    between atoms: N_3  and  C_4
REMARK    3  A    between atoms: C_4  and  C_5
REMARK    4  A    between atoms: C_9  and  O_10
REMARK    5  A    between atoms: O_10  and  C_11
REMARK                            x       y       z     vdW  Elec       q    Type
REMARK                         _______ _______ _______ _____ _____    ______ ____
ROOT
ATOM      1  O   UNL     1      45.797   8.841  13.654  0.00  0.00    +0.000 OA
ATOM      2  C   UNL     1      45.987   8.908  12.443  0.00  0.00    +0.000 C 
ATOM      3  N   UNL     1      46.480   7.859  11.720  0.00  0.00    +0.000 N 
ATOM      4  H   UNL     1      46.604   7.934  10.718  0.00  0.00    +0.000 HD
ENDROOT
BRANCH   2   5
ATOM      5  C   UNL     1      45.738  10.141  11.692  0.00  0.00    +0.000 A 
ATOM      6  C   UNL     1      46.657  11.180  11.733  0.00  0.00    +0.000 A 
ATOM      7  S   UNL     1      46.209  12.521  10.776  0.00  0.00    +0.000 S 
ATOM      8  C   UNL     1      44.759  11.770  10.299  0.00  0.00    +0.000 A 
ATOM      9  N   UNL     1      43.887  12.397   9.463  0.00  0.00    +0.000 NA
ATOM     10  C   UNL     1      42.817  11.719   9.207  0.00  0.00    +0.000 A 
ATOM     11  N   UNL     1      42.536  10.480   9.714  0.00  0.00    +0.000 N 
ATOM     12  C   UNL     1      43.390   9.801  10.551  0.00  0.00    +0.000 A 
ATOM     13  O   UNL     1      43.116   8.679  10.959  0.00  0.00    +0.000 OA
ATOM     14  C   UNL     1      44.615  10.514  10.864  0.00  0.00    +0.000 A 
ATOM     15  H   UNL     1      41.681   9.997   9.470  0.00  0.00    +0.000 HD
ENDBRANCH   2   5
BRANCH   3  16
ATOM     16  C   UNL     1      46.724   6.560  12.296  0.00  0.00    +0.000 C 
BRANCH  16  17
ATOM     17  C   UNL     1      45.579   5.607  12.067  0.00  0.00    +0.000 A 
ATOM     18  C   UNL     1      44.793   5.167  13.126  0.00  0.00    +0.000 A 
ATOM     19  C   UNL     1      43.732   4.305  12.868  0.00  0.00    +0.000 A 
ATOM     20  C   UNL     1      43.478   3.909  11.559  0.00  0.00    +0.000 A 
ATOM     21  C   UNL     1      44.301   4.400  10.557  0.00  0.00    +0.000 A 
ATOM     22  N   UNL     1      45.359   5.209  10.789  0.00  0.00    +0.000 NA
BRANCH  21  23
ATOM     23  O   UNL     1      43.993   4.032   9.257  0.00  0.00    +0.000 OA
BRANCH  23  24
ATOM     24  C   UNL     1      44.947   3.335   8.545  0.00  0.00    +0.000 A 
ATOM     25  C   UNL     1      45.336   2.037   8.870  0.00  0.00    +0.000 A 
ATOM     26  C   UNL     1      46.335   1.424   8.120  0.00  0.00    +0.000 A 
ATOM     27  C   UNL     1      46.946   2.137   7.099  0.00  0.00    +0.000 A 
ATOM     28  C   UNL     1      46.533   3.439   6.874  0.00  0.00    +0.000 A 
ATOM     29  N   UNL     1      45.559   4.056   7.577  0.00  0.00    +0.000 NA
ENDBRANCH  23  24
ENDBRANCH  21  23
ENDBRANCH  16  17
ENDBRANCH   3  16
TORSDOF 5
ENDMDL
