MODEL 1
REMARK VINA RESULT:    -7.604      0.000      0.000
REMARK INTER + INTRA:         -10.074
REMARK INTER:                  -9.382
REMARK INTRA:                  -0.692
REMARK UNBOUND:                -0.692
REMARK  Name = 
REMARK  4 active torsions:
REMARK  status: ('A' for Active; 'I' for Inactive)
REMARK    1  A    between atoms: C_4  and  C_5
REMARK    2  A    between atoms: C_12  and  C_13
REMARK    3  A    between atoms: C_13  and  O_14
REMARK    4  A    between atoms: O_14  and  C_15
REMARK                            x       y       z     vdW  Elec       q    Type
REMARK                         _______ _______ _______ _____ _____    ______ ____
ROOT
ATOM      1  F   UNL     1      47.315   3.269  14.386  0.00  0.00    +0.000 F 
ATOM      2  C   UNL     1      46.864   4.229  13.567  0.00  0.00    +0.000 A 
ATOM      3  C   UNL     1      47.650   5.354  13.343  0.00  0.00    +0.000 A 
ATOM      4  C   UNL     1      47.207   6.328  12.450  0.00  0.00    +0.000 A 
ATOM      5  C   UNL     1      45.915   6.177  11.885  0.00  0.00    +0.000 A 
ATOM      6  C   UNL     1      45.105   5.040  12.087  0.00  0.00    +0.000 A 
ATOM      7  C   UNL     1      45.637   4.056  12.928  0.00  0.00    +0.000 A 
ENDROOT
BRANCH   4   8
ATOM      8  C   UNL     1      48.103   7.438  11.910  0.00  0.00    +0.000 C 
ATOM      9  C   UNL     1      49.541   7.199  12.415  0.00  0.00    +0.000 C 
ATOM     10  C   UNL     1      49.812   7.874  13.756  0.00  0.00    +0.000 C 
ATOM     11  N   UNL     1      49.589   9.315  13.651  0.00  0.00    +0.000 NA
ATOM     12  C   UNL     1      48.180   9.586  13.380  0.00  0.00    +0.000 C 
ATOM     13  C   UNL     1      47.661   8.902  12.112  0.00  0.00    +0.000 C 
ATOM     14  H   UNL     1      50.162   9.689  12.895  0.00  0.00    +0.000 HD
ENDBRANCH   4   8
BRANCH   6  15
ATOM     15  C   UNL     1      43.732   4.874  11.419  0.00  0.00    +0.000 C 
ATOM     16  C   UNL     1      42.858   6.072  11.110  0.00  0.00    +0.000 C 
ATOM     17  C   UNL     1      42.508   5.218  12.279  0.00  0.00    +0.000 C 
BRANCH  15  18
ATOM     18  O   UNL     1      43.504   3.677  10.628  0.00  0.00    +0.000 OA
BRANCH  18  19
ATOM     19  C   UNL     1      44.392   3.424   9.593  0.00  0.00    +0.000 A 
ATOM     20  C   UNL     1      44.810   2.108   9.447  0.00  0.00    +0.000 A 
ATOM     21  C   UNL     1      45.803   1.821   8.509  0.00  0.00    +0.000 A 
ATOM     22  C   UNL     1      46.336   2.857   7.752  0.00  0.00    +0.000 A 
ATOM     23 CL   UNL     1      47.622   2.573   6.653  0.00  0.00    +0.000 Cl
ATOM     24  C   UNL     1      45.819   4.129   7.927  0.00  0.00    +0.000 A 
ATOM     25  N   UNL     1      44.848   4.434   8.822  0.00  0.00    +0.000 NA
ENDBRANCH  18  19
ENDBRANCH  15  18
ENDBRANCH   6  15
TORSDOF 4
ENDMDL
MODEL 2
REMARK VINA RESULT:    -6.567      4.292      7.722
REMARK INTER + INTRA:          -8.795
REMARK INTER:                  -8.170
REMARK INTRA:                  -0.624
REMARK UNBOUND:                -0.692
REMARK  Name = 
REMARK  4 active torsions:
REMARK  status: ('A' for Active; 'I' for Inactive)
REMARK    1  A    between atoms: C_4  and  C_5
REMARK    2  A    between atoms: C_12  and  C_13
REMARK    3  A    between atoms: C_13  and  O_14
REMARK    4  A    between atoms: O_14  and  C_15
REMARK                            x       y       z     vdW  Elec       q    Type
REMARK                         _______ _______ _______ _____ _____    ______ ____
ROOT
ATOM      1  F   UNL     1      44.747   9.440  12.915  0.00  0.00    +0.000 F 
ATOM      2  C   UNL     1      45.568   8.381  12.904  0.00  0.00    +0.000 A 
ATOM      3  C   UNL     1      45.090   7.157  12.451  0.00  0.00    +0.000 A 
ATOM      4  C   UNL     1      45.956   6.068  12.388  0.00  0.00    +0.000 A 
ATOM      5  C   UNL     1      47.272   6.232  12.893  0.00  0.00    +0.000 A 
ATOM      6  C   UNL     1      47.784   7.466  13.346  0.00  0.00    +0.000 A 
ATOM      7  C   UNL     1      46.893   8.544  13.308  0.00  0.00    +0.000 A 
ENDROOT
BRANCH   4   8
ATOM      8  C   UNL     1      45.628   4.779  11.642  0.00  0.00    +0.000 C 
ATOM      9  C   UNL     1      44.678   5.115  10.473  0.00  0.00    +0.000 C 
ATOM     10  C   UNL     1      43.208   5.049  10.874  0.00  0.00    +0.000 C 
ATOM     11  N   UNL     1      42.878   3.716  11.372  0.00  0.00    +0.000 NA
ATOM     12  C   UNL     1      43.609   3.446  12.608  0.00  0.00    +0.000 C 
ATOM     13  C   UNL     1      45.128   3.566  12.455  0.00  0.00    +0.000 C 
ATOM     14  H   UNL     1      43.129   3.022  10.668  0.00  0.00    +0.000 HD
ENDBRANCH   4   8
BRANCH   6  15
ATOM     15  C   UNL     1      49.230   7.630  13.835  0.00  0.00    +0.000 C 
ATOM     16  C   UNL     1      49.918   8.979  13.819  0.00  0.00    +0.000 C 
ATOM     17  C   UNL     1      50.275   7.986  12.770  0.00  0.00    +0.000 C 
BRANCH  15  18
ATOM     18  O   UNL     1      49.743   6.646  14.773  0.00  0.00    +0.000 OA
BRANCH  18  19
ATOM     19  C   UNL     1      49.053   6.488  15.966  0.00  0.00    +0.000 A 
ATOM     20  C   UNL     1      49.010   7.592  16.806  0.00  0.00    +0.000 A 
ATOM     21  C   UNL     1      48.445   7.447  18.074  0.00  0.00    +0.000 A 
ATOM     22  C   UNL     1      47.943   6.209  18.452  0.00  0.00    +0.000 A 
ATOM     23 CL   UNL     1      47.323   5.954  20.030  0.00  0.00    +0.000 Cl
ATOM     24  C   UNL     1      47.978   5.178  17.528  0.00  0.00    +0.000 A 
ATOM     25  N   UNL     1      48.510   5.294  16.287  0.00  0.00    +0.000 NA
ENDBRANCH  18  19
ENDBRANCH  15  18
ENDBRANCH   6  15
TORSDOF 4
ENDMDL
MODEL 3
REMARK VINA RESULT:    -6.552      2.518      3.476
REMARK INTER + INTRA:          -8.777
REMARK INTER:                  -8.721
REMARK INTRA:                  -0.056
REMARK UNBOUND:                -0.692
REMARK  Name = 
REMARK  4 active torsions:
REMARK  status: ('A' for Active; 'I' for Inactive)
REMARK    1  A    between atoms: C_4  and  C_5
REMARK    2  A    between atoms: C_12  and  C_13
REMARK    3  A    between atoms: C_13  and  O_14
REMARK    4  A    between atoms: O_14  and  C_15
REMARK                            x       y       z     vdW  Elec       q    Type
REMARK                         _______ _______ _______ _____ _____    ______ ____
ROOT
ATOM      1  F   UNL     1      48.574   7.422  12.438  0.00  0.00    +0.000 F 
ATOM      2  C   UNL     1      47.769   6.516  13.009  0.00  0.00    +0.000 A 
ATOM      3  C   UNL     1      48.120   5.977  14.241  0.00  0.00    +0.000 A 
ATOM      4  C   UNL     1      47.257   5.076  14.861  0.00  0.00    +0.000 A 
ATOM      5  C   UNL     1      46.098   4.666  14.153  0.00  0.00    +0.000 A 
ATOM      6  C   UNL     1      45.714   5.209  12.909  0.00  0.00    +0.000 A 
ATOM      7  C   UNL     1      46.577   6.170  12.373  0.00  0.00    +0.000 A 
ENDROOT
BRANCH   4   8
ATOM      8  C   UNL     1      47.393   4.656  16.321  0.00  0.00    +0.000 C 
ATOM      9  C   UNL     1      48.448   5.557  16.996  0.00  0.00    +0.000 C 
ATOM     10  C   UNL     1      49.861   4.992  16.885  0.00  0.00    +0.000 C 
ATOM     11  N   UNL     1      49.925   3.665  17.494  0.00  0.00    +0.000 NA
ATOM     12  C   UNL     1      49.093   2.728  16.744  0.00  0.00    +0.000 C 
ATOM     13  C   UNL     1      47.629   3.164  16.638  0.00  0.00    +0.000 C 
ATOM     14  H   UNL     1      49.594   3.722  18.457  0.00  0.00    +0.000 HD
ENDBRANCH   4   8
BRANCH   6  15
ATOM     15  C   UNL     1      44.425   4.789  12.188  0.00  0.00    +0.000 C 
ATOM     16  C   UNL     1      43.422   5.816  11.706  0.00  0.00    +0.000 C 
ATOM     17  C   UNL     1      43.110   5.042  12.938  0.00  0.00    +0.000 C 
BRANCH  15  18
ATOM     18  O   UNL     1      44.413   3.500  11.518  0.00  0.00    +0.000 OA
BRANCH  18  19
ATOM     19  C   UNL     1      44.843   3.467  10.200  0.00  0.00    +0.000 A 
ATOM     20  C   UNL     1      44.925   2.214   9.608  0.00  0.00    +0.000 A 
ATOM     21  C   UNL     1      45.478   2.112   8.331  0.00  0.00    +0.000 A 
ATOM     22  C   UNL     1      45.923   3.263   7.694  0.00  0.00    +0.000 A 
ATOM     23 CL   UNL     1      46.693   3.181   6.164  0.00  0.00    +0.000 Cl
ATOM     24  C   UNL     1      45.750   4.477   8.338  0.00  0.00    +0.000 A 
ATOM     25  N   UNL     1      45.206   4.606   9.572  0.00  0.00    +0.000 NA
ENDBRANCH  18  19
ENDBRANCH  15  18
ENDBRANCH   6  15
TORSDOF 4
ENDMDL
MODEL 4
REMARK VINA RESULT:    -6.292      4.067      7.449
REMARK INTER + INTRA:          -8.455
REMARK INTER:                  -7.702
REMARK INTRA:                  -0.754
REMARK UNBOUND:                -0.692
REMARK  Name = 
REMARK  4 active torsions:
REMARK  status: ('A' for Active; 'I' for Inactive)
REMARK    1  A    between atoms: C_4  and  C_5
REMARK    2  A    between atoms: C_12  and  C_13
REMARK    3  A    between atoms: C_13  and  O_14
REMARK    4  A    between atoms: O_14  and  C_15
REMARK                            x       y       z     vdW  Elec       q    Type
REMARK                         _______ _______ _______ _____ _____    ______ ____
ROOT
ATOM      1  F   UNL     1      44.627  10.232  12.214  0.00  0.00    +0.000 F 
ATOM      2  C   UNL     1      45.223   9.033  12.149  0.00  0.00    +0.000 A 
ATOM      3  C   UNL     1      44.460   7.912  11.843  0.00  0.00    +0.000 A 
ATOM      4  C   UNL     1      45.086   6.674  11.723  0.00  0.00    +0.000 A 
ATOM      5  C   UNL     1      46.471   6.593  12.023  0.00  0.00    +0.000 A 
ATOM      6  C   UNL     1      47.268   7.718  12.324  0.00  0.00    +0.000 A 
ATOM      7  C   UNL     1      46.600   8.947  12.349  0.00  0.00    +0.000 A 
ENDROOT
BRANCH   4   8
ATOM      8  C   UNL     1      44.412   5.450  11.110  0.00  0.00    +0.000 C 
ATOM      9  C   UNL     1      43.064   5.223  11.825  0.00  0.00    +0.000 C 
ATOM     10  C   UNL     1      43.192   4.320  13.048  0.00  0.00    +0.000 C 
ATOM     11  N   UNL     1      43.740   3.021  12.664  0.00  0.00    +0.000 NA
ATOM     12  C   UNL     1      45.107   3.177  12.175  0.00  0.00    +0.000 C 
ATOM     13  C   UNL     1      45.225   4.144  10.994  0.00  0.00    +0.000 C 
ATOM     14  H   UNL     1      43.158   2.616  11.930  0.00  0.00    +0.000 HD
ENDBRANCH   4   8
BRANCH   6  15
ATOM     15  C   UNL     1      48.776   7.612  12.591  0.00  0.00    +0.000 C 
ATOM     16  C   UNL     1      49.689   8.811  12.437  0.00  0.00    +0.000 C 
ATOM     17  C   UNL     1      49.698   7.769  11.374  0.00  0.00    +0.000 C 
BRANCH  15  18
ATOM     18  O   UNL     1      49.235   6.550  13.470  0.00  0.00    +0.000 OA
BRANCH  18  19
ATOM     19  C   UNL     1      48.916   6.659  14.815  0.00  0.00    +0.000 A 
ATOM     20  C   UNL     1      49.095   7.909  15.393  0.00  0.00    +0.000 A 
ATOM     21  C   UNL     1      48.916   8.040  16.771  0.00  0.00    +0.000 A 
ATOM     22  C   UNL     1      48.563   6.922  17.516  0.00  0.00    +0.000 A 
ATOM     23 CL   UNL     1      48.423   7.010  19.223  0.00  0.00    +0.000 Cl
ATOM     24  C   UNL     1      48.353   5.728  16.847  0.00  0.00    +0.000 A 
ATOM     25  N   UNL     1      48.508   5.575  15.509  0.00  0.00    +0.000 NA
ENDBRANCH  18  19
ENDBRANCH  15  18
ENDBRANCH   6  15
TORSDOF 4
ENDMDL
MODEL 5
REMARK VINA RESULT:    -6.232      3.344      6.842
REMARK INTER + INTRA:          -8.381
REMARK INTER:                  -8.030
REMARK INTRA:                  -0.350
REMARK UNBOUND:                -0.692
REMARK  Name = 
REMARK  4 active torsions:
REMARK  status: ('A' for Active; 'I' for Inactive)
REMARK    1  A    between atoms: C_4  and  C_5
REMARK    2  A    between atoms: C_12  and  C_13
REMARK    3  A    between atoms: C_13  and  O_14
REMARK    4  A    between atoms: O_14  and  C_15
REMARK                            x       y       z     vdW  Elec       q    Type
REMARK                         _______ _______ _______ _____ _____    ______ ____
ROOT
ATOM      1  F   UNL     1      47.136   4.340  15.391  0.00  0.00    +0.000 F 
ATOM      2  C   UNL     1      46.984   4.993  14.231  0.00  0.00    +0.000 A 
ATOM      3  C   UNL     1      46.046   4.536  13.313  0.00  0.00    +0.000 A 
ATOM      4  C   UNL     1      45.848   5.246  12.131  0.00  0.00    +0.000 A 
ATOM      5  C   UNL     1      46.694   6.355  11.868  0.00  0.00    +0.000 A 
ATOM      6  C   UNL     1      47.643   6.844  12.789  0.00  0.00    +0.000 A 
ATOM      7  C   UNL     1      47.740   6.141  13.994  0.00  0.00    +0.000 A 
ENDROOT
BRANCH   4   8
ATOM      8  C   UNL     1      44.661   5.013  11.202  0.00  0.00    +0.000 C 
ATOM      9  C   UNL     1      43.522   4.363  12.015  0.00  0.00    +0.000 C 
ATOM     10  C   UNL     1      43.596   2.839  12.015  0.00  0.00    +0.000 C 
ATOM     11  N   UNL     1      43.540   2.329  10.647  0.00  0.00    +0.000 NA
ATOM     12  C   UNL     1      44.722   2.756   9.903  0.00  0.00    +0.000 C 
ATOM     13  C   UNL     1      44.904   4.276   9.869  0.00  0.00    +0.000 C 
ATOM     14  H   UNL     1      42.701   2.687  10.190  0.00  0.00    +0.000 HD
ENDBRANCH   4   8
BRANCH   6  15
ATOM     15  C   UNL     1      48.509   8.080  12.504  0.00  0.00    +0.000 C 
ATOM     16  C   UNL     1      49.494   8.104  11.354  0.00  0.00    +0.000 C 
ATOM     17  C   UNL     1      50.018   7.926  12.736  0.00  0.00    +0.000 C 
BRANCH  15  18
ATOM     18  O   UNL     1      48.028   9.367  12.978  0.00  0.00    +0.000 OA
BRANCH  18  19
ATOM     19  C   UNL     1      47.113  10.035  12.180  0.00  0.00    +0.000 A 
ATOM     20  C   UNL     1      47.620  11.039  11.366  0.00  0.00    +0.000 A 
ATOM     21  C   UNL     1      46.725  11.831  10.643  0.00  0.00    +0.000 A 
ATOM     22  C   UNL     1      45.363  11.587  10.759  0.00  0.00    +0.000 A 
ATOM     23 CL   UNL     1      44.219  12.589   9.966  0.00  0.00    +0.000 Cl
ATOM     24  C   UNL     1      44.951  10.529  11.552  0.00  0.00    +0.000 A 
ATOM     25  N   UNL     1      45.798   9.738  12.255  0.00  0.00    +0.000 NA
ENDBRANCH  18  19
ENDBRANCH  15  18
ENDBRANCH   6  15
TORSDOF 4
ENDMDL
MODEL 6
REMARK VINA RESULT:    -5.936      3.910      5.722
REMARK INTER + INTRA:          -8.016
REMARK INTER:                  -7.164
REMARK INTRA:                  -0.852
REMARK UNBOUND:                -0.692
REMARK  Name = 
REMARK  4 active torsions:
REMARK  status: ('A' for Active; 'I' for Inactive)
REMARK    1  A    between atoms: C_4  and  C_5
REMARK    2  A    between atoms: C_12  and  C_13
REMARK    3  A    between atoms: C_13  and  O_14
REMARK    4  A    between atoms: O_14  and  C_15
REMARK                            x       y       z     vdW  Elec       q    Type
REMARK                         _______ _______ _______ _____ _____    ______ ____
ROOT
ATOM      1  F   UNL     1      48.136  10.197  17.084  0.00  0.00    +0.000 F 
ATOM      2  C   UNL     1      48.374   9.070  16.400  0.00  0.00    +0.000 A 
ATOM      3  C   UNL     1      48.948   7.986  17.056  0.00  0.00    +0.000 A 
ATOM      4  C   UNL     1      49.146   6.796  16.360  0.00  0.00    +0.000 A 
ATOM      5  C   UNL     1      48.846   6.775  14.973  0.00  0.00    +0.000 A 
ATOM      6  C   UNL     1      48.252   7.857  14.290  0.00  0.00    +0.000 A 
ATOM      7  C   UNL     1      47.999   8.998  15.059  0.00  0.00    +0.000 A 
ENDROOT
BRANCH   4   8
ATOM      8  C   UNL     1      49.486   5.475  17.041  0.00  0.00    +0.000 C 
ATOM      9  C   UNL     1      48.427   4.427  16.637  0.00  0.00    +0.000 C 
ATOM     10  C   UNL     1      47.232   4.405  17.585  0.00  0.00    +0.000 C 
ATOM     11  N   UNL     1      47.672   4.119  18.949  0.00  0.00    +0.000 NA
ATOM     12  C   UNL     1      48.514   5.206  19.443  0.00  0.00    +0.000 C 
ATOM     13  C   UNL     1      49.738   5.476  18.563  0.00  0.00    +0.000 C 
ATOM     14  H   UNL     1      48.201   3.247  18.955  0.00  0.00    +0.000 HD
ENDBRANCH   4   8
BRANCH   6  15
ATOM     15  C   UNL     1      47.886   7.790  12.800  0.00  0.00    +0.000 C 
ATOM     16  C   UNL     1      48.844   7.215  11.778  0.00  0.00    +0.000 C 
ATOM     17  C   UNL     1      48.692   8.694  11.857  0.00  0.00    +0.000 C 
BRANCH  15  18
ATOM     18  O   UNL     1      46.475   7.782  12.449  0.00  0.00    +0.000 OA
BRANCH  18  19
ATOM     19  C   UNL     1      45.873   6.546  12.275  0.00  0.00    +0.000 A 
ATOM     20  C   UNL     1      45.594   6.174  10.966  0.00  0.00    +0.000 A 
ATOM     21  C   UNL     1      44.869   5.002  10.744  0.00  0.00    +0.000 A 
ATOM     22  C   UNL     1      44.455   4.247  11.834  0.00  0.00    +0.000 A 
ATOM     23 CL   UNL     1      43.483   2.850  11.619  0.00  0.00    +0.000 Cl
ATOM     24  C   UNL     1      44.826   4.666  13.100  0.00  0.00    +0.000 A 
ATOM     25  N   UNL     1      45.538   5.793  13.344  0.00  0.00    +0.000 NA
ENDBRANCH  18  19
ENDBRANCH  15  18
ENDBRANCH   6  15
TORSDOF 4
ENDMDL
MODEL 7
REMARK VINA RESULT:    -5.854      4.787      6.690
REMARK INTER + INTRA:          -7.916
REMARK INTER:                  -7.265
REMARK INTRA:                  -0.650
REMARK UNBOUND:                -0.692
REMARK  Name = 
REMARK  4 active torsions:
REMARK  status: ('A' for Active; 'I' for Inactive)
REMARK    1  A    between atoms: C_4  and  C_5
REMARK    2  A    between atoms: C_12  and  C_13
REMARK    3  A    between atoms: C_13  and  O_14
REMARK    4  A    between atoms: O_14  and  C_15
REMARK                            x       y       z     vdW  Elec       q    Type
REMARK                         _______ _______ _______ _____ _____    ______ ____
ROOT
ATOM      1  F   UNL     1      52.062   0.656  17.353  0.00  0.00    +0.000 F 
ATOM      2  C   UNL     1      51.494   1.867  17.429  0.00  0.00    +0.000 A 
ATOM      3  C   UNL     1      52.256   2.948  17.859  0.00  0.00    +0.000 A 
ATOM      4  C   UNL     1      51.683   4.217  17.888  0.00  0.00    +0.000 A 
ATOM      5  C   UNL     1      50.305   4.335  17.574  0.00  0.00    +0.000 A 
ATOM      6  C   UNL     1      49.515   3.256  17.123  0.00  0.00    +0.000 A 
ATOM      7  C   UNL     1      50.166   2.021  17.035  0.00  0.00    +0.000 A 
ENDROOT
BRANCH   4   8
ATOM      8  C   UNL     1      52.494   5.498  18.055  0.00  0.00    +0.000 C 
ATOM      9  C   UNL     1      51.660   6.681  17.519  0.00  0.00    +0.000 C 
ATOM     10  C   UNL     1      51.891   6.937  16.033  0.00  0.00    +0.000 C 
ATOM     11  N   UNL     1      53.304   7.212  15.781  0.00  0.00    +0.000 NA
ATOM     12  C   UNL     1      54.107   6.030  16.080  0.00  0.00    +0.000 C 
ATOM     13  C   UNL     1      53.940   5.528  17.517  0.00  0.00    +0.000 C 
ATOM     14  H   UNL     1      53.605   7.989  16.369  0.00  0.00    +0.000 HD
ENDBRANCH   4   8
BRANCH   6  15
ATOM     15  C   UNL     1      48.038   3.421  16.735  0.00  0.00    +0.000 C 
ATOM     16  C   UNL     1      47.088   4.240  17.583  0.00  0.00    +0.000 C 
ATOM     17  C   UNL     1      47.011   2.756  17.661  0.00  0.00    +0.000 C 
BRANCH  15  18
ATOM     18  O   UNL     1      47.682   3.247  15.337  0.00  0.00    +0.000 OA
BRANCH  18  19
ATOM     19  C   UNL     1      47.314   4.383  14.632  0.00  0.00    +0.000 A 
ATOM     20  C   UNL     1      46.128   4.306  13.914  0.00  0.00    +0.000 A 
ATOM     21  C   UNL     1      45.780   5.371  13.081  0.00  0.00    +0.000 A 
ATOM     22  C   UNL     1      46.626   6.470  13.000  0.00  0.00    +0.000 A 
ATOM     23 CL   UNL     1      46.291   7.762  11.924  0.00  0.00    +0.000 Cl
ATOM     24  C   UNL     1      47.760   6.483  13.794  0.00  0.00    +0.000 A 
ATOM     25  N   UNL     1      48.116   5.469  14.620  0.00  0.00    +0.000 NA
ENDBRANCH  18  19
ENDBRANCH  15  18
ENDBRANCH   6  15
TORSDOF 4
ENDMDL
MODEL 8
REMARK VINA RESULT:    -5.740      5.485      8.473
REMARK INTER + INTRA:          -7.774
REMARK INTER:                  -7.166
REMARK INTRA:                  -0.608
REMARK UNBOUND:                -0.692
REMARK  Name = 
REMARK  4 active torsions:
REMARK  status: ('A' for Active; 'I' for Inactive)
REMARK    1  A    between atoms: C_4  and  C_5
REMARK    2  A    between atoms: C_12  and  C_13
REMARK    3  A    between atoms: C_13  and  O_14
REMARK    4  A    between atoms: O_14  and  C_15
REMARK                            x       y       z     vdW  Elec       q    Type
REMARK                         _______ _______ _______ _____ _____    ______ ____
ROOT
ATOM      1  F   UNL     1      49.263   7.896  13.975  0.00  0.00    +0.000 F 
ATOM      2  C   UNL     1      48.433   6.871  14.216  0.00  0.00    +0.000 A 
ATOM      3  C   UNL     1      47.448   6.562  13.285  0.00  0.00    +0.000 A 
ATOM      4  C   UNL     1      46.620   5.465  13.508  0.00  0.00    +0.000 A 
ATOM      5  C   UNL     1      46.753   4.767  14.737  0.00  0.00    +0.000 A 
ATOM      6  C   UNL     1      47.752   5.053  15.690  0.00  0.00    +0.000 A 
ATOM      7  C   UNL     1      48.608   6.114  15.374  0.00  0.00    +0.000 A 
ENDROOT
BRANCH   4   8
ATOM      8  C   UNL     1      45.718   4.864  12.435  0.00  0.00    +0.000 C 
ATOM      9  C   UNL     1      45.509   5.915  11.324  0.00  0.00    +0.000 C 
ATOM     10  C   UNL     1      44.304   6.814  11.585  0.00  0.00    +0.000 C 
ATOM     11  N   UNL     1      43.089   6.010  11.699  0.00  0.00    +0.000 NA
ATOM     12  C   UNL     1      43.166   5.147  12.875  0.00  0.00    +0.000 C 
ATOM     13  C   UNL     1      44.385   4.221  12.871  0.00  0.00    +0.000 C 
ATOM     14  H   UNL     1      42.985   5.439  10.861  0.00  0.00    +0.000 HD
ENDBRANCH   4   8
BRANCH   6  15
ATOM     15  C   UNL     1      47.910   4.247  16.987  0.00  0.00    +0.000 C 
ATOM     16  C   UNL     1      49.206   3.536  17.320  0.00  0.00    +0.000 C 
ATOM     17  C   UNL     1      48.055   2.727  16.834  0.00  0.00    +0.000 C 
BRANCH  15  18
ATOM     18  O   UNL     1      47.046   4.587  18.105  0.00  0.00    +0.000 OA
BRANCH  18  19
ATOM     19  C   UNL     1      47.569   5.425  19.078  0.00  0.00    +0.000 A 
ATOM     20  C   UNL     1      47.362   6.786  18.897  0.00  0.00    +0.000 A 
ATOM     21  C   UNL     1      47.980   7.680  19.773  0.00  0.00    +0.000 A 
ATOM     22  C   UNL     1      48.776   7.181  20.796  0.00  0.00    +0.000 A 
ATOM     23 CL   UNL     1      49.631   8.237  21.842  0.00  0.00    +0.000 Cl
ATOM     24  C   UNL     1      48.881   5.807  20.934  0.00  0.00    +0.000 A 
ATOM     25  N   UNL     1      48.283   4.917  20.105  0.00  0.00    +0.000 NA
ENDBRANCH  18  19
ENDBRANCH  15  18
ENDBRANCH   6  15
TORSDOF 4
ENDMDL
MODEL 9
REMARK VINA RESULT:    -5.665      3.499      7.015
REMARK INTER + INTRA:          -7.682
REMARK INTER:                  -7.092
REMARK INTRA:                  -0.591
REMARK UNBOUND:                -0.692
REMARK  Name = 
REMARK  4 active torsions:
REMARK  status: ('A' for Active; 'I' for Inactive)
REMARK    1  A    between atoms: C_4  and  C_5
REMARK    2  A    between atoms: C_12  and  C_13
REMARK    3  A    between atoms: C_13  and  O_14
REMARK    4  A    between atoms: O_14  and  C_15
REMARK                            x       y       z     vdW  Elec       q    Type
REMARK                         _______ _______ _______ _____ _____    ______ ____
ROOT
ATOM      1  F   UNL     1      44.632   9.731  12.292  0.00  0.00    +0.000 F 
ATOM      2  C   UNL     1      45.419   8.675  12.542  0.00  0.00    +0.000 A 
ATOM      3  C   UNL     1      44.996   7.408  12.155  0.00  0.00    +0.000 A 
ATOM      4  C   UNL     1      45.836   6.317  12.365  0.00  0.00    +0.000 A 
ATOM      5  C   UNL     1      47.051   6.534  13.065  0.00  0.00    +0.000 A 
ATOM      6  C   UNL     1      47.507   7.811  13.455  0.00  0.00    +0.000 A 
ATOM      7  C   UNL     1      46.660   8.880  13.144  0.00  0.00    +0.000 A 
ENDROOT
BRANCH   4   8
ATOM      8  C   UNL     1      45.609   4.951  11.726  0.00  0.00    +0.000 C 
ATOM      9  C   UNL     1      44.712   5.132  10.484  0.00  0.00    +0.000 C 
ATOM     10  C   UNL     1      43.226   5.029  10.812  0.00  0.00    +0.000 C 
ATOM     11  N   UNL     1      42.930   3.730  11.414  0.00  0.00    +0.000 NA
ATOM     12  C   UNL     1      43.602   3.610  12.705  0.00  0.00    +0.000 C 
ATOM     13  C   UNL     1      45.120   3.793  12.620  0.00  0.00    +0.000 C 
ATOM     14  H   UNL     1      43.252   2.990  10.790  0.00  0.00    +0.000 HD
ENDBRANCH   4   8
BRANCH   6  15
ATOM     15  C   UNL     1      48.853   8.026  14.162  0.00  0.00    +0.000 C 
ATOM     16  C   UNL     1      49.521   6.912  14.940  0.00  0.00    +0.000 C 
ATOM     17  C   UNL     1      48.832   7.994  15.696  0.00  0.00    +0.000 C 
BRANCH  15  18
ATOM     18  O   UNL     1      49.716   9.085  13.666  0.00  0.00    +0.000 OA
BRANCH  18  19
ATOM     19  C   UNL     1      50.695   8.728  12.751  0.00  0.00    +0.000 A 
ATOM     20  C   UNL     1      50.255   8.134  11.576  0.00  0.00    +0.000 A 
ATOM     21  C   UNL     1      51.204   7.635  10.683  0.00  0.00    +0.000 A 
ATOM     22  C   UNL     1      52.552   7.752  10.995  0.00  0.00    +0.000 A 
ATOM     23 CL   UNL     1      53.754   7.074   9.976  0.00  0.00    +0.000 Cl
ATOM     24  C   UNL     1      52.900   8.409  12.163  0.00  0.00    +0.000 A 
ATOM     25  N   UNL     1      52.000   8.913  13.042  0.00  0.00    +0.000 NA
ENDBRANCH  18  19
ENDBRANCH  15  18
ENDBRANCH   6  15
TORSDOF 4
ENDMDL
