MODEL 1
REMARK VINA RESULT:    -6.341      0.000      0.000
REMARK INTER + INTRA:         -11.279
REMARK INTER:                  -9.307
REMARK INTRA:                  -1.973
REMARK UNBOUND:                -1.973
REMARK  Name = 
REMARK  9 active torsions:
REMARK  status: ('A' for Active; 'I' for Inactive)
REMARK    1  A    between atoms: C_1  and  C_2
REMARK    2  A    between atoms: C_2  and  C_3
REMARK    3  A    between atoms: C_3  and  C_4
REMARK    4  A    between atoms: C_4  and  O_5
REMARK    5  A    between atoms: O_5  and  C_6
REMARK    6  A    between atoms: C_8  and  C_9
REMARK    7  A    between atoms: C_9  and  N_10
REMARK    8  A    between atoms: C_15  and  C_16
REMARK    9  A    between atoms: C_23  and  C_24
REMARK                            x       y       z     vdW  Elec       q    Type
REMARK                         _______ _______ _______ _____ _____    ______ ____
ROOT
ATOM      1  C   UNL     1      47.672   6.090  14.237  0.00  0.00    +0.000 A 
ATOM      2  C   UNL     1      46.650   6.048  13.279  0.00  0.00    +0.000 A 
ATOM      3  C   UNL     1      46.151   7.199  12.682  0.00  0.00    +0.000 A 
ATOM      4  C   UNL     1      46.713   8.428  13.043  0.00  0.00    +0.000 A 
ATOM      5  C   UNL     1      47.753   8.472  13.968  0.00  0.00    +0.000 A 
ATOM      6  F   UNL     1      48.248   9.691  14.255  0.00  0.00    +0.000 F 
ATOM      7  C   UNL     1      48.268   7.327  14.595  0.00  0.00    +0.000 A 
ENDROOT
BRANCH   7   8
ATOM      8  C   UNL     1      49.345   7.441  15.601  0.00  0.00    +0.000 A 
ATOM      9  C   UNL     1      50.697   7.290  15.236  0.00  0.00    +0.000 A 
ATOM     10  C   UNL     1      51.718   7.377  16.178  0.00  0.00    +0.000 A 
ATOM     11  C   UNL     1      51.408   7.642  17.505  0.00  0.00    +0.000 A 
ATOM     12  C   UNL     1      50.079   7.801  17.890  0.00  0.00    +0.000 A 
ATOM     13 CL   UNL     1      49.695   8.124  19.537  0.00  0.00    +0.000 Cl
ATOM     14  C   UNL     1      49.060   7.688  16.957  0.00  0.00    +0.000 A 
ENDBRANCH   7   8
BRANCH   1  15
ATOM     15  O   UNL     1      48.097   4.961  14.891  0.00  0.00    +0.000 OA
BRANCH  15  16
ATOM     16  C   UNL     1      47.110   4.222  15.603  0.00  0.00    +0.000 C 
BRANCH  16  17
ATOM     17  C   UNL     1      47.803   3.354  16.641  0.00  0.00    +0.000 C 
BRANCH  17  19
ATOM     18  C   UNL     1      50.068   3.973  17.553  0.00  0.00    +0.000 C 
ATOM     19  C   UNL     1      48.569   4.200  17.650  0.00  0.00    +0.000 C 
ENDBRANCH  17  19
ENDBRANCH  16  17
ENDBRANCH  15  16
ENDBRANCH   1  15
BRANCH   3  20
ATOM     20  C   UNL     1      45.016   7.101  11.684  0.00  0.00    +0.000 C 
BRANCH  20  21
ATOM     21  N   UNL     1      45.507   6.625  10.374  0.00  0.00    +0.000 N 
ATOM     22  C   UNL     1      45.158   5.286  10.102  0.00  0.00    +0.000 A 
ATOM     23  C   UNL     1      45.545   4.669   8.893  0.00  0.00    +0.000 A 
ATOM     24  N   UNL     1      45.274   3.376   8.615  0.00  0.00    +0.000 NA
ATOM     25  C   UNL     1      44.576   2.699   9.567  0.00  0.00    +0.000 A 
ATOM     26  C   UNL     1      44.181   3.303  10.770  0.00  0.00    +0.000 A 
ATOM     27  N   UNL     1      44.464   4.595  11.034  0.00  0.00    +0.000 NA
ATOM     28  H   UNL     1      46.514   6.666  10.329  0.00  0.00    +0.000 HD
BRANCH  26  29
ATOM     29  C   UNL     1      43.427   2.546  11.810  0.00  0.00    +0.000 C 
ATOM     30  N   UNL     1      43.519   2.957  13.122  0.00  0.00    +0.000 N 
ATOM     31  O   UNL     1      42.733   1.581  11.528  0.00  0.00    +0.000 OA
ATOM     32  H   UNL     1      44.053   3.763  13.435  0.00  0.00    +0.000 HD
ATOM     33  H   UNL     1      42.994   2.428  13.797  0.00  0.00    +0.000 HD
ENDBRANCH  26  29
ENDBRANCH  20  21
ENDBRANCH   3  20
TORSDOF 8
ENDMDL
MODEL 2
REMARK VINA RESULT:    -6.313      1.762      2.505
REMARK INTER + INTRA:         -11.238
REMARK INTER:                  -9.452
REMARK INTRA:                  -1.786
REMARK UNBOUND:                -1.973
REMARK  Name = 
REMARK  9 active torsions:
REMARK  status: ('A' for Active; 'I' for Inactive)
REMARK    1  A    between atoms: C_1  and  C_2
REMARK    2  A    between atoms: C_2  and  C_3
REMARK    3  A    between atoms: C_3  and  C_4
REMARK    4  A    between atoms: C_4  and  O_5
REMARK    5  A    between atoms: O_5  and  C_6
REMARK    6  A    between atoms: C_8  and  C_9
REMARK    7  A    between atoms: C_9  and  N_10
REMARK    8  A    between atoms: C_15  and  C_16
REMARK    9  A    between atoms: C_23  and  C_24
REMARK                            x       y       z     vdW  Elec       q    Type
REMARK                         _______ _______ _______ _____ _____    ______ ____
ROOT
ATOM      1  C   UNL     1      47.620   6.368  14.114  0.00  0.00    +0.000 A 
ATOM      2  C   UNL     1      46.522   6.281  13.247  0.00  0.00    +0.000 A 
ATOM      3  C   UNL     1      45.960   7.405  12.653  0.00  0.00    +0.000 A 
ATOM      4  C   UNL     1      46.536   8.652  12.922  0.00  0.00    +0.000 A 
ATOM      5  C   UNL     1      47.649   8.739  13.755  0.00  0.00    +0.000 A 
ATOM      6  F   UNL     1      48.151   9.972  13.955  0.00  0.00    +0.000 F 
ATOM      7  C   UNL     1      48.228   7.622  14.376  0.00  0.00    +0.000 A 
ENDROOT
BRANCH   7   8
ATOM      8  C   UNL     1      49.384   7.782  15.283  0.00  0.00    +0.000 A 
ATOM      9  C   UNL     1      49.199   8.109  16.641  0.00  0.00    +0.000 A 
ATOM     10  C   UNL     1      50.281   8.280  17.501  0.00  0.00    +0.000 A 
ATOM     11  C   UNL     1      51.572   8.103  17.025  0.00  0.00    +0.000 A 
ATOM     12  C   UNL     1      51.780   7.775  15.687  0.00  0.00    +0.000 A 
ATOM     13 CL   UNL     1      53.383   7.562  15.095  0.00  0.00    +0.000 Cl
ATOM     14  C   UNL     1      50.705   7.631  14.824  0.00  0.00    +0.000 A 
ENDBRANCH   7   8
BRANCH   1  15
ATOM     15  O   UNL     1      48.111   5.267  14.769  0.00  0.00    +0.000 OA
BRANCH  15  16
ATOM     16  C   UNL     1      47.155   4.339  15.271  0.00  0.00    +0.000 C 
BRANCH  16  17
ATOM     17  C   UNL     1      47.752   3.622  16.472  0.00  0.00    +0.000 C 
BRANCH  17  19
ATOM     18  C   UNL     1      49.770   4.506  17.693  0.00  0.00    +0.000 C 
ATOM     19  C   UNL     1      48.265   4.612  17.509  0.00  0.00    +0.000 C 
ENDBRANCH  17  19
ENDBRANCH  16  17
ENDBRANCH  15  16
ENDBRANCH   1  15
BRANCH   3  20
ATOM     20  C   UNL     1      44.748   7.261  11.758  0.00  0.00    +0.000 C 
BRANCH  20  21
ATOM     21  N   UNL     1      43.881   6.158  12.220  0.00  0.00    +0.000 N 
ATOM     22  C   UNL     1      43.995   4.993  11.433  0.00  0.00    +0.000 A 
ATOM     23  C   UNL     1      43.237   3.840  11.732  0.00  0.00    +0.000 A 
ATOM     24  N   UNL     1      43.281   2.722  10.976  0.00  0.00    +0.000 NA
ATOM     25  C   UNL     1      44.124   2.762   9.909  0.00  0.00    +0.000 A 
ATOM     26  C   UNL     1      44.886   3.899   9.605  0.00  0.00    +0.000 A 
ATOM     27  N   UNL     1      44.827   5.009  10.368  0.00  0.00    +0.000 NA
ATOM     28  H   UNL     1      42.908   6.424  12.185  0.00  0.00    +0.000 HD
BRANCH  26  29
ATOM     29  C   UNL     1      45.797   3.932   8.425  0.00  0.00    +0.000 C 
ATOM     30  N   UNL     1      46.091   2.748   7.785  0.00  0.00    +0.000 N 
ATOM     31  O   UNL     1      46.282   4.976   8.013  0.00  0.00    +0.000 OA
ATOM     32  H   UNL     1      45.711   1.843   8.048  0.00  0.00    +0.000 HD
ATOM     33  H   UNL     1      46.704   2.806   6.990  0.00  0.00    +0.000 HD
ENDBRANCH  26  29
ENDBRANCH  20  21
ENDBRANCH   3  20
TORSDOF 8
ENDMDL
MODEL 3
REMARK VINA RESULT:    -6.189      2.966      4.728
REMARK INTER + INTRA:         -11.056
REMARK INTER:                  -8.981
REMARK INTRA:                  -2.075
REMARK UNBOUND:                -1.973
REMARK  Name = 
REMARK  9 active torsions:
REMARK  status: ('A' for Active; 'I' for Inactive)
REMARK    1  A    between atoms: C_1  and  C_2
REMARK    2  A    between atoms: C_2  and  C_3
REMARK    3  A    between atoms: C_3  and  C_4
REMARK    4  A    between atoms: C_4  and  O_5
REMARK    5  A    between atoms: O_5  and  C_6
REMARK    6  A    between atoms: C_8  and  C_9
REMARK    7  A    between atoms: C_9  and  N_10
REMARK    8  A    between atoms: C_15  and  C_16
REMARK    9  A    between atoms: C_23  and  C_24
REMARK                            x       y       z     vdW  Elec       q    Type
REMARK                         _______ _______ _______ _____ _____    ______ ____
ROOT
ATOM      1  C   UNL     1      48.886   5.889  17.467  0.00  0.00    +0.000 A 
ATOM      2  C   UNL     1      48.228   5.724  16.241  0.00  0.00    +0.000 A 
ATOM      3  C   UNL     1      47.597   4.535  15.896  0.00  0.00    +0.000 A 
ATOM      4  C   UNL     1      47.608   3.487  16.824  0.00  0.00    +0.000 A 
ATOM      5  C   UNL     1      48.231   3.658  18.057  0.00  0.00    +0.000 A 
ATOM      6  F   UNL     1      48.189   2.608  18.899  0.00  0.00    +0.000 F 
ATOM      7  C   UNL     1      48.885   4.843  18.426  0.00  0.00    +0.000 A 
ENDROOT
BRANCH   7   8
ATOM      8  C   UNL     1      49.565   4.951  19.734  0.00  0.00    +0.000 A 
ATOM      9  C   UNL     1      48.850   5.302  20.896  0.00  0.00    +0.000 A 
ATOM     10  C   UNL     1      49.482   5.424  22.130  0.00  0.00    +0.000 A 
ATOM     11  C   UNL     1      50.844   5.172  22.232  0.00  0.00    +0.000 A 
ATOM     12  C   UNL     1      51.572   4.818  21.099  0.00  0.00    +0.000 A 
ATOM     13 CL   UNL     1      53.262   4.512  21.225  0.00  0.00    +0.000 Cl
ATOM     14  C   UNL     1      50.947   4.723  19.865  0.00  0.00    +0.000 A 
ENDBRANCH   7   8
BRANCH   1  15
ATOM     15  O   UNL     1      49.587   7.031  17.763  0.00  0.00    +0.000 OA
BRANCH  15  16
ATOM     16  C   UNL     1      48.823   8.184  18.099  0.00  0.00    +0.000 C 
BRANCH  16  17
ATOM     17  C   UNL     1      49.509   8.908  19.246  0.00  0.00    +0.000 C 
BRANCH  17  19
ATOM     18  C   UNL     1      51.393   8.519  20.873  0.00  0.00    +0.000 C 
ATOM     19  C   UNL     1      50.945   8.431  19.424  0.00  0.00    +0.000 C 
ENDBRANCH  17  19
ENDBRANCH  16  17
ENDBRANCH  15  16
ENDBRANCH   1  15
BRANCH   3  20
ATOM     20  C   UNL     1      46.937   4.395  14.540  0.00  0.00    +0.000 C 
BRANCH  20  21
ATOM     21  N   UNL     1      46.428   5.698  14.065  0.00  0.00    +0.000 N 
ATOM     22  C   UNL     1      45.462   5.581  13.045  0.00  0.00    +0.000 A 
ATOM     23  C   UNL     1      44.868   6.728  12.474  0.00  0.00    +0.000 A 
ATOM     24  N   UNL     1      43.976   6.661  11.463  0.00  0.00    +0.000 NA
ATOM     25  C   UNL     1      43.660   5.408  11.034  0.00  0.00    +0.000 A 
ATOM     26  C   UNL     1      44.238   4.261  11.598  0.00  0.00    +0.000 A 
ATOM     27  N   UNL     1      45.131   4.346  12.605  0.00  0.00    +0.000 NA
ATOM     28  H   UNL     1      47.173   6.259  13.681  0.00  0.00    +0.000 HD
BRANCH  26  29
ATOM     29  C   UNL     1      43.891   2.896  11.110  0.00  0.00    +0.000 C 
ATOM     30  N   UNL     1      44.680   2.322  10.137  0.00  0.00    +0.000 N 
ATOM     31  O   UNL     1      42.934   2.277  11.552  0.00  0.00    +0.000 OA
ATOM     32  H   UNL     1      45.506   2.757   9.737  0.00  0.00    +0.000 HD
ATOM     33  H   UNL     1      44.422   1.398   9.835  0.00  0.00    +0.000 HD
ENDBRANCH  26  29
ENDBRANCH  20  21
ENDBRANCH   3  20
TORSDOF 8
ENDMDL
MODEL 4
REMARK VINA RESULT:    -6.026      2.107      2.990
REMARK INTER + INTRA:         -10.817
REMARK INTER:                  -8.985
REMARK INTRA:                  -1.833
REMARK UNBOUND:                -1.973
REMARK  Name = 
REMARK  9 active torsions:
REMARK  status: ('A' for Active; 'I' for Inactive)
REMARK    1  A    between atoms: C_1  and  C_2
REMARK    2  A    between atoms: C_2  and  C_3
REMARK    3  A    between atoms: C_3  and  C_4
REMARK    4  A    between atoms: C_4  and  O_5
REMARK    5  A    between atoms: O_5  and  C_6
REMARK    6  A    between atoms: C_8  and  C_9
REMARK    7  A    between atoms: C_9  and  N_10
REMARK    8  A    between atoms: C_15  and  C_16
REMARK    9  A    between atoms: C_23  and  C_24
REMARK                            x       y       z     vdW  Elec       q    Type
REMARK                         _______ _______ _______ _____ _____    ______ ____
ROOT
ATOM      1  C   UNL     1      48.303   5.378  15.980  0.00  0.00    +0.000 A 
ATOM      2  C   UNL     1      47.348   5.377  14.954  0.00  0.00    +0.000 A 
ATOM      3  C   UNL     1      47.337   6.342  13.955  0.00  0.00    +0.000 A 
ATOM      4  C   UNL     1      48.333   7.327  13.976  0.00  0.00    +0.000 A 
ATOM      5  C   UNL     1      49.304   7.311  14.974  0.00  0.00    +0.000 A 
ATOM      6  F   UNL     1      50.233   8.285  14.919  0.00  0.00    +0.000 F 
ATOM      7  C   UNL     1      49.331   6.355  16.000  0.00  0.00    +0.000 A 
ENDROOT
BRANCH   7   8
ATOM      8  C   UNL     1      50.363   6.416  17.056  0.00  0.00    +0.000 A 
ATOM      9  C   UNL     1      50.128   7.107  18.261  0.00  0.00    +0.000 A 
ATOM     10  C   UNL     1      51.100   7.186  19.255  0.00  0.00    +0.000 A 
ATOM     11  C   UNL     1      52.321   6.552  19.074  0.00  0.00    +0.000 A 
ATOM     12  C   UNL     1      52.575   5.857  17.894  0.00  0.00    +0.000 A 
ATOM     13 CL   UNL     1      54.093   5.075  17.668  0.00  0.00    +0.000 Cl
ATOM     14  C   UNL     1      51.618   5.801  16.893  0.00  0.00    +0.000 A 
ENDBRANCH   7   8
BRANCH   1  15
ATOM     15  O   UNL     1      48.252   4.478  17.015  0.00  0.00    +0.000 OA
BRANCH  15  16
ATOM     16  C   UNL     1      47.807   3.163  16.701  0.00  0.00    +0.000 C 
BRANCH  16  17
ATOM     17  C   UNL     1      49.010   2.234  16.671  0.00  0.00    +0.000 C 
BRANCH  17  19
ATOM     18  C   UNL     1      51.425   2.105  17.376  0.00  0.00    +0.000 C 
ATOM     19  C   UNL     1      50.040   2.626  17.722  0.00  0.00    +0.000 C 
ENDBRANCH  17  19
ENDBRANCH  16  17
ENDBRANCH  15  16
ENDBRANCH   1  15
BRANCH   3  20
ATOM     20  C   UNL     1      46.258   6.320  12.893  0.00  0.00    +0.000 C 
BRANCH  20  21
ATOM     21  N   UNL     1      45.183   5.375  13.256  0.00  0.00    +0.000 N 
ATOM     22  C   UNL     1      44.756   4.575  12.175  0.00  0.00    +0.000 A 
ATOM     23  C   UNL     1      43.734   3.615  12.344  0.00  0.00    +0.000 A 
ATOM     24  N   UNL     1      43.264   2.864  11.326  0.00  0.00    +0.000 NA
ATOM     25  C   UNL     1      43.853   3.070  10.116  0.00  0.00    +0.000 A 
ATOM     26  C   UNL     1      44.873   4.017   9.938  0.00  0.00    +0.000 A 
ATOM     27  N   UNL     1      45.328   4.762  10.965  0.00  0.00    +0.000 NA
ATOM     28  H   UNL     1      44.363   5.866  13.579  0.00  0.00    +0.000 HD
BRANCH  26  29
ATOM     29  C   UNL     1      45.502   4.240   8.604  0.00  0.00    +0.000 C 
ATOM     30  N   UNL     1      45.233   3.347   7.590  0.00  0.00    +0.000 N 
ATOM     31  O   UNL     1      46.239   5.191   8.390  0.00  0.00    +0.000 OA
ATOM     32  H   UNL     1      44.612   2.548   7.678  0.00  0.00    +0.000 HD
ATOM     33  H   UNL     1      45.668   3.531   6.702  0.00  0.00    +0.000 HD
ENDBRANCH  26  29
ENDBRANCH  20  21
ENDBRANCH   3  20
TORSDOF 8
ENDMDL
MODEL 5
REMARK VINA RESULT:    -5.959      3.120      4.913
REMARK INTER + INTRA:         -10.718
REMARK INTER:                  -8.887
REMARK INTRA:                  -1.831
REMARK UNBOUND:                -1.973
REMARK  Name = 
REMARK  9 active torsions:
REMARK  status: ('A' for Active; 'I' for Inactive)
REMARK    1  A    between atoms: C_1  and  C_2
REMARK    2  A    between atoms: C_2  and  C_3
REMARK    3  A    between atoms: C_3  and  C_4
REMARK    4  A    between atoms: C_4  and  O_5
REMARK    5  A    between atoms: O_5  and  C_6
REMARK    6  A    between atoms: C_8  and  C_9
REMARK    7  A    between atoms: C_9  and  N_10
REMARK    8  A    between atoms: C_15  and  C_16
REMARK    9  A    between atoms: C_23  and  C_24
REMARK                            x       y       z     vdW  Elec       q    Type
REMARK                         _______ _______ _______ _____ _____    ______ ____
ROOT
ATOM      1  C   UNL     1      48.462   6.190  16.988  0.00  0.00    +0.000 A 
ATOM      2  C   UNL     1      48.177   6.019  15.627  0.00  0.00    +0.000 A 
ATOM      3  C   UNL     1      47.592   4.858  15.135  0.00  0.00    +0.000 A 
ATOM      4  C   UNL     1      47.263   3.847  16.046  0.00  0.00    +0.000 A 
ATOM      5  C   UNL     1      47.513   4.027  17.404  0.00  0.00    +0.000 A 
ATOM      6  F   UNL     1      47.159   3.013  18.217  0.00  0.00    +0.000 F 
ATOM      7  C   UNL     1      48.113   5.183  17.925  0.00  0.00    +0.000 A 
ENDROOT
BRANCH   7   8
ATOM      8  C   UNL     1      48.391   5.299  19.372  0.00  0.00    +0.000 A 
ATOM      9  C   UNL     1      47.406   5.764  20.265  0.00  0.00    +0.000 A 
ATOM     10  C   UNL     1      47.663   5.895  21.627  0.00  0.00    +0.000 A 
ATOM     11  C   UNL     1      48.907   5.537  22.129  0.00  0.00    +0.000 A 
ATOM     12  C   UNL     1      49.896   5.069  21.267  0.00  0.00    +0.000 A 
ATOM     13 CL   UNL     1      51.440   4.631  21.889  0.00  0.00    +0.000 Cl
ATOM     14  C   UNL     1      49.649   4.965  19.907  0.00  0.00    +0.000 A 
ENDBRANCH   7   8
BRANCH   1  15
ATOM     15  O   UNL     1      49.124   7.298  17.454  0.00  0.00    +0.000 OA
BRANCH  15  16
ATOM     16  C   UNL     1      48.458   8.549  17.316  0.00  0.00    +0.000 C 
BRANCH  16  17
ATOM     17  C   UNL     1      48.479   9.265  18.656  0.00  0.00    +0.000 C 
BRANCH  17  19
ATOM     18  C   UNL     1      47.157   9.429  20.795  0.00  0.00    +0.000 C 
ATOM     19  C   UNL     1      47.091   9.313  19.281  0.00  0.00    +0.000 C 
ENDBRANCH  17  19
ENDBRANCH  16  17
ENDBRANCH  15  16
ENDBRANCH   1  15
BRANCH   3  20
ATOM     20  C   UNL     1      47.343   4.707  13.649  0.00  0.00    +0.000 C 
BRANCH  20  21
ATOM     21  N   UNL     1      46.262   3.735  13.393  0.00  0.00    +0.000 N 
ATOM     22  C   UNL     1      45.171   4.287  12.691  0.00  0.00    +0.000 A 
ATOM     23  C   UNL     1      44.047   3.498  12.361  0.00  0.00    +0.000 A 
ATOM     24  N   UNL     1      42.962   3.999  11.733  0.00  0.00    +0.000 NA
ATOM     25  C   UNL     1      43.022   5.321  11.413  0.00  0.00    +0.000 A 
ATOM     26  C   UNL     1      44.135   6.114  11.730  0.00  0.00    +0.000 A 
ATOM     27  N   UNL     1      45.209   5.597  12.362  0.00  0.00    +0.000 NA
ATOM     28  H   UNL     1      45.885   3.377  14.258  0.00  0.00    +0.000 HD
BRANCH  26  29
ATOM     29  C   UNL     1      44.181   7.563  11.383  0.00  0.00    +0.000 C 
ATOM     30  N   UNL     1      43.028   8.172  10.936  0.00  0.00    +0.000 N 
ATOM     31  O   UNL     1      45.207   8.219  11.488  0.00  0.00    +0.000 OA
ATOM     32  H   UNL     1      42.131   7.705  10.845  0.00  0.00    +0.000 HD
ATOM     33  H   UNL     1      43.093   9.151  10.717  0.00  0.00    +0.000 HD
ENDBRANCH  26  29
ENDBRANCH  20  21
ENDBRANCH   3  20
TORSDOF 8
ENDMDL
MODEL 6
REMARK VINA RESULT:    -5.926      4.187      7.435
REMARK INTER + INTRA:         -10.670
REMARK INTER:                  -9.123
REMARK INTRA:                  -1.546
REMARK UNBOUND:                -1.973
REMARK  Name = 
REMARK  9 active torsions:
REMARK  status: ('A' for Active; 'I' for Inactive)
REMARK    1  A    between atoms: C_1  and  C_2
REMARK    2  A    between atoms: C_2  and  C_3
REMARK    3  A    between atoms: C_3  and  C_4
REMARK    4  A    between atoms: C_4  and  O_5
REMARK    5  A    between atoms: O_5  and  C_6
REMARK    6  A    between atoms: C_8  and  C_9
REMARK    7  A    between atoms: C_9  and  N_10
REMARK    8  A    between atoms: C_15  and  C_16
REMARK    9  A    between atoms: C_23  and  C_24
REMARK                            x       y       z     vdW  Elec       q    Type
REMARK                         _______ _______ _______ _____ _____    ______ ____
ROOT
ATOM      1  C   UNL     1      44.992   7.866  11.735  0.00  0.00    +0.000 A 
ATOM      2  C   UNL     1      46.128   7.234  12.260  0.00  0.00    +0.000 A 
ATOM      3  C   UNL     1      47.302   7.928  12.524  0.00  0.00    +0.000 A 
ATOM      4  C   UNL     1      47.328   9.304  12.274  0.00  0.00    +0.000 A 
ATOM      5  C   UNL     1      46.191   9.943  11.784  0.00  0.00    +0.000 A 
ATOM      6  F   UNL     1      46.292  11.270  11.579  0.00  0.00    +0.000 F 
ATOM      7  C   UNL     1      44.996   9.265  11.498  0.00  0.00    +0.000 A 
ENDROOT
BRANCH   7   8
ATOM      8  C   UNL     1      43.836   9.990  10.941  0.00  0.00    +0.000 A 
ATOM      9  C   UNL     1      43.754  10.278   9.564  0.00  0.00    +0.000 A 
ATOM     10  C   UNL     1      42.674  10.977   9.030  0.00  0.00    +0.000 A 
ATOM     11  C   UNL     1      41.639  11.381   9.862  0.00  0.00    +0.000 A 
ATOM     12  C   UNL     1      41.694  11.103  11.225  0.00  0.00    +0.000 A 
ATOM     13 CL   UNL     1      40.412  11.610  12.257  0.00  0.00    +0.000 Cl
ATOM     14  C   UNL     1      42.782  10.431  11.762  0.00  0.00    +0.000 A 
ENDBRANCH   7   8
BRANCH   1  15
ATOM     15  O   UNL     1      43.868   7.160  11.389  0.00  0.00    +0.000 OA
BRANCH  15  16
ATOM     16  C   UNL     1      44.015   5.752  11.236  0.00  0.00    +0.000 C 
BRANCH  16  17
ATOM     17  C   UNL     1      43.024   5.054  12.154  0.00  0.00    +0.000 C 
BRANCH  17  19
ATOM     18  C   UNL     1      45.073   3.606  12.380  0.00  0.00    +0.000 C 
ATOM     19  C   UNL     1      43.593   3.750  12.696  0.00  0.00    +0.000 C 
ENDBRANCH  17  19
ENDBRANCH  16  17
ENDBRANCH  15  16
ENDBRANCH   1  15
BRANCH   3  20
ATOM     20  C   UNL     1      48.514   7.189  13.052  0.00  0.00    +0.000 C 
BRANCH  20  21
ATOM     21  N   UNL     1      49.023   7.824  14.284  0.00  0.00    +0.000 N 
ATOM     22  C   UNL     1      48.894   7.007  15.426  0.00  0.00    +0.000 A 
ATOM     23  C   UNL     1      49.330   7.458  16.692  0.00  0.00    +0.000 A 
ATOM     24  N   UNL     1      49.181   6.726  17.817  0.00  0.00    +0.000 NA
ATOM     25  C   UNL     1      48.600   5.506  17.658  0.00  0.00    +0.000 A 
ATOM     26  C   UNL     1      48.168   5.046  16.405  0.00  0.00    +0.000 A 
ATOM     27  N   UNL     1      48.321   5.791  15.291  0.00  0.00    +0.000 NA
ATOM     28  H   UNL     1      48.516   8.672  14.489  0.00  0.00    +0.000 HD
BRANCH  26  29
ATOM     29  C   UNL     1      47.523   3.711  16.247  0.00  0.00    +0.000 C 
ATOM     30  N   UNL     1      46.954   3.119  17.354  0.00  0.00    +0.000 N 
ATOM     31  O   UNL     1      47.483   3.137  15.169  0.00  0.00    +0.000 OA
ATOM     32  H   UNL     1      46.922   3.539  18.278  0.00  0.00    +0.000 HD
ATOM     33  H   UNL     1      46.521   2.221  17.212  0.00  0.00    +0.000 HD
ENDBRANCH  26  29
ENDBRANCH  20  21
ENDBRANCH   3  20
TORSDOF 8
ENDMDL
MODEL 7
REMARK VINA RESULT:    -5.833      2.425      3.592
REMARK INTER + INTRA:         -10.533
REMARK INTER:                  -8.673
REMARK INTRA:                  -1.860
REMARK UNBOUND:                -1.973
REMARK  Name = 
REMARK  9 active torsions:
REMARK  status: ('A' for Active; 'I' for Inactive)
REMARK    1  A    between atoms: C_1  and  C_2
REMARK    2  A    between atoms: C_2  and  C_3
REMARK    3  A    between atoms: C_3  and  C_4
REMARK    4  A    between atoms: C_4  and  O_5
REMARK    5  A    between atoms: O_5  and  C_6
REMARK    6  A    between atoms: C_8  and  C_9
REMARK    7  A    between atoms: C_9  and  N_10
REMARK    8  A    between atoms: C_15  and  C_16
REMARK    9  A    between atoms: C_23  and  C_24
REMARK                            x       y       z     vdW  Elec       q    Type
REMARK                         _______ _______ _______ _____ _____    ______ ____
ROOT
ATOM      1  C   UNL     1      47.964   5.165  16.741  0.00  0.00    +0.000 A 
ATOM      2  C   UNL     1      47.983   5.350  15.352  0.00  0.00    +0.000 A 
ATOM      3  C   UNL     1      48.457   6.519  14.769  0.00  0.00    +0.000 A 
ATOM      4  C   UNL     1      48.950   7.524  15.610  0.00  0.00    +0.000 A 
ATOM      5  C   UNL     1      48.965   7.330  16.989  0.00  0.00    +0.000 A 
ATOM      6  F   UNL     1      49.464   8.339  17.729  0.00  0.00    +0.000 F 
ATOM      7  C   UNL     1      48.482   6.165  17.604  0.00  0.00    +0.000 A 
ENDROOT
BRANCH   7   8
ATOM      8  C   UNL     1      48.486   6.035  19.076  0.00  0.00    +0.000 A 
ATOM      9  C   UNL     1      47.352   6.379  19.837  0.00  0.00    +0.000 A 
ATOM     10  C   UNL     1      47.350   6.278  21.226  0.00  0.00    +0.000 A 
ATOM     11  C   UNL     1      48.478   5.805  21.881  0.00  0.00    +0.000 A 
ATOM     12  C   UNL     1      49.610   5.452  21.150  0.00  0.00    +0.000 A 
ATOM     13 CL   UNL     1      51.012   4.871  21.964  0.00  0.00    +0.000 Cl
ATOM     14  C   UNL     1      49.622   5.579  19.769  0.00  0.00    +0.000 A 
ENDBRANCH   7   8
BRANCH   1  15
ATOM     15  O   UNL     1      47.409   4.048  17.313  0.00  0.00    +0.000 OA
BRANCH  15  16
ATOM     16  C   UNL     1      47.992   2.795  16.973  0.00  0.00    +0.000 C 
BRANCH  16  17
ATOM     17  C   UNL     1      49.158   2.528  17.911  0.00  0.00    +0.000 C 
BRANCH  17  19
ATOM     18  C   UNL     1      51.568   3.228  17.692  0.00  0.00    +0.000 C 
ATOM     19  C   UNL     1      50.460   2.347  17.141  0.00  0.00    +0.000 C 
ENDBRANCH  17  19
ENDBRANCH  16  17
ENDBRANCH  15  16
ENDBRANCH   1  15
BRANCH   3  20
ATOM     20  C   UNL     1      48.416   6.685  13.265  0.00  0.00    +0.000 C 
BRANCH  20  21
ATOM     21  N   UNL     1      47.347   7.623  12.868  0.00  0.00    +0.000 N 
ATOM     22  C   UNL     1      46.202   6.979  12.355  0.00  0.00    +0.000 A 
ATOM     23  C   UNL     1      45.082   7.725  11.927  0.00  0.00    +0.000 A 
ATOM     24  N   UNL     1      43.987   7.150  11.386  0.00  0.00    +0.000 NA
ATOM     25  C   UNL     1      44.014   5.792  11.295  0.00  0.00    +0.000 A 
ATOM     26  C   UNL     1      45.118   5.040  11.723  0.00  0.00    +0.000 A 
ATOM     27  N   UNL     1      46.206   5.631  12.257  0.00  0.00    +0.000 NA
ATOM     28  H   UNL     1      47.664   8.247  12.142  0.00  0.00    +0.000 HD
BRANCH  26  29
ATOM     29  C   UNL     1      45.139   3.554  11.607  0.00  0.00    +0.000 C 
ATOM     30  N   UNL     1      45.533   2.812  12.699  0.00  0.00    +0.000 N 
ATOM     31  O   UNL     1      44.813   2.983  10.577  0.00  0.00    +0.000 OA
ATOM     32  H   UNL     1      45.794   3.207  13.598  0.00  0.00    +0.000 HD
ATOM     33  H   UNL     1      45.529   1.812  12.589  0.00  0.00    +0.000 HD
ENDBRANCH  26  29
ENDBRANCH  20  21
ENDBRANCH   3  20
TORSDOF 8
ENDMDL
MODEL 8
REMARK VINA RESULT:    -5.734      2.584      3.592
REMARK INTER + INTRA:         -10.389
REMARK INTER:                  -8.427
REMARK INTRA:                  -1.962
REMARK UNBOUND:                -1.973
REMARK  Name = 
REMARK  9 active torsions:
REMARK  status: ('A' for Active; 'I' for Inactive)
REMARK    1  A    between atoms: C_1  and  C_2
REMARK    2  A    between atoms: C_2  and  C_3
REMARK    3  A    between atoms: C_3  and  C_4
REMARK    4  A    between atoms: C_4  and  O_5
REMARK    5  A    between atoms: O_5  and  C_6
REMARK    6  A    between atoms: C_8  and  C_9
REMARK    7  A    between atoms: C_9  and  N_10
REMARK    8  A    between atoms: C_15  and  C_16
REMARK    9  A    between atoms: C_23  and  C_24
REMARK                            x       y       z     vdW  Elec       q    Type
REMARK                         _______ _______ _______ _____ _____    ______ ____
ROOT
ATOM      1  C   UNL     1      48.795   7.437  13.883  0.00  0.00    +0.000 A 
ATOM      2  C   UNL     1      47.486   7.174  13.459  0.00  0.00    +0.000 A 
ATOM      3  C   UNL     1      46.780   8.057  12.651  0.00  0.00    +0.000 A 
ATOM      4  C   UNL     1      47.421   9.231  12.238  0.00  0.00    +0.000 A 
ATOM      5  C   UNL     1      48.734   9.480  12.627  0.00  0.00    +0.000 A 
ATOM      6  F   UNL     1      49.284  10.625  12.180  0.00  0.00    +0.000 F 
ATOM      7  C   UNL     1      49.465   8.611  13.452  0.00  0.00    +0.000 A 
ENDROOT
BRANCH   7   8
ATOM      8  C   UNL     1      50.843   8.950  13.866  0.00  0.00    +0.000 A 
ATOM      9  C   UNL     1      51.081   9.787  14.974  0.00  0.00    +0.000 A 
ATOM     10  C   UNL     1      52.374  10.128  15.362  0.00  0.00    +0.000 A 
ATOM     11  C   UNL     1      53.459   9.616  14.664  0.00  0.00    +0.000 A 
ATOM     12  C   UNL     1      53.249   8.782  13.569  0.00  0.00    +0.000 A 
ATOM     13 CL   UNL     1      54.595   8.153  12.698  0.00  0.00    +0.000 Cl
ATOM     14  C   UNL     1      51.962   8.464  13.164  0.00  0.00    +0.000 A 
ENDBRANCH   7   8
BRANCH   1  15
ATOM     15  O   UNL     1      49.453   6.607  14.755  0.00  0.00    +0.000 OA
BRANCH  15  16
ATOM     16  C   UNL     1      48.846   6.402  16.027  0.00  0.00    +0.000 C 
BRANCH  16  17
ATOM     17  C   UNL     1      49.618   7.194  17.070  0.00  0.00    +0.000 C 
BRANCH  17  19
ATOM     18  C   UNL     1      48.111   9.211  17.010  0.00  0.00    +0.000 C 
ATOM     19  C   UNL     1      48.694   8.104  17.870  0.00  0.00    +0.000 C 
ENDBRANCH  17  19
ENDBRANCH  16  17
ENDBRANCH  15  16
ENDBRANCH   1  15
BRANCH   3  20
ATOM     20  C   UNL     1      45.352   7.745  12.257  0.00  0.00    +0.000 C 
BRANCH  20  21
ATOM     21  N   UNL     1      44.795   6.670  13.104  0.00  0.00    +0.000 N 
ATOM     22  C   UNL     1      44.598   5.459  12.408  0.00  0.00    +0.000 A 
ATOM     23  C   UNL     1      44.072   4.325  13.064  0.00  0.00    +0.000 A 
ATOM     24  N   UNL     1      43.823   3.162  12.424  0.00  0.00    +0.000 NA
ATOM     25  C   UNL     1      44.132   3.138  11.099  0.00  0.00    +0.000 A 
ATOM     26  C   UNL     1      44.659   4.257  10.437  0.00  0.00    +0.000 A 
ATOM     27  N   UNL     1      44.898   5.412  11.091  0.00  0.00    +0.000 NA
ATOM     28  H   UNL     1      43.893   6.930  13.472  0.00  0.00    +0.000 HD
BRANCH  26  29
ATOM     29  C   UNL     1      44.982   4.220   8.982  0.00  0.00    +0.000 C 
ATOM     30  N   UNL     1      44.303   3.330   8.179  0.00  0.00    +0.000 N 
ATOM     31  O   UNL     1      45.823   4.956   8.489  0.00  0.00    +0.000 OA
ATOM     32  H   UNL     1      43.573   2.703   8.504  0.00  0.00    +0.000 HD
ATOM     33  H   UNL     1      44.540   3.334   7.201  0.00  0.00    +0.000 HD
ENDBRANCH  26  29
ENDBRANCH  20  21
ENDBRANCH   3  20
TORSDOF 8
ENDMDL
MODEL 9
REMARK VINA RESULT:    -5.707      1.684      2.372
REMARK INTER + INTRA:         -10.348
REMARK INTER:                  -8.072
REMARK INTRA:                  -2.276
REMARK UNBOUND:                -1.973
REMARK  Name = 
REMARK  9 active torsions:
REMARK  status: ('A' for Active; 'I' for Inactive)
REMARK    1  A    between atoms: C_1  and  C_2
REMARK    2  A    between atoms: C_2  and  C_3
REMARK    3  A    between atoms: C_3  and  C_4
REMARK    4  A    between atoms: C_4  and  O_5
REMARK    5  A    between atoms: O_5  and  C_6
REMARK    6  A    between atoms: C_8  and  C_9
REMARK    7  A    between atoms: C_9  and  N_10
REMARK    8  A    between atoms: C_15  and  C_16
REMARK    9  A    between atoms: C_23  and  C_24
REMARK                            x       y       z     vdW  Elec       q    Type
REMARK                         _______ _______ _______ _____ _____    ______ ____
ROOT
ATOM      1  C   UNL     1      48.436   6.158  15.335  0.00  0.00    +0.000 A 
ATOM      2  C   UNL     1      48.005   5.988  14.013  0.00  0.00    +0.000 A 
ATOM      3  C   UNL     1      47.686   7.066  13.196  0.00  0.00    +0.000 A 
ATOM      4  C   UNL     1      47.827   8.356  13.720  0.00  0.00    +0.000 A 
ATOM      5  C   UNL     1      48.289   8.531  15.022  0.00  0.00    +0.000 A 
ATOM      6  F   UNL     1      48.408   9.803  15.448  0.00  0.00    +0.000 F 
ATOM      7  C   UNL     1      48.607   7.461  15.871  0.00  0.00    +0.000 A 
ENDROOT
BRANCH   7   8
ATOM      8  C   UNL     1      49.053   7.708  17.258  0.00  0.00    +0.000 A 
ATOM      9  C   UNL     1      48.126   8.021  18.272  0.00  0.00    +0.000 A 
ATOM     10  C   UNL     1      48.536   8.274  19.578  0.00  0.00    +0.000 A 
ATOM     11  C   UNL     1      49.883   8.195  19.903  0.00  0.00    +0.000 A 
ATOM     12  C   UNL     1      50.818   7.882  18.920  0.00  0.00    +0.000 A 
ATOM     13 CL   UNL     1      52.490   7.790  19.322  0.00  0.00    +0.000 Cl
ATOM     14  C   UNL     1      50.413   7.656  17.613  0.00  0.00    +0.000 A 
ENDBRANCH   7   8
BRANCH   1  15
ATOM     15  O   UNL     1      48.660   5.088  16.165  0.00  0.00    +0.000 OA
BRANCH  15  16
ATOM     16  C   UNL     1      47.526   4.307  16.525  0.00  0.00    +0.000 C 
BRANCH  16  17
ATOM     17  C   UNL     1      47.516   4.125  18.035  0.00  0.00    +0.000 C 
BRANCH  17  19
ATOM     18  C   UNL     1      48.865   4.596  20.109  0.00  0.00    +0.000 C 
ATOM     19  C   UNL     1      48.912   4.290  18.622  0.00  0.00    +0.000 C 
ENDBRANCH  17  19
ENDBRANCH  16  17
ENDBRANCH  15  16
ENDBRANCH   1  15
BRANCH   3  20
ATOM     20  C   UNL     1      47.183   6.826  11.788  0.00  0.00    +0.000 C 
BRANCH  20  21
ATOM     21  N   UNL     1      45.906   7.530  11.557  0.00  0.00    +0.000 N 
ATOM     22  C   UNL     1      44.781   6.684  11.633  0.00  0.00    +0.000 A 
ATOM     23  C   UNL     1      43.478   7.192  11.438  0.00  0.00    +0.000 A 
ATOM     24  N   UNL     1      42.379   6.407  11.455  0.00  0.00    +0.000 NA
ATOM     25  C   UNL     1      42.599   5.086  11.696  0.00  0.00    +0.000 A 
ATOM     26  C   UNL     1      43.888   4.571  11.896  0.00  0.00    +0.000 A 
ATOM     27  N   UNL     1      44.975   5.368  11.873  0.00  0.00    +0.000 NA
ATOM     28  H   UNL     1      45.882   7.944  10.637  0.00  0.00    +0.000 HD
BRANCH  26  29
ATOM     29  C   UNL     1      44.114   3.118  12.148  0.00  0.00    +0.000 C 
ATOM     30  N   UNL     1      45.361   2.708  12.567  0.00  0.00    +0.000 N 
ATOM     31  O   UNL     1      43.228   2.292  11.996  0.00  0.00    +0.000 OA
ATOM     32  H   UNL     1      46.143   3.332  12.741  0.00  0.00    +0.000 HD
ATOM     33  H   UNL     1      45.478   1.723  12.733  0.00  0.00    +0.000 HD
ENDBRANCH  26  29
ENDBRANCH  20  21
ENDBRANCH   3  20
TORSDOF 8
ENDMDL
