MODEL 1
REMARK VINA RESULT:    -7.703      0.000      0.000
REMARK INTER + INTRA:         -11.487
REMARK INTER:                 -10.406
REMARK INTRA:                  -1.082
REMARK UNBOUND:                -1.082
REMARK  Name = 
REMARK  7 active torsions:
REMARK  status: ('A' for Active; 'I' for Inactive)
REMARK    1  A    between atoms: C_1  and  N_2
REMARK    2  A    between atoms: N_2  and  C_3
REMARK    3  A    between atoms: C_3  and  C_4
REMARK    4  A    between atoms: C_7  and  C_8
REMARK    5  A    between atoms: C_8  and  N_9
REMARK    6  A    between atoms: N_9  and  C_10
REMARK    7  A    between atoms: C_18  and  C_20
REMARK                            x       y       z     vdW  Elec       q    Type
REMARK                         _______ _______ _______ _____ _____    ______ ____
ROOT
ATOM      1  C   UNL     1      47.235   6.283  12.369  0.00  0.00    +0.000 C 
ENDROOT
BRANCH   1   2
ATOM      2  C   UNL     1      47.499   5.881  13.787  0.00  0.00    +0.000 A 
ATOM      3  C   UNL     1      46.947   4.700  14.302  0.00  0.00    +0.000 A 
ATOM      4  C   UNL     1      47.251   4.287  15.592  0.00  0.00    +0.000 A 
ATOM      5  C   UNL     1      48.122   5.050  16.388  0.00  0.00    +0.000 A 
ATOM      6  C   UNL     1      48.642   6.251  15.888  0.00  0.00    +0.000 A 
ATOM      7  C   UNL     1      48.327   6.668  14.599  0.00  0.00    +0.000 A 
BRANCH   5   8
ATOM      8  C   UNL     1      48.488   4.574  17.766  0.00  0.00    +0.000 C 
BRANCH   8   9
ATOM      9  N   UNL     1      49.911   4.798  18.020  0.00  0.00    +0.000 NA
ATOM     10  H   UNL     1      50.053   4.840  19.029  0.00  0.00    +0.000 HD
BRANCH   9  11
ATOM     11  C   UNL     1      50.768   3.749  17.448  0.00  0.00    +0.000 C 
ATOM     12  C   UNL     1      52.046   3.555  18.278  0.00  0.00    +0.000 C 
ATOM     13  C   UNL     1      52.837   2.345  17.799  0.00  0.00    +0.000 C 
ATOM     14  C   UNL     1      51.964   1.098  17.752  0.00  0.00    +0.000 C 
ATOM     15  N   UNL     1      50.799   1.301  16.891  0.00  0.00    +0.000 NA
ATOM     16  C   UNL     1      49.979   2.418  17.378  0.00  0.00    +0.000 C 
ATOM     17  H   UNL     1      50.233   0.453  16.891  0.00  0.00    +0.000 HD
ENDBRANCH   9  11
ENDBRANCH   8   9
ENDBRANCH   5   8
ENDBRANCH   1   2
BRANCH   1  19
ATOM     18  C   UNL     1      46.353   8.657  12.186  0.00  0.00    +0.000 C 
ATOM     19  N   UNL     1      46.141   7.216  12.105  0.00  0.00    +0.000 N 
ATOM     20  C   UNL     1      44.882   6.807  11.632  0.00  0.00    +0.000 C 
ATOM     21  O   UNL     1      44.029   7.632  11.312  0.00  0.00    +0.000 OA
BRANCH  20  22
ATOM     22  C   UNL     1      44.567   5.371  11.553  0.00  0.00    +0.000 A 
ATOM     23  C   UNL     1      43.829   4.669  12.493  0.00  0.00    +0.000 A 
ATOM     24  S   UNL     1      43.581   3.029  12.091  0.00  0.00    +0.000 S 
ATOM     25  C   UNL     1      44.312   3.241  10.572  0.00  0.00    +0.000 A 
ATOM     26  N   UNL     1      44.330   2.235   9.657  0.00  0.00    +0.000 NA
ATOM     27  C   UNL     1      44.858   2.559   8.526  0.00  0.00    +0.000 A 
ATOM     28  N   UNL     1      45.406   3.785   8.241  0.00  0.00    +0.000 N 
ATOM     29  C   UNL     1      45.538   4.784   9.179  0.00  0.00    +0.000 A 
ATOM     30  O   UNL     1      46.245   5.761   8.968  0.00  0.00    +0.000 OA
ATOM     31  C   UNL     1      44.838   4.512  10.424  0.00  0.00    +0.000 A 
ATOM     32  H   UNL     1      45.873   3.947   7.361  0.00  0.00    +0.000 HD
ENDBRANCH  20  22
ENDBRANCH   1  19
TORSDOF 6
ENDMDL
MODEL 2
REMARK VINA RESULT:    -7.479      4.949      9.316
REMARK INTER + INTRA:         -11.184
REMARK INTER:                 -10.649
REMARK INTRA:                  -0.535
REMARK UNBOUND:                -1.082
REMARK  Name = 
REMARK  7 active torsions:
REMARK  status: ('A' for Active; 'I' for Inactive)
REMARK    1  A    between atoms: C_1  and  N_2
REMARK    2  A    between atoms: N_2  and  C_3
REMARK    3  A    between atoms: C_3  and  C_4
REMARK    4  A    between atoms: C_7  and  C_8
REMARK    5  A    between atoms: C_8  and  N_9
REMARK    6  A    between atoms: N_9  and  C_10
REMARK    7  A    between atoms: C_18  and  C_20
REMARK                            x       y       z     vdW  Elec       q    Type
REMARK                         _______ _______ _______ _____ _____    ______ ____
ROOT
ATOM      1  C   UNL     1      44.110   4.039   9.856  0.00  0.00    +0.000 C 
ENDROOT
BRANCH   1   2
ATOM      2  C   UNL     1      45.137   3.413   8.965  0.00  0.00    +0.000 A 
ATOM      3  C   UNL     1      45.355   2.029   9.002  0.00  0.00    +0.000 A 
ATOM      4  C   UNL     1      46.253   1.436   8.125  0.00  0.00    +0.000 A 
ATOM      5  C   UNL     1      46.943   2.221   7.186  0.00  0.00    +0.000 A 
ATOM      6  C   UNL     1      46.755   3.610   7.176  0.00  0.00    +0.000 A 
ATOM      7  C   UNL     1      45.863   4.202   8.063  0.00  0.00    +0.000 A 
BRANCH   5   8
ATOM      8  C   UNL     1      47.877   1.569   6.204  0.00  0.00    +0.000 C 
BRANCH   8   9
ATOM      9  N   UNL     1      47.439   1.834   4.835  0.00  0.00    +0.000 NA
ATOM     10  H   UNL     1      48.267   1.906   4.243  0.00  0.00    +0.000 HD
BRANCH   9  11
ATOM     11  C   UNL     1      46.547   0.792   4.305  0.00  0.00    +0.000 C 
ATOM     12  C   UNL     1      46.052   1.141   2.894  0.00  0.00    +0.000 C 
ATOM     13  C   UNL     1      45.288  -0.021   2.273  0.00  0.00    +0.000 C 
ATOM     14  C   UNL     1      46.107  -1.305   2.315  0.00  0.00    +0.000 C 
ATOM     15  N   UNL     1      46.492  -1.641   3.686  0.00  0.00    +0.000 NA
ATOM     16  C   UNL     1      47.295  -0.564   4.281  0.00  0.00    +0.000 C 
ATOM     17  H   UNL     1      47.045  -2.497   3.675  0.00  0.00    +0.000 HD
ENDBRANCH   9  11
ENDBRANCH   8   9
ENDBRANCH   5   8
ENDBRANCH   1   2
BRANCH   1  19
ATOM     18  C   UNL     1      43.394   2.215  11.471  0.00  0.00    +0.000 C 
ATOM     19  N   UNL     1      43.972   3.530  11.220  0.00  0.00    +0.000 N 
ATOM     20  C   UNL     1      44.500   4.194  12.342  0.00  0.00    +0.000 C 
ATOM     21  O   UNL     1      44.465   3.675  13.456  0.00  0.00    +0.000 OA
BRANCH  20  22
ATOM     22  C   UNL     1      45.070   5.542  12.187  0.00  0.00    +0.000 A 
ATOM     23  C   UNL     1      46.420   5.845  12.263  0.00  0.00    +0.000 A 
ATOM     24  S   UNL     1      46.775   7.490  11.979  0.00  0.00    +0.000 S 
ATOM     25  C   UNL     1      45.156   7.821  11.586  0.00  0.00    +0.000 A 
ATOM     26  N   UNL     1      44.782   9.047  11.130  0.00  0.00    +0.000 NA
ATOM     27  C   UNL     1      43.537   9.134  10.808  0.00  0.00    +0.000 A 
ATOM     28  N   UNL     1      42.622   8.120  10.940  0.00  0.00    +0.000 N 
ATOM     29  C   UNL     1      42.922   6.911  11.527  0.00  0.00    +0.000 A 
ATOM     30  O   UNL     1      42.038   6.128  11.853  0.00  0.00    +0.000 OA
ATOM     31  C   UNL     1      44.340   6.721  11.780  0.00  0.00    +0.000 A 
ATOM     32  H   UNL     1      41.645   8.279  10.742  0.00  0.00    +0.000 HD
ENDBRANCH  20  22
ENDBRANCH   1  19
TORSDOF 6
ENDMDL
MODEL 3
REMARK VINA RESULT:    -7.446      2.043      3.370
REMARK INTER + INTRA:         -11.139
REMARK INTER:                  -9.833
REMARK INTRA:                  -1.306
REMARK UNBOUND:                -1.082
REMARK  Name = 
REMARK  7 active torsions:
REMARK  status: ('A' for Active; 'I' for Inactive)
REMARK    1  A    between atoms: C_1  and  N_2
REMARK    2  A    between atoms: N_2  and  C_3
REMARK    3  A    between atoms: C_3  and  C_4
REMARK    4  A    between atoms: C_7  and  C_8
REMARK    5  A    between atoms: C_8  and  N_9
REMARK    6  A    between atoms: N_9  and  C_10
REMARK    7  A    between atoms: C_18  and  C_20
REMARK                            x       y       z     vdW  Elec       q    Type
REMARK                         _______ _______ _______ _____ _____    ______ ____
ROOT
ATOM      1  C   UNL     1      47.316   6.230  12.461  0.00  0.00    +0.000 C 
ENDROOT
BRANCH   1   2
ATOM      2  C   UNL     1      47.541   5.858  13.893  0.00  0.00    +0.000 A 
ATOM      3  C   UNL     1      46.912   4.730  14.438  0.00  0.00    +0.000 A 
ATOM      4  C   UNL     1      47.178   4.339  15.743  0.00  0.00    +0.000 A 
ATOM      5  C   UNL     1      48.088   5.070  16.525  0.00  0.00    +0.000 A 
ATOM      6  C   UNL     1      48.687   6.220  15.994  0.00  0.00    +0.000 A 
ATOM      7  C   UNL     1      48.410   6.615  14.690  0.00  0.00    +0.000 A 
BRANCH   5   8
ATOM      8  C   UNL     1      48.411   4.615  17.921  0.00  0.00    +0.000 C 
BRANCH   8   9
ATOM      9  N   UNL     1      47.392   5.087  18.858  0.00  0.00    +0.000 NA
ATOM     10  H   UNL     1      47.091   4.297  19.428  0.00  0.00    +0.000 HD
BRANCH   9  11
ATOM     11  C   UNL     1      47.873   6.167  19.732  0.00  0.00    +0.000 C 
ATOM     12  C   UNL     1      47.436   7.545  19.212  0.00  0.00    +0.000 C 
ATOM     13  C   UNL     1      47.766   8.644  20.214  0.00  0.00    +0.000 C 
ATOM     14  C   UNL     1      47.201   8.322  21.592  0.00  0.00    +0.000 C 
ATOM     15  N   UNL     1      47.703   7.037  22.081  0.00  0.00    +0.000 NA
ATOM     16  C   UNL     1      47.331   5.949  21.167  0.00  0.00    +0.000 C 
ATOM     17  H   UNL     1      47.298   6.850  22.998  0.00  0.00    +0.000 HD
ENDBRANCH   9  11
ENDBRANCH   8   9
ENDBRANCH   5   8
ENDBRANCH   1   2
BRANCH   1  19
ATOM     18  C   UNL     1      46.560   8.641  12.204  0.00  0.00    +0.000 C 
ATOM     19  N   UNL     1      46.276   7.211  12.155  0.00  0.00    +0.000 N 
ATOM     20  C   UNL     1      45.005   6.854  11.672  0.00  0.00    +0.000 C 
ATOM     21  O   UNL     1      44.200   7.713  11.317  0.00  0.00    +0.000 OA
BRANCH  20  22
ATOM     22  C   UNL     1      44.618   5.435  11.624  0.00  0.00    +0.000 A 
ATOM     23  C   UNL     1      43.886   4.780  12.602  0.00  0.00    +0.000 A 
ATOM     24  S   UNL     1      43.543   3.150  12.231  0.00  0.00    +0.000 S 
ATOM     25  C   UNL     1      44.220   3.309  10.682  0.00  0.00    +0.000 A 
ATOM     26  N   UNL     1      44.152   2.294   9.780  0.00  0.00    +0.000 NA
ATOM     27  C   UNL     1      44.649   2.579   8.624  0.00  0.00    +0.000 A 
ATOM     28  N   UNL     1      45.244   3.773   8.302  0.00  0.00    +0.000 N 
ATOM     29  C   UNL     1      45.462   4.775   9.221  0.00  0.00    +0.000 A 
ATOM     30  O   UNL     1      46.206   5.715   8.969  0.00  0.00    +0.000 OA
ATOM     31  C   UNL     1      44.801   4.551  10.496  0.00  0.00    +0.000 A 
ATOM     32  H   UNL     1      45.681   3.903   7.402  0.00  0.00    +0.000 HD
ENDBRANCH  20  22
ENDBRANCH   1  19
TORSDOF 6
ENDMDL
MODEL 4
REMARK VINA RESULT:    -7.274      3.875      9.390
REMARK INTER + INTRA:         -10.907
REMARK INTER:                 -10.878
REMARK INTRA:                  -0.030
REMARK UNBOUND:                -1.082
REMARK  Name = 
REMARK  7 active torsions:
REMARK  status: ('A' for Active; 'I' for Inactive)
REMARK    1  A    between atoms: C_1  and  N_2
REMARK    2  A    between atoms: N_2  and  C_3
REMARK    3  A    between atoms: C_3  and  C_4
REMARK    4  A    between atoms: C_7  and  C_8
REMARK    5  A    between atoms: C_8  and  N_9
REMARK    6  A    between atoms: N_9  and  C_10
REMARK    7  A    between atoms: C_18  and  C_20
REMARK                            x       y       z     vdW  Elec       q    Type
REMARK                         _______ _______ _______ _____ _____    ______ ____
ROOT
ATOM      1  C   UNL     1      44.128   4.275   9.899  0.00  0.00    +0.000 C 
ENDROOT
BRANCH   1   2
ATOM      2  C   UNL     1      45.028   3.515   8.976  0.00  0.00    +0.000 A 
ATOM      3  C   UNL     1      45.789   4.192   8.014  0.00  0.00    +0.000 A 
ATOM      4  C   UNL     1      46.681   3.498   7.207  0.00  0.00    +0.000 A 
ATOM      5  C   UNL     1      46.830   2.109   7.356  0.00  0.00    +0.000 A 
ATOM      6  C   UNL     1      46.040   1.426   8.290  0.00  0.00    +0.000 A 
ATOM      7  C   UNL     1      45.140   2.122   9.089  0.00  0.00    +0.000 A 
BRANCH   5   8
ATOM      8  C   UNL     1      47.833   1.368   6.515  0.00  0.00    +0.000 C 
BRANCH   8   9
ATOM      9  N   UNL     1      47.639   1.681   5.100  0.00  0.00    +0.000 NA
ATOM     10  H   UNL     1      48.536   1.584   4.625  0.00  0.00    +0.000 HD
BRANCH   9  11
ATOM     11  C   UNL     1      46.644   0.813   4.451  0.00  0.00    +0.000 C 
ATOM     12  C   UNL     1      46.133   1.430   3.141  0.00  0.00    +0.000 C 
ATOM     13  C   UNL     1      45.252   0.450   2.376  0.00  0.00    +0.000 C 
ATOM     14  C   UNL     1      45.961  -0.882   2.169  0.00  0.00    +0.000 C 
ATOM     15  N   UNL     1      46.363  -1.470   3.447  0.00  0.00    +0.000 NA
ATOM     16  C   UNL     1      47.274  -0.573   4.170  0.00  0.00    +0.000 C 
ATOM     17  H   UNL     1      46.841  -2.354   3.271  0.00  0.00    +0.000 HD
ENDBRANCH   9  11
ENDBRANCH   8   9
ENDBRANCH   5   8
ENDBRANCH   1   2
BRANCH   1  19
ATOM     18  C   UNL     1      43.345   2.443  11.473  0.00  0.00    +0.000 C 
ATOM     19  N   UNL     1      43.930   3.761  11.253  0.00  0.00    +0.000 N 
ATOM     20  C   UNL     1      44.404   4.421  12.400  0.00  0.00    +0.000 C 
ATOM     21  O   UNL     1      44.320   3.899  13.510  0.00  0.00    +0.000 OA
BRANCH  20  22
ATOM     22  C   UNL     1      44.976   5.772  12.276  0.00  0.00    +0.000 A 
ATOM     23  C   UNL     1      44.314   6.867  11.743  0.00  0.00    +0.000 A 
ATOM     24  S   UNL     1      45.220   8.312  11.793  0.00  0.00    +0.000 S 
ATOM     25  C   UNL     1      46.463   7.560  12.673  0.00  0.00    +0.000 A 
ATOM     26  N   UNL     1      47.517   8.276  13.149  0.00  0.00    +0.000 NA
ATOM     27  C   UNL     1      48.348   7.588  13.855  0.00  0.00    +0.000 A 
ATOM     28  N   UNL     1      48.243   6.240  14.093  0.00  0.00    +0.000 N 
ATOM     29  C   UNL     1      47.274   5.449  13.516  0.00  0.00    +0.000 A 
ATOM     30  O   UNL     1      47.352   4.227  13.547  0.00  0.00    +0.000 OA
ATOM     31  C   UNL     1      46.241   6.203  12.825  0.00  0.00    +0.000 A 
ATOM     32  H   UNL     1      48.970   5.747  14.590  0.00  0.00    +0.000 HD
ENDBRANCH  20  22
ENDBRANCH   1  19
TORSDOF 6
ENDMDL
MODEL 5
REMARK VINA RESULT:    -7.198      3.817      8.333
REMARK INTER + INTRA:         -10.804
REMARK INTER:                  -9.594
REMARK INTRA:                  -1.210
REMARK UNBOUND:                -1.082
REMARK  Name = 
REMARK  7 active torsions:
REMARK  status: ('A' for Active; 'I' for Inactive)
REMARK    1  A    between atoms: C_1  and  N_2
REMARK    2  A    between atoms: N_2  and  C_3
REMARK    3  A    between atoms: C_3  and  C_4
REMARK    4  A    between atoms: C_7  and  C_8
REMARK    5  A    between atoms: C_8  and  N_9
REMARK    6  A    between atoms: N_9  and  C_10
REMARK    7  A    between atoms: C_18  and  C_20
REMARK                            x       y       z     vdW  Elec       q    Type
REMARK                         _______ _______ _______ _____ _____    ______ ____
ROOT
ATOM      1  C   UNL     1      47.441   7.986  13.538  0.00  0.00    +0.000 C 
ENDROOT
BRANCH   1   2
ATOM      2  C   UNL     1      46.612   6.934  12.870  0.00  0.00    +0.000 A 
ATOM      3  C   UNL     1      45.888   7.237  11.708  0.00  0.00    +0.000 A 
ATOM      4  C   UNL     1      45.179   6.245  11.044  0.00  0.00    +0.000 A 
ATOM      5  C   UNL     1      45.189   4.927  11.531  0.00  0.00    +0.000 A 
ATOM      6  C   UNL     1      45.880   4.632  12.714  0.00  0.00    +0.000 A 
ATOM      7  C   UNL     1      46.580   5.630  13.382  0.00  0.00    +0.000 A 
BRANCH   5   8
ATOM      8  C   UNL     1      44.461   3.845  10.782  0.00  0.00    +0.000 C 
BRANCH   8   9
ATOM      9  N   UNL     1      44.211   4.262   9.403  0.00  0.00    +0.000 NA
ATOM     10  H   UNL     1      44.605   5.194   9.273  0.00  0.00    +0.000 HD
BRANCH   9  11
ATOM     11  C   UNL     1      44.788   3.343   8.411  0.00  0.00    +0.000 C 
ATOM     12  C   UNL     1      45.971   3.986   7.672  0.00  0.00    +0.000 C 
ATOM     13  C   UNL     1      46.687   2.973   6.788  0.00  0.00    +0.000 C 
ATOM     14  C   UNL     1      47.083   1.734   7.579  0.00  0.00    +0.000 C 
ATOM     15  N   UNL     1      45.916   1.110   8.203  0.00  0.00    +0.000 NA
ATOM     16  C   UNL     1      45.252   2.046   9.120  0.00  0.00    +0.000 C 
ATOM     17  H   UNL     1      46.220   0.291   8.730  0.00  0.00    +0.000 HD
ENDBRANCH   9  11
ENDBRANCH   8   9
ENDBRANCH   5   8
ENDBRANCH   1   2
BRANCH   1  19
ATOM     18  C   UNL     1      49.504   7.519  12.134  0.00  0.00    +0.000 C 
ATOM     19  N   UNL     1      48.894   7.916  13.398  0.00  0.00    +0.000 N 
ATOM     20  C   UNL     1      49.782   8.347  14.399  0.00  0.00    +0.000 C 
ATOM     21  O   UNL     1      50.995   8.380  14.196  0.00  0.00    +0.000 OA
BRANCH  20  22
ATOM     22  C   UNL     1      49.257   8.730  15.719  0.00  0.00    +0.000 A 
ATOM     23  C   UNL     1      48.999  10.032  16.122  0.00  0.00    +0.000 A 
ATOM     24  S   UNL     1      48.335  10.149  17.690  0.00  0.00    +0.000 S 
ATOM     25  C   UNL     1      48.221   8.460  17.821  0.00  0.00    +0.000 A 
ATOM     26  N   UNL     1      47.621   7.879  18.895  0.00  0.00    +0.000 NA
ATOM     27  C   UNL     1      47.546   6.594  18.828  0.00  0.00    +0.000 A 
ATOM     28  N   UNL     1      48.055   5.833  17.804  0.00  0.00    +0.000 N 
ATOM     29  C   UNL     1      48.792   6.363  16.770  0.00  0.00    +0.000 A 
ATOM     30  O   UNL     1      49.435   5.643  16.016  0.00  0.00    +0.000 OA
ATOM     31  C   UNL     1      48.786   7.816  16.734  0.00  0.00    +0.000 A 
ATOM     32  H   UNL     1      48.031   4.825  17.852  0.00  0.00    +0.000 HD
ENDBRANCH  20  22
ENDBRANCH   1  19
TORSDOF 6
ENDMDL
MODEL 6
REMARK VINA RESULT:    -7.156      3.075      8.148
REMARK INTER + INTRA:         -10.748
REMARK INTER:                  -9.514
REMARK INTRA:                  -1.234
REMARK UNBOUND:                -1.082
REMARK  Name = 
REMARK  7 active torsions:
REMARK  status: ('A' for Active; 'I' for Inactive)
REMARK    1  A    between atoms: C_1  and  N_2
REMARK    2  A    between atoms: N_2  and  C_3
REMARK    3  A    between atoms: C_3  and  C_4
REMARK    4  A    between atoms: C_7  and  C_8
REMARK    5  A    between atoms: C_8  and  N_9
REMARK    6  A    between atoms: N_9  and  C_10
REMARK    7  A    between atoms: C_18  and  C_20
REMARK                            x       y       z     vdW  Elec       q    Type
REMARK                         _______ _______ _______ _____ _____    ______ ____
ROOT
ATOM      1  C   UNL     1      49.234   6.912  15.245  0.00  0.00    +0.000 C 
ENDROOT
BRANCH   1   2
ATOM      2  C   UNL     1      48.194   6.815  14.172  0.00  0.00    +0.000 A 
ATOM      3  C   UNL     1      47.933   7.912  13.340  0.00  0.00    +0.000 A 
ATOM      4  C   UNL     1      47.024   7.801  12.297  0.00  0.00    +0.000 A 
ATOM      5  C   UNL     1      46.363   6.583  12.066  0.00  0.00    +0.000 A 
ATOM      6  C   UNL     1      46.593   5.499  12.922  0.00  0.00    +0.000 A 
ATOM      7  C   UNL     1      47.497   5.615  13.972  0.00  0.00    +0.000 A 
BRANCH   5   8
ATOM      8  C   UNL     1      45.416   6.453  10.905  0.00  0.00    +0.000 C 
BRANCH   8   9
ATOM      9  N   UNL     1      44.324   5.539  11.240  0.00  0.00    +0.000 NA
ATOM     10  H   UNL     1      43.468   6.085  11.334  0.00  0.00    +0.000 HD
BRANCH   9  11
ATOM     11  C   UNL     1      44.128   4.485  10.233  0.00  0.00    +0.000 C 
ATOM     12  C   UNL     1      45.205   4.546   9.141  0.00  0.00    +0.000 C 
ATOM     13  C   UNL     1      45.116   3.344   8.210  0.00  0.00    +0.000 C 
ATOM     14  C   UNL     1      45.135   2.037   8.992  0.00  0.00    +0.000 C 
ATOM     15  N   UNL     1      44.047   1.990   9.969  0.00  0.00    +0.000 NA
ATOM     16  C   UNL     1      44.156   3.100  10.925  0.00  0.00    +0.000 C 
ATOM     17  H   UNL     1      44.096   1.109  10.479  0.00  0.00    +0.000 HD
ENDBRANCH   9  11
ENDBRANCH   8   9
ENDBRANCH   5   8
ENDBRANCH   1   2
BRANCH   1  19
ATOM     18  C   UNL     1      48.824   8.988  16.647  0.00  0.00    +0.000 C 
ATOM     19  N   UNL     1      48.865   7.536  16.514  0.00  0.00    +0.000 N 
ATOM     20  C   UNL     1      48.403   6.804  17.622  0.00  0.00    +0.000 C 
ATOM     21  O   UNL     1      47.992   7.377  18.630  0.00  0.00    +0.000 OA
BRANCH  20  22
ATOM     22  C   UNL     1      48.444   5.333  17.589  0.00  0.00    +0.000 A 
ATOM     23  C   UNL     1      47.355   4.516  17.325  0.00  0.00    +0.000 A 
ATOM     24  S   UNL     1      47.734   2.852  17.296  0.00  0.00    +0.000 S 
ATOM     25  C   UNL     1      49.391   3.176  17.476  0.00  0.00    +0.000 A 
ATOM     26  N   UNL     1      50.311   2.176  17.415  0.00  0.00    +0.000 NA
ATOM     27  C   UNL     1      51.534   2.577  17.500  0.00  0.00    +0.000 A 
ATOM     28  N   UNL     1      51.919   3.882  17.683  0.00  0.00    +0.000 N 
ATOM     29  C   UNL     1      51.022   4.906  17.891  0.00  0.00    +0.000 A 
ATOM     30  O   UNL     1      51.394   6.002  18.293  0.00  0.00    +0.000 OA
ATOM     31  C   UNL     1      49.637   4.524  17.670  0.00  0.00    +0.000 A 
ATOM     32  H   UNL     1      52.890   4.117  17.819  0.00  0.00    +0.000 HD
ENDBRANCH  20  22
ENDBRANCH   1  19
TORSDOF 6
ENDMDL
MODEL 7
REMARK VINA RESULT:    -6.729      3.307      8.046
REMARK INTER + INTRA:         -10.171
REMARK INTER:                  -8.872
REMARK INTRA:                  -1.299
REMARK UNBOUND:                -1.082
REMARK  Name = 
REMARK  7 active torsions:
REMARK  status: ('A' for Active; 'I' for Inactive)
REMARK    1  A    between atoms: C_1  and  N_2
REMARK    2  A    between atoms: N_2  and  C_3
REMARK    3  A    between atoms: C_3  and  C_4
REMARK    4  A    between atoms: C_7  and  C_8
REMARK    5  A    between atoms: C_8  and  N_9
REMARK    6  A    between atoms: N_9  and  C_10
REMARK    7  A    between atoms: C_18  and  C_20
REMARK                            x       y       z     vdW  Elec       q    Type
REMARK                         _______ _______ _______ _____ _____    ______ ____
ROOT
ATOM      1  C   UNL     1      49.370   8.145  15.876  0.00  0.00    +0.000 C 
ENDROOT
BRANCH   1   2
ATOM      2  C   UNL     1      48.483   7.799  14.721  0.00  0.00    +0.000 A 
ATOM      3  C   UNL     1      48.464   6.494  14.210  0.00  0.00    +0.000 A 
ATOM      4  C   UNL     1      47.588   6.152  13.189  0.00  0.00    +0.000 A 
ATOM      5  C   UNL     1      46.708   7.114  12.666  0.00  0.00    +0.000 A 
ATOM      6  C   UNL     1      46.754   8.428  13.149  0.00  0.00    +0.000 A 
ATOM      7  C   UNL     1      47.640   8.771  14.164  0.00  0.00    +0.000 A 
BRANCH   5   8
ATOM      8  C   UNL     1      45.726   6.728  11.595  0.00  0.00    +0.000 C 
BRANCH   8   9
ATOM      9  N   UNL     1      44.877   5.629  12.055  0.00  0.00    +0.000 NA
ATOM     10  H   UNL     1      44.083   6.027  12.555  0.00  0.00    +0.000 HD
BRANCH   9  11
ATOM     11  C   UNL     1      44.391   4.781  10.957  0.00  0.00    +0.000 C 
ATOM     12  C   UNL     1      45.277   4.915   9.709  0.00  0.00    +0.000 C 
ATOM     13  C   UNL     1      44.889   3.897   8.644  0.00  0.00    +0.000 C 
ATOM     14  C   UNL     1      44.872   2.484   9.212  0.00  0.00    +0.000 C 
ATOM     15  N   UNL     1      43.957   2.383  10.350  0.00  0.00    +0.000 NA
ATOM     16  C   UNL     1      44.357   3.304  11.423  0.00  0.00    +0.000 C 
ATOM     17  H   UNL     1      43.978   1.429  10.709  0.00  0.00    +0.000 HD
ENDBRANCH   9  11
ENDBRANCH   8   9
ENDBRANCH   5   8
ENDBRANCH   1   2
BRANCH   1  19
ATOM     18  C   UNL     1      47.838   9.194  17.607  0.00  0.00    +0.000 C 
ATOM     19  N   UNL     1      48.788   8.159  17.217  0.00  0.00    +0.000 N 
ATOM     20  C   UNL     1      48.990   7.128  18.151  0.00  0.00    +0.000 C 
ATOM     21  O   UNL     1      48.389   7.121  19.224  0.00  0.00    +0.000 OA
BRANCH  20  22
ATOM     22  C   UNL     1      49.960   6.061  17.856  0.00  0.00    +0.000 A 
ATOM     23  C   UNL     1      51.325   6.145  18.087  0.00  0.00    +0.000 A 
ATOM     24  S   UNL     1      52.179   4.719  17.699  0.00  0.00    +0.000 S 
ATOM     25  C   UNL     1      50.736   3.889  17.362  0.00  0.00    +0.000 A 
ATOM     26  N   UNL     1      50.744   2.560  17.073  0.00  0.00    +0.000 NA
ATOM     27  C   UNL     1      49.573   2.048  16.905  0.00  0.00    +0.000 A 
ATOM     28  N   UNL     1      48.396   2.754  16.958  0.00  0.00    +0.000 N 
ATOM     29  C   UNL     1      48.348   4.122  17.107  0.00  0.00    +0.000 A 
ATOM     30  O   UNL     1      47.313   4.745  16.905  0.00  0.00    +0.000 OA
ATOM     31  C   UNL     1      49.632   4.719  17.433  0.00  0.00    +0.000 A 
ATOM     32  H   UNL     1      47.518   2.306  16.741  0.00  0.00    +0.000 HD
ENDBRANCH  20  22
ENDBRANCH   1  19
TORSDOF 6
ENDMDL
MODEL 8
REMARK VINA RESULT:    -6.561      3.762      8.250
REMARK INTER + INTRA:          -9.944
REMARK INTER:                  -8.737
REMARK INTRA:                  -1.208
REMARK UNBOUND:                -1.082
REMARK  Name = 
REMARK  7 active torsions:
REMARK  status: ('A' for Active; 'I' for Inactive)
REMARK    1  A    between atoms: C_1  and  N_2
REMARK    2  A    between atoms: N_2  and  C_3
REMARK    3  A    between atoms: C_3  and  C_4
REMARK    4  A    between atoms: C_7  and  C_8
REMARK    5  A    between atoms: C_8  and  N_9
REMARK    6  A    between atoms: N_9  and  C_10
REMARK    7  A    between atoms: C_18  and  C_20
REMARK                            x       y       z     vdW  Elec       q    Type
REMARK                         _______ _______ _______ _____ _____    ______ ____
ROOT
ATOM      1  C   UNL     1      48.402   8.732  14.515  0.00  0.00    +0.000 C 
ENDROOT
BRANCH   1   2
ATOM      2  C   UNL     1      47.326   8.182  13.632  0.00  0.00    +0.000 A 
ATOM      3  C   UNL     1      47.198   6.798  13.452  0.00  0.00    +0.000 A 
ATOM      4  C   UNL     1      46.156   6.281  12.695  0.00  0.00    +0.000 A 
ATOM      5  C   UNL     1      45.217   7.146  12.108  0.00  0.00    +0.000 A 
ATOM      6  C   UNL     1      45.367   8.531  12.254  0.00  0.00    +0.000 A 
ATOM      7  C   UNL     1      46.418   9.046  13.004  0.00  0.00    +0.000 A 
BRANCH   5   8
ATOM      8  C   UNL     1      44.061   6.581  11.329  0.00  0.00    +0.000 C 
BRANCH   8   9
ATOM      9  N   UNL     1      43.870   5.169  11.656  0.00  0.00    +0.000 NA
ATOM     10  H   UNL     1      42.981   5.071  12.147  0.00  0.00    +0.000 HD
BRANCH   9  11
ATOM     11  C   UNL     1      43.874   4.299  10.470  0.00  0.00    +0.000 C 
ATOM     12  C   UNL     1      45.019   4.662   9.513  0.00  0.00    +0.000 C 
ATOM     13  C   UNL     1      45.141   3.644   8.387  0.00  0.00    +0.000 C 
ATOM     14  C   UNL     1      45.250   2.226   8.934  0.00  0.00    +0.000 C 
ATOM     15  N   UNL     1      44.102   1.896   9.778  0.00  0.00    +0.000 NA
ATOM     16  C   UNL     1      44.008   2.821  10.916  0.00  0.00    +0.000 C 
ATOM     17  H   UNL     1      44.212   0.947  10.134  0.00  0.00    +0.000 HD
ENDBRANCH   9  11
ENDBRANCH   8   9
ENDBRANCH   5   8
ENDBRANCH   1   2
BRANCH   1  19
ATOM     18  C   UNL     1      50.417   8.002  13.154  0.00  0.00    +0.000 C 
ATOM     19  N   UNL     1      49.735   8.138  14.436  0.00  0.00    +0.000 N 
ATOM     20  C   UNL     1      50.490   7.795  15.572  0.00  0.00    +0.000 C 
ATOM     21  O   UNL     1      51.651   7.407  15.465  0.00  0.00    +0.000 OA
BRANCH  20  22
ATOM     22  C   UNL     1      49.869   7.866  16.905  0.00  0.00    +0.000 A 
ATOM     23  C   UNL     1      49.996   8.932  17.782  0.00  0.00    +0.000 A 
ATOM     24  S   UNL     1      49.106   8.746  19.226  0.00  0.00    +0.000 S 
ATOM     25  C   UNL     1      48.395   7.311  18.661  0.00  0.00    +0.000 A 
ATOM     26  N   UNL     1      47.426   6.679  19.377  0.00  0.00    +0.000 NA
ATOM     27  C   UNL     1      46.931   5.641  18.795  0.00  0.00    +0.000 A 
ATOM     28  N   UNL     1      47.346   5.151  17.581  0.00  0.00    +0.000 N 
ATOM     29  C   UNL     1      48.416   5.672  16.889  0.00  0.00    +0.000 A 
ATOM     30  O   UNL     1      48.913   5.071  15.945  0.00  0.00    +0.000 OA
ATOM     31  C   UNL     1      48.915   6.921  17.439  0.00  0.00    +0.000 A 
ATOM     32  H   UNL     1      46.969   4.289  17.218  0.00  0.00    +0.000 HD
ENDBRANCH  20  22
ENDBRANCH   1  19
TORSDOF 6
ENDMDL
MODEL 9
REMARK VINA RESULT:    -6.499      3.477      8.209
REMARK INTER + INTRA:          -9.861
REMARK INTER:                  -8.521
REMARK INTRA:                  -1.340
REMARK UNBOUND:                -1.082
REMARK  Name = 
REMARK  7 active torsions:
REMARK  status: ('A' for Active; 'I' for Inactive)
REMARK    1  A    between atoms: C_1  and  N_2
REMARK    2  A    between atoms: N_2  and  C_3
REMARK    3  A    between atoms: C_3  and  C_4
REMARK    4  A    between atoms: C_7  and  C_8
REMARK    5  A    between atoms: C_8  and  N_9
REMARK    6  A    between atoms: N_9  and  C_10
REMARK    7  A    between atoms: C_18  and  C_20
REMARK                            x       y       z     vdW  Elec       q    Type
REMARK                         _______ _______ _______ _____ _____    ______ ____
ROOT
ATOM      1  C   UNL     1      49.292   8.078  17.435  0.00  0.00    +0.000 C 
ENDROOT
BRANCH   1   2
ATOM      2  C   UNL     1      48.780   8.004  16.031  0.00  0.00    +0.000 A 
ATOM      3  C   UNL     1      48.879   6.810  15.304  0.00  0.00    +0.000 A 
ATOM      4  C   UNL     1      48.337   6.716  14.029  0.00  0.00    +0.000 A 
ATOM      5  C   UNL     1      47.678   7.820  13.462  0.00  0.00    +0.000 A 
ATOM      6  C   UNL     1      47.614   9.026  14.172  0.00  0.00    +0.000 A 
ATOM      7  C   UNL     1      48.166   9.120  15.444  0.00  0.00    +0.000 A 
BRANCH   5   8
ATOM      8  C   UNL     1      47.049   7.700  12.101  0.00  0.00    +0.000 C 
BRANCH   8   9
ATOM      9  N   UNL     1      46.839   6.294  11.761  0.00  0.00    +0.000 NA
ATOM     10  H   UNL     1      46.906   5.744  12.617  0.00  0.00    +0.000 HD
BRANCH   9  11
ATOM     11  C   UNL     1      45.540   6.046  11.119  0.00  0.00    +0.000 C 
ATOM     12  C   UNL     1      45.020   4.634  11.430  0.00  0.00    +0.000 C 
ATOM     13  C   UNL     1      43.595   4.448  10.928  0.00  0.00    +0.000 C 
ATOM     14  C   UNL     1      42.678   5.547  11.449  0.00  0.00    +0.000 C 
ATOM     15  N   UNL     1      43.169   6.870  11.064  0.00  0.00    +0.000 NA
ATOM     16  C   UNL     1      44.516   7.103  11.602  0.00  0.00    +0.000 C 
ATOM     17  H   UNL     1      42.538   7.580  11.437  0.00  0.00    +0.000 HD
ENDBRANCH   9  11
ENDBRANCH   8   9
ENDBRANCH   5   8
ENDBRANCH   1   2
BRANCH   1  19
ATOM     18  C   UNL     1      47.332   8.476  18.999  0.00  0.00    +0.000 C 
ATOM     19  N   UNL     1      48.417   7.629  18.517  0.00  0.00    +0.000 N 
ATOM     20  C   UNL     1      48.470   6.332  19.057  0.00  0.00    +0.000 C 
ATOM     21  O   UNL     1      47.641   5.958  19.884  0.00  0.00    +0.000 OA
BRANCH  20  22
ATOM     22  C   UNL     1      49.556   5.422  18.656  0.00  0.00    +0.000 A 
ATOM     23  C   UNL     1      50.852   5.471  19.146  0.00  0.00    +0.000 A 
ATOM     24  S   UNL     1      51.866   4.242  18.534  0.00  0.00    +0.000 S 
ATOM     25  C   UNL     1      50.568   3.509  17.720  0.00  0.00    +0.000 A 
ATOM     26  N   UNL     1      50.726   2.321  17.075  0.00  0.00    +0.000 NA
ATOM     27  C   UNL     1      49.642   1.851  16.560  0.00  0.00    +0.000 A 
ATOM     28  N   UNL     1      48.422   2.480  16.595  0.00  0.00    +0.000 N 
ATOM     29  C   UNL     1      48.245   3.744  17.111  0.00  0.00    +0.000 A 
ATOM     30  O   UNL     1      47.213   4.372  16.907  0.00  0.00    +0.000 OA
ATOM     31  C   UNL     1      49.407   4.253  17.820  0.00  0.00    +0.000 A 
ATOM     32  H   UNL     1      47.630   2.093  16.104  0.00  0.00    +0.000 HD
ENDBRANCH  20  22
ENDBRANCH   1  19
TORSDOF 6
ENDMDL
