MODEL 1
REMARK VINA RESULT:    -6.902      0.000      0.000
REMARK INTER + INTRA:         -10.527
REMARK INTER:                  -9.726
REMARK INTRA:                  -0.801
REMARK UNBOUND:                -0.801
REMARK  Name = 
REMARK  9 active torsions:
REMARK  status: ('A' for Active; 'I' for Inactive)
REMARK    1  A    between atoms: C_1  and  N_2
REMARK    2  A    between atoms: N_2  and  C_3
REMARK    3  A    between atoms: N_2  and  C_4
REMARK    4  A    between atoms: C_4  and  C_5
REMARK    5  A    between atoms: C_4  and  C_18
REMARK    6  A    between atoms: C_5  and  O_6
REMARK    7  A    between atoms: O_6  and  C_7
REMARK    8  A    between atoms: C_11  and  O_12
REMARK    9  A    between atoms: O_12  and  C_13
REMARK                            x       y       z     vdW  Elec       q    Type
REMARK                         _______ _______ _______ _____ _____    ______ ____
ROOT
ATOM      1  O   UNL     1      44.840   6.128  11.039  0.00  0.00    +0.000 OA
ENDROOT
BRANCH   1   2
ATOM      2  C   UNL     1      44.803   4.916  10.415  0.00  0.00    +0.000 A 
ATOM      3  C   UNL     1      44.179   3.774  10.900  0.00  0.00    +0.000 A 
ATOM      4  C   UNL     1      44.194   2.601  10.139  0.00  0.00    +0.000 A 
ATOM      5  C   UNL     1      44.842   2.574   8.899  0.00  0.00    +0.000 A 
ATOM      6  C   UNL     1      45.492   3.710   8.426  0.00  0.00    +0.000 A 
ATOM      7  C   UNL     1      45.468   4.879   9.186  0.00  0.00    +0.000 A 
BRANCH   6   8
ATOM      8  O   UNL     1      46.144   3.798   7.223  0.00  0.00    +0.000 OA
BRANCH   8   9
ATOM      9  C   UNL     1      46.558   2.577   6.569  0.00  0.00    +0.000 C 
ATOM     10  C   UNL     1      47.954   2.018   6.916  0.00  0.00    +0.000 C 
ATOM     11  N   UNL     1      48.273   1.901   5.483  0.00  0.00    +0.000 NA
ATOM     12  C   UNL     1      47.123   2.757   5.146  0.00  0.00    +0.000 C 
ATOM     13  H   UNL     1      48.204   0.952   5.117  0.00  0.00    +0.000 HD
ENDBRANCH   8   9
ENDBRANCH   6   8
ENDBRANCH   1   2
BRANCH   1  14
ATOM     14  C   UNL     1      45.386   6.202  12.356  0.00  0.00    +0.000 C 
BRANCH  14  15
ATOM     15  C   UNL     1      46.938   6.027  12.306  0.00  0.00    +0.000 C 
BRANCH  15  16
ATOM     16  C   UNL     1      47.708   7.344  12.085  0.00  0.00    +0.000 A 
ATOM     17  C   UNL     1      49.086   7.387  11.800  0.00  0.00    +0.000 A 
ATOM     18  C   UNL     1      49.745   8.592  11.551  0.00  0.00    +0.000 A 
ATOM     19  C   UNL     1      49.040   9.790  11.601  0.00  0.00    +0.000 A 
ATOM     20  C   UNL     1      47.684   9.775  11.913  0.00  0.00    +0.000 A 
ATOM     21 CL   UNL     1      46.820  11.261  11.991  0.00  0.00    +0.000 Cl
ATOM     22  C   UNL     1      47.020   8.569  12.157  0.00  0.00    +0.000 A 
ENDBRANCH  15  16
BRANCH  15  24
ATOM     23  C   UNL     1      47.726   5.933  14.658  0.00  0.00    +0.000 C 
ATOM     24  N   UNL     1      47.541   5.206  13.399  0.00  0.00    +0.000 NA
ATOM     25  C   UNL     1      46.794   3.973  13.652  0.00  0.00    +0.000 C 
ENDBRANCH  15  24
ENDBRANCH  14  15
ENDBRANCH   1  14
TORSDOF 7
ENDMDL
MODEL 2
REMARK VINA RESULT:    -6.475      3.262      7.478
REMARK INTER + INTRA:          -9.926
REMARK INTER:                  -9.607
REMARK INTRA:                  -0.319
REMARK UNBOUND:                -0.801
REMARK  Name = 
REMARK  9 active torsions:
REMARK  status: ('A' for Active; 'I' for Inactive)
REMARK    1  A    between atoms: C_1  and  N_2
REMARK    2  A    between atoms: N_2  and  C_3
REMARK    3  A    between atoms: N_2  and  C_4
REMARK    4  A    between atoms: C_4  and  C_5
REMARK    5  A    between atoms: C_4  and  C_18
REMARK    6  A    between atoms: C_5  and  O_6
REMARK    7  A    between atoms: O_6  and  C_7
REMARK    8  A    between atoms: C_11  and  O_12
REMARK    9  A    between atoms: O_12  and  C_13
REMARK                            x       y       z     vdW  Elec       q    Type
REMARK                         _______ _______ _______ _____ _____    ______ ____
ROOT
ATOM      1  O   UNL     1      46.283   5.564  11.629  0.00  0.00    +0.000 OA
ENDROOT
BRANCH   1   2
ATOM      2  C   UNL     1      47.052   6.254  12.519  0.00  0.00    +0.000 A 
ATOM      3  C   UNL     1      47.475   7.569  12.376  0.00  0.00    +0.000 A 
ATOM      4  C   UNL     1      48.238   8.164  13.384  0.00  0.00    +0.000 A 
ATOM      5  C   UNL     1      48.584   7.437  14.528  0.00  0.00    +0.000 A 
ATOM      6  C   UNL     1      48.184   6.110  14.660  0.00  0.00    +0.000 A 
ATOM      7  C   UNL     1      47.417   5.524  13.654  0.00  0.00    +0.000 A 
BRANCH   6   8
ATOM      8  O   UNL     1      48.454   5.313  15.741  0.00  0.00    +0.000 OA
BRANCH   8   9
ATOM      9  C   UNL     1      47.392   4.498  16.284  0.00  0.00    +0.000 C 
ATOM     10  C   UNL     1      47.092   4.626  17.793  0.00  0.00    +0.000 C 
ATOM     11  N   UNL     1      47.148   3.161  17.938  0.00  0.00    +0.000 NA
ATOM     12  C   UNL     1      47.785   3.045  16.615  0.00  0.00    +0.000 C 
ATOM     13  H   UNL     1      46.234   2.713  17.997  0.00  0.00    +0.000 HD
ENDBRANCH   8   9
ENDBRANCH   6   8
ENDBRANCH   1   2
BRANCH   1  14
ATOM     14  C   UNL     1      45.196   6.241  10.996  0.00  0.00    +0.000 C 
BRANCH  14  15
ATOM     15  C   UNL     1      44.121   5.210  10.524  0.00  0.00    +0.000 C 
BRANCH  15  16
ATOM     16  C   UNL     1      44.690   4.063   9.665  0.00  0.00    +0.000 A 
ATOM     17  C   UNL     1      44.455   2.705   9.948  0.00  0.00    +0.000 A 
ATOM     18  C   UNL     1      44.938   1.690   9.120  0.00  0.00    +0.000 A 
ATOM     19  C   UNL     1      45.688   2.013   7.994  0.00  0.00    +0.000 A 
ATOM     20  C   UNL     1      45.961   3.349   7.712  0.00  0.00    +0.000 A 
ATOM     21 CL   UNL     1      46.905   3.743   6.328  0.00  0.00    +0.000 Cl
ATOM     22  C   UNL     1      45.473   4.367   8.536  0.00  0.00    +0.000 A 
ENDBRANCH  15  16
BRANCH  15  24
ATOM     23  C   UNL     1      43.853   4.312  12.823  0.00  0.00    +0.000 C 
ATOM     24  N   UNL     1      43.188   4.706  11.578  0.00  0.00    +0.000 NA
ATOM     25  C   UNL     1      42.114   5.655  11.875  0.00  0.00    +0.000 C 
ENDBRANCH  15  24
ENDBRANCH  14  15
ENDBRANCH   1  14
TORSDOF 7
ENDMDL
MODEL 3
REMARK VINA RESULT:    -6.181      4.454      6.858
REMARK INTER + INTRA:          -9.511
REMARK INTER:                  -8.606
REMARK INTRA:                  -0.906
REMARK UNBOUND:                -0.801
REMARK  Name = 
REMARK  9 active torsions:
REMARK  status: ('A' for Active; 'I' for Inactive)
REMARK    1  A    between atoms: C_1  and  N_2
REMARK    2  A    between atoms: N_2  and  C_3
REMARK    3  A    between atoms: N_2  and  C_4
REMARK    4  A    between atoms: C_4  and  C_5
REMARK    5  A    between atoms: C_4  and  C_18
REMARK    6  A    between atoms: C_5  and  O_6
REMARK    7  A    between atoms: O_6  and  C_7
REMARK    8  A    between atoms: C_11  and  O_12
REMARK    9  A    between atoms: O_12  and  C_13
REMARK                            x       y       z     vdW  Elec       q    Type
REMARK                         _______ _______ _______ _____ _____    ______ ____
ROOT
ATOM      1  O   UNL     1      49.198   6.211  14.938  0.00  0.00    +0.000 OA
ENDROOT
BRANCH   1   2
ATOM      2  C   UNL     1      48.398   6.426  13.855  0.00  0.00    +0.000 A 
ATOM      3  C   UNL     1      48.717   7.211  12.755  0.00  0.00    +0.000 A 
ATOM      4  C   UNL     1      47.811   7.321  11.697  0.00  0.00    +0.000 A 
ATOM      5  C   UNL     1      46.583   6.653  11.749  0.00  0.00    +0.000 A 
ATOM      6  C   UNL     1      46.250   5.889  12.864  0.00  0.00    +0.000 A 
ATOM      7  C   UNL     1      47.161   5.777  13.913  0.00  0.00    +0.000 A 
BRANCH   6   8
ATOM      8  O   UNL     1      45.084   5.184  13.013  0.00  0.00    +0.000 OA
BRANCH   8   9
ATOM      9  C   UNL     1      44.514   4.534  11.854  0.00  0.00    +0.000 C 
ATOM     10  C   UNL     1      42.998   4.694  11.618  0.00  0.00    +0.000 C 
ATOM     11  N   UNL     1      42.860   3.236  11.457  0.00  0.00    +0.000 NA
ATOM     12  C   UNL     1      44.201   3.036  12.034  0.00  0.00    +0.000 C 
ATOM     13  H   UNL     1      42.777   2.930  10.488  0.00  0.00    +0.000 HD
ENDBRANCH   8   9
ENDBRANCH   6   8
ENDBRANCH   1   2
BRANCH   1  14
ATOM     14  C   UNL     1      48.965   6.972  16.123  0.00  0.00    +0.000 C 
BRANCH  14  15
ATOM     15  C   UNL     1      48.453   6.041  17.269  0.00  0.00    +0.000 C 
BRANCH  15  16
ATOM     16  C   UNL     1      49.063   4.626  17.243  0.00  0.00    +0.000 A 
ATOM     17  C   UNL     1      48.339   3.487  16.846  0.00  0.00    +0.000 A 
ATOM     18  C   UNL     1      48.935   2.226  16.781  0.00  0.00    +0.000 A 
ATOM     19  C   UNL     1      50.272   2.073  17.132  0.00  0.00    +0.000 A 
ATOM     20  C   UNL     1      50.999   3.179  17.560  0.00  0.00    +0.000 A 
ATOM     21 CL   UNL     1      52.648   2.981  18.012  0.00  0.00    +0.000 Cl
ATOM     22  C   UNL     1      50.407   4.444  17.620  0.00  0.00    +0.000 A 
ENDBRANCH  15  16
BRANCH  15  24
ATOM     23  C   UNL     1      48.306   8.083  18.672  0.00  0.00    +0.000 C 
ATOM     24  N   UNL     1      48.463   6.627  18.644  0.00  0.00    +0.000 NA
ATOM     25  C   UNL     1      47.467   6.011  19.522  0.00  0.00    +0.000 C 
ENDBRANCH  15  24
ENDBRANCH  14  15
ENDBRANCH   1  14
TORSDOF 7
ENDMDL
MODEL 4
REMARK VINA RESULT:    -6.001      3.741      7.344
REMARK INTER + INTRA:          -9.257
REMARK INTER:                  -8.509
REMARK INTRA:                  -0.747
REMARK UNBOUND:                -0.801
REMARK  Name = 
REMARK  9 active torsions:
REMARK  status: ('A' for Active; 'I' for Inactive)
REMARK    1  A    between atoms: C_1  and  N_2
REMARK    2  A    between atoms: N_2  and  C_3
REMARK    3  A    between atoms: N_2  and  C_4
REMARK    4  A    between atoms: C_4  and  C_5
REMARK    5  A    between atoms: C_4  and  C_18
REMARK    6  A    between atoms: C_5  and  O_6
REMARK    7  A    between atoms: O_6  and  C_7
REMARK    8  A    between atoms: C_11  and  O_12
REMARK    9  A    between atoms: O_12  and  C_13
REMARK                            x       y       z     vdW  Elec       q    Type
REMARK                         _______ _______ _______ _____ _____    ______ ____
ROOT
ATOM      1  O   UNL     1      45.526   5.680  12.948  0.00  0.00    +0.000 OA
ENDROOT
BRANCH   1   2
ATOM      2  C   UNL     1      46.095   6.882  12.647  0.00  0.00    +0.000 A 
ATOM      3  C   UNL     1      47.438   7.095  12.366  0.00  0.00    +0.000 A 
ATOM      4  C   UNL     1      47.881   8.381  12.043  0.00  0.00    +0.000 A 
ATOM      5  C   UNL     1      46.980   9.450  12.014  0.00  0.00    +0.000 A 
ATOM      6  C   UNL     1      45.640   9.243  12.324  0.00  0.00    +0.000 A 
ATOM      7  C   UNL     1      45.201   7.957  12.638  0.00  0.00    +0.000 A 
BRANCH   6   8
ATOM      8  O   UNL     1      44.672  10.214  12.312  0.00  0.00    +0.000 OA
BRANCH   8   9
ATOM      9  C   UNL     1      44.752  11.260  11.318  0.00  0.00    +0.000 C 
ATOM     10  C   UNL     1      43.628  12.317  11.301  0.00  0.00    +0.000 C 
ATOM     11  N   UNL     1      43.447  12.114   9.853  0.00  0.00    +0.000 NA
ATOM     12  C   UNL     1      44.236  10.872   9.918  0.00  0.00    +0.000 C 
ATOM     13  H   UNL     1      43.867  12.841   9.275  0.00  0.00    +0.000 HD
ENDBRANCH   8   9
ENDBRANCH   6   8
ENDBRANCH   1   2
BRANCH   1  14
ATOM     14  C   UNL     1      45.793   4.565  12.097  0.00  0.00    +0.000 C 
BRANCH  14  15
ATOM     15  C   UNL     1      44.797   4.556  10.893  0.00  0.00    +0.000 C 
BRANCH  15  16
ATOM     16  C   UNL     1      45.396   3.989   9.591  0.00  0.00    +0.000 A 
ATOM     17  C   UNL     1      45.890   4.806   8.556  0.00  0.00    +0.000 A 
ATOM     18  C   UNL     1      46.476   4.262   7.412  0.00  0.00    +0.000 A 
ATOM     19  C   UNL     1      46.565   2.882   7.268  0.00  0.00    +0.000 A 
ATOM     20  C   UNL     1      46.054   2.055   8.263  0.00  0.00    +0.000 A 
ATOM     21 CL   UNL     1      46.150   0.347   8.072  0.00  0.00    +0.000 Cl
ATOM     22  C   UNL     1      45.472   2.596   9.413  0.00  0.00    +0.000 A 
ENDBRANCH  15  16
BRANCH  15  24
ATOM     23  C   UNL     1      43.428   2.914  12.154  0.00  0.00    +0.000 C 
ATOM     24  N   UNL     1      43.438   4.000  11.170  0.00  0.00    +0.000 NA
ATOM     25  C   UNL     1      42.480   5.032  11.569  0.00  0.00    +0.000 C 
ENDBRANCH  15  24
ENDBRANCH  14  15
ENDBRANCH   1  14
TORSDOF 7
ENDMDL
MODEL 5
REMARK VINA RESULT:    -5.960      1.702      2.291
REMARK INTER + INTRA:          -9.200
REMARK INTER:                  -8.472
REMARK INTRA:                  -0.727
REMARK UNBOUND:                -0.801
REMARK  Name = 
REMARK  9 active torsions:
REMARK  status: ('A' for Active; 'I' for Inactive)
REMARK    1  A    between atoms: C_1  and  N_2
REMARK    2  A    between atoms: N_2  and  C_3
REMARK    3  A    between atoms: N_2  and  C_4
REMARK    4  A    between atoms: C_4  and  C_5
REMARK    5  A    between atoms: C_4  and  C_18
REMARK    6  A    between atoms: C_5  and  O_6
REMARK    7  A    between atoms: O_6  and  C_7
REMARK    8  A    between atoms: C_11  and  O_12
REMARK    9  A    between atoms: O_12  and  C_13
REMARK                            x       y       z     vdW  Elec       q    Type
REMARK                         _______ _______ _______ _____ _____    ______ ____
ROOT
ATOM      1  O   UNL     1      45.963   3.713  13.483  0.00  0.00    +0.000 OA
ENDROOT
BRANCH   1   2
ATOM      2  C   UNL     1      45.059   4.048  12.520  0.00  0.00    +0.000 A 
ATOM      3  C   UNL     1      43.700   4.253  12.719  0.00  0.00    +0.000 A 
ATOM      4  C   UNL     1      42.890   4.623  11.642  0.00  0.00    +0.000 A 
ATOM      5  C   UNL     1      43.442   4.776  10.366  0.00  0.00    +0.000 A 
ATOM      6  C   UNL     1      44.798   4.544  10.159  0.00  0.00    +0.000 A 
ATOM      7  C   UNL     1      45.603   4.182  11.239  0.00  0.00    +0.000 A 
BRANCH   6   8
ATOM      8  O   UNL     1      45.443   4.678   8.957  0.00  0.00    +0.000 OA
BRANCH   8   9
ATOM      9  C   UNL     1      45.351   3.601   7.997  0.00  0.00    +0.000 C 
ATOM     10  C   UNL     1      45.758   2.189   8.466  0.00  0.00    +0.000 C 
ATOM     11  N   UNL     1      46.629   2.039   7.288  0.00  0.00    +0.000 NA
ATOM     12  C   UNL     1      46.544   3.486   7.028  0.00  0.00    +0.000 C 
ATOM     13  H   UNL     1      46.232   1.462   6.547  0.00  0.00    +0.000 HD
ENDBRANCH   8   9
ENDBRANCH   6   8
ENDBRANCH   1   2
BRANCH   1  14
ATOM     14  C   UNL     1      46.275   4.674  14.492  0.00  0.00    +0.000 C 
BRANCH  14  15
ATOM     15  C   UNL     1      47.725   5.218  14.288  0.00  0.00    +0.000 C 
BRANCH  15  16
ATOM     16  C   UNL     1      47.801   6.483  13.410  0.00  0.00    +0.000 A 
ATOM     17  C   UNL     1      48.950   6.842  12.682  0.00  0.00    +0.000 A 
ATOM     18  C   UNL     1      48.970   7.964  11.853  0.00  0.00    +0.000 A 
ATOM     19  C   UNL     1      47.839   8.768  11.747  0.00  0.00    +0.000 A 
ATOM     20  C   UNL     1      46.702   8.450  12.483  0.00  0.00    +0.000 A 
ATOM     21 CL   UNL     1      45.312   9.458  12.364  0.00  0.00    +0.000 Cl
ATOM     22  C   UNL     1      46.677   7.323  13.310  0.00  0.00    +0.000 A 
ENDBRANCH  15  16
BRANCH  15  24
ATOM     23  C   UNL     1      48.727   6.726  15.985  0.00  0.00    +0.000 C 
ATOM     24  N   UNL     1      48.558   5.346  15.523  0.00  0.00    +0.000 NA
ATOM     25  C   UNL     1      48.061   4.519  16.623  0.00  0.00    +0.000 C 
ENDBRANCH  15  24
ENDBRANCH  14  15
ENDBRANCH   1  14
TORSDOF 7
ENDMDL
MODEL 6
REMARK VINA RESULT:    -5.898      3.910      6.074
REMARK INTER + INTRA:          -9.112
REMARK INTER:                  -8.295
REMARK INTRA:                  -0.818
REMARK UNBOUND:                -0.801
REMARK  Name = 
REMARK  9 active torsions:
REMARK  status: ('A' for Active; 'I' for Inactive)
REMARK    1  A    between atoms: C_1  and  N_2
REMARK    2  A    between atoms: N_2  and  C_3
REMARK    3  A    between atoms: N_2  and  C_4
REMARK    4  A    between atoms: C_4  and  C_5
REMARK    5  A    between atoms: C_4  and  C_18
REMARK    6  A    between atoms: C_5  and  O_6
REMARK    7  A    between atoms: O_6  and  C_7
REMARK    8  A    between atoms: C_11  and  O_12
REMARK    9  A    between atoms: O_12  and  C_13
REMARK                            x       y       z     vdW  Elec       q    Type
REMARK                         _______ _______ _______ _____ _____    ______ ____
ROOT
ATOM      1  O   UNL     1      48.357   6.316  13.530  0.00  0.00    +0.000 OA
ENDROOT
BRANCH   1   2
ATOM      2  C   UNL     1      47.199   6.775  12.977  0.00  0.00    +0.000 A 
ATOM      3  C   UNL     1      46.689   8.059  13.113  0.00  0.00    +0.000 A 
ATOM      4  C   UNL     1      45.500   8.404  12.464  0.00  0.00    +0.000 A 
ATOM      5  C   UNL     1      44.820   7.458  11.689  0.00  0.00    +0.000 A 
ATOM      6  C   UNL     1      45.316   6.163  11.575  0.00  0.00    +0.000 A 
ATOM      7  C   UNL     1      46.506   5.827  12.219  0.00  0.00    +0.000 A 
BRANCH   6   8
ATOM      8  O   UNL     1      44.740   5.165  10.833  0.00  0.00    +0.000 OA
BRANCH   8   9
ATOM      9  C   UNL     1      44.629   3.846  11.414  0.00  0.00    +0.000 C 
ATOM     10  C   UNL     1      44.027   2.727  10.538  0.00  0.00    +0.000 C 
ATOM     11  N   UNL     1      43.100   2.363  11.623  0.00  0.00    +0.000 NA
ATOM     12  C   UNL     1      43.397   3.629  12.314  0.00  0.00    +0.000 C 
ATOM     13  H   UNL     1      43.376   1.532  12.145  0.00  0.00    +0.000 HD
ENDBRANCH   8   9
ENDBRANCH   6   8
ENDBRANCH   1   2
BRANCH   1  14
ATOM     14  C   UNL     1      49.188   7.237  14.239  0.00  0.00    +0.000 C 
BRANCH  14  15
ATOM     15  C   UNL     1      48.816   7.241  15.756  0.00  0.00    +0.000 C 
BRANCH  15  16
ATOM     16  C   UNL     1      49.173   5.933  16.490  0.00  0.00    +0.000 A 
ATOM     17  C   UNL     1      50.468   5.648  16.960  0.00  0.00    +0.000 A 
ATOM     18  C   UNL     1      50.749   4.479  17.670  0.00  0.00    +0.000 A 
ATOM     19  C   UNL     1      49.737   3.556  17.910  0.00  0.00    +0.000 A 
ATOM     20  C   UNL     1      48.456   3.801  17.427  0.00  0.00    +0.000 A 
ATOM     21 CL   UNL     1      47.211   2.646  17.711  0.00  0.00    +0.000 Cl
ATOM     22  C   UNL     1      48.170   4.974  16.721  0.00  0.00    +0.000 A 
ENDBRANCH  15  16
BRANCH  15  24
ATOM     23  C   UNL     1      49.359   9.662  15.721  0.00  0.00    +0.000 C 
ATOM     24  N   UNL     1      49.235   8.448  16.531  0.00  0.00    +0.000 NA
ATOM     25  C   UNL     1      48.361   8.710  17.676  0.00  0.00    +0.000 C 
ENDBRANCH  15  24
ENDBRANCH  14  15
ENDBRANCH   1  14
TORSDOF 7
ENDMDL
MODEL 7
REMARK VINA RESULT:    -5.727      3.978      8.266
REMARK INTER + INTRA:          -8.872
REMARK INTER:                  -8.024
REMARK INTRA:                  -0.848
REMARK UNBOUND:                -0.801
REMARK  Name = 
REMARK  9 active torsions:
REMARK  status: ('A' for Active; 'I' for Inactive)
REMARK    1  A    between atoms: C_1  and  N_2
REMARK    2  A    between atoms: N_2  and  C_3
REMARK    3  A    between atoms: N_2  and  C_4
REMARK    4  A    between atoms: C_4  and  C_5
REMARK    5  A    between atoms: C_4  and  C_18
REMARK    6  A    between atoms: C_5  and  O_6
REMARK    7  A    between atoms: O_6  and  C_7
REMARK    8  A    between atoms: C_11  and  O_12
REMARK    9  A    between atoms: O_12  and  C_13
REMARK                            x       y       z     vdW  Elec       q    Type
REMARK                         _______ _______ _______ _____ _____    ______ ____
ROOT
ATOM      1  O   UNL     1      46.556   3.897  15.269  0.00  0.00    +0.000 OA
ENDROOT
BRANCH   1   2
ATOM      2  C   UNL     1      47.591   3.791  16.150  0.00  0.00    +0.000 A 
ATOM      3  C   UNL     1      48.323   2.638  16.404  0.00  0.00    +0.000 A 
ATOM      4  C   UNL     1      49.382   2.678  17.315  0.00  0.00    +0.000 A 
ATOM      5  C   UNL     1      49.698   3.870  17.977  0.00  0.00    +0.000 A 
ATOM      6  C   UNL     1      48.947   5.018  17.743  0.00  0.00    +0.000 A 
ATOM      7  C   UNL     1      47.897   4.974  16.828  0.00  0.00    +0.000 A 
BRANCH   6   8
ATOM      8  O   UNL     1      49.178   6.238  18.324  0.00  0.00    +0.000 OA
BRANCH   8   9
ATOM      9  C   UNL     1      48.976   6.376  19.749  0.00  0.00    +0.000 C 
ATOM     10  C   UNL     1      47.559   6.113  20.300  0.00  0.00    +0.000 C 
ATOM     11  N   UNL     1      47.597   7.390  21.032  0.00  0.00    +0.000 NA
ATOM     12  C   UNL     1      48.763   7.821  20.242  0.00  0.00    +0.000 C 
ATOM     13  H   UNL     1      47.786   7.293  22.029  0.00  0.00    +0.000 HD
ENDBRANCH   8   9
ENDBRANCH   6   8
ENDBRANCH   1   2
BRANCH   1  14
ATOM     14  C   UNL     1      46.844   4.245  13.914  0.00  0.00    +0.000 C 
BRANCH  14  15
ATOM     15  C   UNL     1      45.812   5.297  13.397  0.00  0.00    +0.000 C 
BRANCH  15  16
ATOM     16  C   UNL     1      46.451   6.608  12.900  0.00  0.00    +0.000 A 
ATOM     17  C   UNL     1      45.776   7.843  12.916  0.00  0.00    +0.000 A 
ATOM     18  C   UNL     1      46.400   9.024  12.510  0.00  0.00    +0.000 A 
ATOM     19  C   UNL     1      47.715   8.992  12.059  0.00  0.00    +0.000 A 
ATOM     20  C   UNL     1      48.392   7.777  12.003  0.00  0.00    +0.000 A 
ATOM     21 CL   UNL     1      50.013   7.740  11.426  0.00  0.00    +0.000 Cl
ATOM     22  C   UNL     1      47.771   6.594  12.415  0.00  0.00    +0.000 A 
ENDBRANCH  15  16
BRANCH  15  24
ATOM     23  C   UNL     1      45.020   3.421  11.977  0.00  0.00    +0.000 C 
ATOM     24  N   UNL     1      44.776   4.787  12.447  0.00  0.00    +0.000 NA
ATOM     25  C   UNL     1      43.421   4.882  12.992  0.00  0.00    +0.000 C 
ENDBRANCH  15  24
ENDBRANCH  14  15
ENDBRANCH   1  14
TORSDOF 7
ENDMDL
MODEL 8
REMARK VINA RESULT:    -5.692      3.941      7.213
REMARK INTER + INTRA:          -8.822
REMARK INTER:                  -8.244
REMARK INTRA:                  -0.578
REMARK UNBOUND:                -0.801
REMARK  Name = 
REMARK  9 active torsions:
REMARK  status: ('A' for Active; 'I' for Inactive)
REMARK    1  A    between atoms: C_1  and  N_2
REMARK    2  A    between atoms: N_2  and  C_3
REMARK    3  A    between atoms: N_2  and  C_4
REMARK    4  A    between atoms: C_4  and  C_5
REMARK    5  A    between atoms: C_4  and  C_18
REMARK    6  A    between atoms: C_5  and  O_6
REMARK    7  A    between atoms: O_6  and  C_7
REMARK    8  A    between atoms: C_11  and  O_12
REMARK    9  A    between atoms: O_12  and  C_13
REMARK                            x       y       z     vdW  Elec       q    Type
REMARK                         _______ _______ _______ _____ _____    ______ ____
ROOT
ATOM      1  O   UNL     1      46.549   3.905  15.325  0.00  0.00    +0.000 OA
ENDROOT
BRANCH   1   2
ATOM      2  C   UNL     1      47.643   3.822  16.134  0.00  0.00    +0.000 A 
ATOM      3  C   UNL     1      48.312   2.653  16.473  0.00  0.00    +0.000 A 
ATOM      4  C   UNL     1      49.443   2.716  17.292  0.00  0.00    +0.000 A 
ATOM      5  C   UNL     1      49.894   3.949  17.777  0.00  0.00    +0.000 A 
ATOM      6  C   UNL     1      49.207   5.117  17.461  0.00  0.00    +0.000 A 
ATOM      7  C   UNL     1      48.084   5.049  16.638  0.00  0.00    +0.000 A 
BRANCH   6   8
ATOM      8  O   UNL     1      49.568   6.375  17.870  0.00  0.00    +0.000 OA
BRANCH   8   9
ATOM      9  C   UNL     1      50.244   7.241  16.931  0.00  0.00    +0.000 C 
ATOM     10  C   UNL     1      49.785   7.197  15.458  0.00  0.00    +0.000 C 
ATOM     11  N   UNL     1      51.181   7.030  15.019  0.00  0.00    +0.000 NA
ATOM     12  C   UNL     1      51.587   6.704  16.397  0.00  0.00    +0.000 C 
ATOM     13  H   UNL     1      51.606   7.881  14.653  0.00  0.00    +0.000 HD
ENDBRANCH   8   9
ENDBRANCH   6   8
ENDBRANCH   1   2
BRANCH   1  14
ATOM     14  C   UNL     1      46.745   4.143  13.930  0.00  0.00    +0.000 C 
BRANCH  14  15
ATOM     15  C   UNL     1      45.708   5.189  13.411  0.00  0.00    +0.000 C 
BRANCH  15  16
ATOM     16  C   UNL     1      46.342   6.503  12.912  0.00  0.00    +0.000 A 
ATOM     17  C   UNL     1      45.645   7.725  12.877  0.00  0.00    +0.000 A 
ATOM     18  C   UNL     1      46.263   8.909  12.471  0.00  0.00    +0.000 A 
ATOM     19  C   UNL     1      47.595   8.893  12.070  0.00  0.00    +0.000 A 
ATOM     20  C   UNL     1      48.295   7.690  12.065  0.00  0.00    +0.000 A 
ATOM     21 CL   UNL     1      49.937   7.672  11.549  0.00  0.00    +0.000 Cl
ATOM     22  C   UNL     1      47.680   6.503  12.476  0.00  0.00    +0.000 A 
ENDBRANCH  15  16
BRANCH  15  24
ATOM     23  C   UNL     1      44.957   3.332  11.946  0.00  0.00    +0.000 C 
ATOM     24  N   UNL     1      44.675   4.674  12.462  0.00  0.00    +0.000 NA
ATOM     25  C   UNL     1      43.326   4.707  13.030  0.00  0.00    +0.000 C 
ENDBRANCH  15  24
ENDBRANCH  14  15
ENDBRANCH   1  14
TORSDOF 7
ENDMDL
MODEL 9
REMARK VINA RESULT:    -5.606      4.127      6.409
REMARK INTER + INTRA:          -8.701
REMARK INTER:                  -8.049
REMARK INTRA:                  -0.652
REMARK UNBOUND:                -0.801
REMARK  Name = 
REMARK  9 active torsions:
REMARK  status: ('A' for Active; 'I' for Inactive)
REMARK    1  A    between atoms: C_1  and  N_2
REMARK    2  A    between atoms: N_2  and  C_3
REMARK    3  A    between atoms: N_2  and  C_4
REMARK    4  A    between atoms: C_4  and  C_5
REMARK    5  A    between atoms: C_4  and  C_18
REMARK    6  A    between atoms: C_5  and  O_6
REMARK    7  A    between atoms: O_6  and  C_7
REMARK    8  A    between atoms: C_11  and  O_12
REMARK    9  A    between atoms: O_12  and  C_13
REMARK                            x       y       z     vdW  Elec       q    Type
REMARK                         _______ _______ _______ _____ _____    ______ ____
ROOT
ATOM      1  O   UNL     1      48.048   5.339  14.962  0.00  0.00    +0.000 OA
ENDROOT
BRANCH   1   2
ATOM      2  C   UNL     1      47.650   5.848  13.762  0.00  0.00    +0.000 A 
ATOM      3  C   UNL     1      48.332   6.804  13.021  0.00  0.00    +0.000 A 
ATOM      4  C   UNL     1      47.823   7.216  11.787  0.00  0.00    +0.000 A 
ATOM      5  C   UNL     1      46.626   6.677  11.303  0.00  0.00    +0.000 A 
ATOM      6  C   UNL     1      45.927   5.740  12.057  0.00  0.00    +0.000 A 
ATOM      7  C   UNL     1      46.444   5.327  13.284  0.00  0.00    +0.000 A 
BRANCH   6   8
ATOM      8  O   UNL     1      44.756   5.139  11.673  0.00  0.00    +0.000 OA
BRANCH   8   9
ATOM      9  C   UNL     1      44.646   3.702  11.785  0.00  0.00    +0.000 C 
ATOM     10  C   UNL     1      43.948   2.947  10.634  0.00  0.00    +0.000 C 
ATOM     11  N   UNL     1      43.090   2.244  11.604  0.00  0.00    +0.000 NA
ATOM     12  C   UNL     1      43.476   3.202  12.654  0.00  0.00    +0.000 C 
ATOM     13  H   UNL     1      43.376   1.285  11.793  0.00  0.00    +0.000 HD
ENDBRANCH   8   9
ENDBRANCH   6   8
ENDBRANCH   1   2
BRANCH   1  14
ATOM     14  C   UNL     1      48.710   6.203  15.886  0.00  0.00    +0.000 C 
BRANCH  14  15
ATOM     15  C   UNL     1      49.017   5.439  17.213  0.00  0.00    +0.000 C 
BRANCH  15  16
ATOM     16  C   UNL     1      50.507   5.092  17.404  0.00  0.00    +0.000 A 
ATOM     17  C   UNL     1      50.944   3.924  18.057  0.00  0.00    +0.000 A 
ATOM     18  C   UNL     1      52.300   3.610  18.166  0.00  0.00    +0.000 A 
ATOM     19  C   UNL     1      53.255   4.473  17.639  0.00  0.00    +0.000 A 
ATOM     20  C   UNL     1      52.848   5.649  17.017  0.00  0.00    +0.000 A 
ATOM     21 CL   UNL     1      54.034   6.722  16.382  0.00  0.00    +0.000 Cl
ATOM     22  C   UNL     1      51.490   5.963  16.901  0.00  0.00    +0.000 A 
ENDBRANCH  15  16
BRANCH  15  24
ATOM     23  C   UNL     1      48.407   7.476  18.492  0.00  0.00    +0.000 C 
ATOM     24  N   UNL     1      48.415   6.012  18.455  0.00  0.00    +0.000 NA
ATOM     25  C   UNL     1      47.065   5.508  18.708  0.00  0.00    +0.000 C 
ENDBRANCH  15  24
ENDBRANCH  14  15
ENDBRANCH   1  14
TORSDOF 7
ENDMDL
