MODEL 1
REMARK VINA RESULT:    -8.552      0.000      0.000
REMARK INTER + INTRA:         -12.900
REMARK INTER:                 -11.801
REMARK INTRA:                  -1.099
REMARK UNBOUND:                -1.099
REMARK  Name = 
REMARK  7 active torsions:
REMARK  status: ('A' for Active; 'I' for Inactive)
REMARK    1  A    between atoms: N_1  and  C_2
REMARK    2  A    between atoms: C_2  and  C_3
REMARK    3  A    between atoms: C_2  and  C_10
REMARK    4  A    between atoms: C_3  and  C_4
REMARK    5  A    between atoms: C_13  and  C_14
REMARK    6  A    between atoms: C_14  and  N_15
REMARK    7  A    between atoms: C_16  and  C_18
REMARK                            x       y       z     vdW  Elec       q    Type
REMARK                         _______ _______ _______ _____ _____    ______ ____
ROOT
ATOM      1  C   UNL     1      45.016   4.452  11.229  0.00  0.00    +0.000 A 
ATOM      2  C   UNL     1      45.607   5.485  10.478  0.00  0.00    +0.000 A 
ATOM      3  C   UNL     1      46.194   6.596  11.091  0.00  0.00    +0.000 A 
ATOM      4  C   UNL     1      46.187   6.721  12.482  0.00  0.00    +0.000 A 
ATOM      5  C   UNL     1      45.517   5.753  13.236  0.00  0.00    +0.000 A 
ATOM      6  C   UNL     1      44.942   4.633  12.620  0.00  0.00    +0.000 A 
ENDROOT
BRANCH   1   7
ATOM      7  C   UNL     1      44.439   3.225  10.513  0.00  0.00    +0.000 C 
BRANCH   7   8
ATOM      8  N   UNL     1      43.107   2.896  11.066  0.00  0.00    +0.000 NA
ATOM      9  H   UNL     1      42.518   2.525  10.321  0.00  0.00    +0.000 HD
ATOM     10  H   UNL     1      42.664   3.762  11.370  0.00  0.00    +0.000 HD
ENDBRANCH   7   8
BRANCH   7  11
ATOM     11  C   UNL     1      44.341   3.376   8.968  0.00  0.00    +0.000 C 
BRANCH  11  12
ATOM     12  C   UNL     1      45.460   2.739   8.169  0.00  0.00    +0.000 A 
ATOM     13  C   UNL     1      46.174   3.498   7.230  0.00  0.00    +0.000 A 
ATOM     14  C   UNL     1      47.246   2.941   6.531  0.00  0.00    +0.000 A 
ATOM     15  C   UNL     1      47.616   1.617   6.761  0.00  0.00    +0.000 A 
ATOM     16  C   UNL     1      46.910   0.849   7.685  0.00  0.00    +0.000 A 
ATOM     17  C   UNL     1      45.838   1.405   8.386  0.00  0.00    +0.000 A 
ENDBRANCH  11  12
ENDBRANCH   7  11
ENDBRANCH   1   7
BRANCH   4  18
ATOM     18  C   UNL     1      46.862   7.886  13.154  0.00  0.00    +0.000 C 
BRANCH  18  19
ATOM     19  N   UNL     1      47.395   7.512  14.436  0.00  0.00    +0.000 N 
ATOM     20  C   UNL     1      48.568   6.810  14.539  0.00  0.00    +0.000 C 
ATOM     21  O   UNL     1      49.236   6.502  13.556  0.00  0.00    +0.000 OA
ATOM     22  H   UNL     1      46.760   7.549  15.226  0.00  0.00    +0.000 HD
BRANCH  20  23
ATOM     23  C   UNL     1      49.020   6.499  15.902  0.00  0.00    +0.000 A 
ATOM     24  C   UNL     1      49.899   7.356  16.549  0.00  0.00    +0.000 A 
ATOM     25  S   UNL     1      50.281   6.870  18.138  0.00  0.00    +0.000 S 
ATOM     26  C   UNL     1      49.324   5.470  17.999  0.00  0.00    +0.000 A 
ATOM     27  N   UNL     1      49.233   4.579  19.024  0.00  0.00    +0.000 NA
ATOM     28  C   UNL     1      48.492   3.552  18.773  0.00  0.00    +0.000 A 
ATOM     29  N   UNL     1      47.830   3.336  17.593  0.00  0.00    +0.000 N 
ATOM     30  C   UNL     1      47.873   4.218  16.540  0.00  0.00    +0.000 A 
ATOM     31  O   UNL     1      47.236   4.010  15.515  0.00  0.00    +0.000 OA
ATOM     32  C   UNL     1      48.704   5.386  16.766  0.00  0.00    +0.000 A 
ATOM     33  H   UNL     1      47.254   2.517  17.463  0.00  0.00    +0.000 HD
ENDBRANCH  20  23
ENDBRANCH  18  19
ENDBRANCH   4  18
TORSDOF 7
ENDMDL
MODEL 2
REMARK VINA RESULT:    -8.351      2.049      2.604
REMARK INTER + INTRA:         -12.623
REMARK INTER:                 -11.371
REMARK INTRA:                  -1.252
REMARK UNBOUND:                -1.099
REMARK  Name = 
REMARK  7 active torsions:
REMARK  status: ('A' for Active; 'I' for Inactive)
REMARK    1  A    between atoms: N_1  and  C_2
REMARK    2  A    between atoms: C_2  and  C_3
REMARK    3  A    between atoms: C_2  and  C_10
REMARK    4  A    between atoms: C_3  and  C_4
REMARK    5  A    between atoms: C_13  and  C_14
REMARK    6  A    between atoms: C_14  and  N_15
REMARK    7  A    between atoms: C_16  and  C_18
REMARK                            x       y       z     vdW  Elec       q    Type
REMARK                         _______ _______ _______ _____ _____    ______ ____
ROOT
ATOM      1  C   UNL     1      45.240   4.463  11.585  0.00  0.00    +0.000 A 
ATOM      2  C   UNL     1      45.812   3.947  12.763  0.00  0.00    +0.000 A 
ATOM      3  C   UNL     1      46.732   4.682  13.516  0.00  0.00    +0.000 A 
ATOM      4  C   UNL     1      47.129   5.955  13.100  0.00  0.00    +0.000 A 
ATOM      5  C   UNL     1      46.644   6.441  11.882  0.00  0.00    +0.000 A 
ATOM      6  C   UNL     1      45.711   5.708  11.136  0.00  0.00    +0.000 A 
ENDROOT
BRANCH   1   7
ATOM      7  C   UNL     1      44.190   3.643  10.825  0.00  0.00    +0.000 C 
BRANCH   7   8
ATOM      8  N   UNL     1      42.845   3.908  11.378  0.00  0.00    +0.000 NA
ATOM      9  H   UNL     1      42.323   4.491  10.725  0.00  0.00    +0.000 HD
ATOM     10  H   UNL     1      42.950   4.462  12.227  0.00  0.00    +0.000 HD
ENDBRANCH   7   8
BRANCH   7  11
ATOM     11  C   UNL     1      44.181   3.886   9.289  0.00  0.00    +0.000 C 
BRANCH  11  12
ATOM     12  C   UNL     1      45.243   3.149   8.496  0.00  0.00    +0.000 A 
ATOM     13  C   UNL     1      46.064   3.849   7.600  0.00  0.00    +0.000 A 
ATOM     14  C   UNL     1      47.084   3.193   6.910  0.00  0.00    +0.000 A 
ATOM     15  C   UNL     1      47.295   1.830   7.105  0.00  0.00    +0.000 A 
ATOM     16  C   UNL     1      46.481   1.120   7.986  0.00  0.00    +0.000 A 
ATOM     17  C   UNL     1      45.459   1.775   8.679  0.00  0.00    +0.000 A 
ENDBRANCH  11  12
ENDBRANCH   7  11
ENDBRANCH   1   7
BRANCH   4  18
ATOM     18  C   UNL     1      48.078   6.775  13.931  0.00  0.00    +0.000 C 
BRANCH  18  19
ATOM     19  N   UNL     1      47.949   6.466  15.330  0.00  0.00    +0.000 N 
ATOM     20  C   UNL     1      49.054   6.285  16.121  0.00  0.00    +0.000 C 
ATOM     21  O   UNL     1      50.197   6.416  15.691  0.00  0.00    +0.000 OA
ATOM     22  H   UNL     1      47.045   6.130  15.645  0.00  0.00    +0.000 HD
BRANCH  20  23
ATOM     23  C   UNL     1      48.797   5.988  17.537  0.00  0.00    +0.000 A 
ATOM     24  C   UNL     1      49.043   4.715  18.030  0.00  0.00    +0.000 A 
ATOM     25  S   UNL     1      48.736   4.559  19.700  0.00  0.00    +0.000 S 
ATOM     26  C   UNL     1      48.217   6.175  19.812  0.00  0.00    +0.000 A 
ATOM     27  N   UNL     1      47.781   6.690  20.994  0.00  0.00    +0.000 NA
ATOM     28  C   UNL     1      47.395   7.921  20.929  0.00  0.00    +0.000 A 
ATOM     29  N   UNL     1      47.410   8.685  19.792  0.00  0.00    +0.000 N 
ATOM     30  C   UNL     1      47.864   8.216  18.583  0.00  0.00    +0.000 A 
ATOM     31  O   UNL     1      47.899   8.941  17.597  0.00  0.00    +0.000 OA
ATOM     32  C   UNL     1      48.298   6.831  18.597  0.00  0.00    +0.000 A 
ATOM     33  H   UNL     1      47.107   9.648  19.809  0.00  0.00    +0.000 HD
ENDBRANCH  20  23
ENDBRANCH  18  19
ENDBRANCH   4  18
TORSDOF 7
ENDMDL
MODEL 3
REMARK VINA RESULT:    -8.289      2.894      5.090
REMARK INTER + INTRA:         -12.538
REMARK INTER:                 -11.551
REMARK INTRA:                  -0.987
REMARK UNBOUND:                -1.099
REMARK  Name = 
REMARK  7 active torsions:
REMARK  status: ('A' for Active; 'I' for Inactive)
REMARK    1  A    between atoms: N_1  and  C_2
REMARK    2  A    between atoms: C_2  and  C_3
REMARK    3  A    between atoms: C_2  and  C_10
REMARK    4  A    between atoms: C_3  and  C_4
REMARK    5  A    between atoms: C_13  and  C_14
REMARK    6  A    between atoms: C_14  and  N_15
REMARK    7  A    between atoms: C_16  and  C_18
REMARK                            x       y       z     vdW  Elec       q    Type
REMARK                         _______ _______ _______ _____ _____    ______ ____
ROOT
ATOM      1  C   UNL     1      46.525   2.684   7.356  0.00  0.00    +0.000 A 
ATOM      2  C   UNL     1      46.252   4.042   7.603  0.00  0.00    +0.000 A 
ATOM      3  C   UNL     1      45.512   4.451   8.717  0.00  0.00    +0.000 A 
ATOM      4  C   UNL     1      45.001   3.508   9.611  0.00  0.00    +0.000 A 
ATOM      5  C   UNL     1      45.181   2.151   9.325  0.00  0.00    +0.000 A 
ATOM      6  C   UNL     1      45.935   1.744   8.216  0.00  0.00    +0.000 A 
ENDROOT
BRANCH   1   7
ATOM      7  C   UNL     1      47.391   2.289   6.153  0.00  0.00    +0.000 C 
BRANCH   7   8
ATOM      8  N   UNL     1      48.774   2.773   6.345  0.00  0.00    +0.000 NA
ATOM      9  H   UNL     1      48.891   3.658   5.852  0.00  0.00    +0.000 HD
ATOM     10  H   UNL     1      49.410   2.116   5.897  0.00  0.00    +0.000 HD
ENDBRANCH   7   8
BRANCH   7  11
ATOM     11  C   UNL     1      47.409   0.762   5.855  0.00  0.00    +0.000 C 
BRANCH  11  12
ATOM     12  C   UNL     1      46.855   0.345   4.506  0.00  0.00    +0.000 A 
ATOM     13  C   UNL     1      46.973  -0.985   4.078  0.00  0.00    +0.000 A 
ATOM     14  C   UNL     1      46.415  -1.395   2.866  0.00  0.00    +0.000 A 
ATOM     15  C   UNL     1      45.733  -0.480   2.068  0.00  0.00    +0.000 A 
ATOM     16  C   UNL     1      45.616   0.847   2.476  0.00  0.00    +0.000 A 
ATOM     17  C   UNL     1      46.173   1.259   3.689  0.00  0.00    +0.000 A 
ENDBRANCH  11  12
ENDBRANCH   7  11
ENDBRANCH   1   7
BRANCH   4  18
ATOM     18  C   UNL     1      44.250   3.940  10.841  0.00  0.00    +0.000 C 
BRANCH  18  19
ATOM     19  N   UNL     1      45.107   4.649  11.754  0.00  0.00    +0.000 N 
ATOM     20  C   UNL     1      45.828   3.985  12.712  0.00  0.00    +0.000 C 
ATOM     21  O   UNL     1      45.811   2.761  12.813  0.00  0.00    +0.000 OA
ATOM     22  H   UNL     1      44.959   5.650  11.839  0.00  0.00    +0.000 HD
BRANCH  20  23
ATOM     23  C   UNL     1      46.679   4.815  13.575  0.00  0.00    +0.000 A 
ATOM     24  C   UNL     1      46.903   4.437  14.891  0.00  0.00    +0.000 A 
ATOM     25  S   UNL     1      47.951   5.486  15.734  0.00  0.00    +0.000 S 
ATOM     26  C   UNL     1      48.102   6.509  14.383  0.00  0.00    +0.000 A 
ATOM     27  N   UNL     1      48.859   7.639  14.442  0.00  0.00    +0.000 NA
ATOM     28  C   UNL     1      48.866   8.333  13.353  0.00  0.00    +0.000 A 
ATOM     29  N   UNL     1      48.190   7.998  12.208  0.00  0.00    +0.000 N 
ATOM     30  C   UNL     1      47.435   6.856  12.095  0.00  0.00    +0.000 A 
ATOM     31  O   UNL     1      46.876   6.570  11.043  0.00  0.00    +0.000 OA
ATOM     32  C   UNL     1      47.382   6.045  13.297  0.00  0.00    +0.000 A 
ATOM     33  H   UNL     1      48.247   8.577  11.384  0.00  0.00    +0.000 HD
ENDBRANCH  20  23
ENDBRANCH  18  19
ENDBRANCH   4  18
TORSDOF 7
ENDMDL
MODEL 4
REMARK VINA RESULT:    -7.791      1.769      2.291
REMARK INTER + INTRA:         -11.850
REMARK INTER:                 -10.483
REMARK INTRA:                  -1.367
REMARK UNBOUND:                -1.099
REMARK  Name = 
REMARK  7 active torsions:
REMARK  status: ('A' for Active; 'I' for Inactive)
REMARK    1  A    between atoms: N_1  and  C_2
REMARK    2  A    between atoms: C_2  and  C_3
REMARK    3  A    between atoms: C_2  and  C_10
REMARK    4  A    between atoms: C_3  and  C_4
REMARK    5  A    between atoms: C_13  and  C_14
REMARK    6  A    between atoms: C_14  and  N_15
REMARK    7  A    between atoms: C_16  and  C_18
REMARK                            x       y       z     vdW  Elec       q    Type
REMARK                         _______ _______ _______ _____ _____    ______ ____
ROOT
ATOM      1  C   UNL     1      45.076   4.971  11.819  0.00  0.00    +0.000 A 
ATOM      2  C   UNL     1      45.828   4.365  12.842  0.00  0.00    +0.000 A 
ATOM      3  C   UNL     1      46.955   4.985  13.391  0.00  0.00    +0.000 A 
ATOM      4  C   UNL     1      47.380   6.227  12.916  0.00  0.00    +0.000 A 
ATOM      5  C   UNL     1      46.700   6.796  11.834  0.00  0.00    +0.000 A 
ATOM      6  C   UNL     1      45.563   6.180  11.295  0.00  0.00    +0.000 A 
ENDROOT
BRANCH   1   7
ATOM      7  C   UNL     1      43.813   4.279  11.290  0.00  0.00    +0.000 C 
BRANCH   7   8
ATOM      8  N   UNL     1      42.611   4.892  11.894  0.00  0.00    +0.000 NA
ATOM      9  H   UNL     1      41.778   4.501  11.453  0.00  0.00    +0.000 HD
ATOM     10  H   UNL     1      42.609   5.885  11.668  0.00  0.00    +0.000 HD
ENDBRANCH   7   8
BRANCH   7  11
ATOM     11  C   UNL     1      43.682   4.289   9.740  0.00  0.00    +0.000 C 
BRANCH  11  12
ATOM     12  C   UNL     1      44.771   3.557   8.980  0.00  0.00    +0.000 A 
ATOM     13  C   UNL     1      44.931   2.173   9.140  0.00  0.00    +0.000 A 
ATOM     14  C   UNL     1      45.889   1.477   8.401  0.00  0.00    +0.000 A 
ATOM     15  C   UNL     1      46.700   2.157   7.495  0.00  0.00    +0.000 A 
ATOM     16  C   UNL     1      46.557   3.534   7.332  0.00  0.00    +0.000 A 
ATOM     17  C   UNL     1      45.598   4.232   8.070  0.00  0.00    +0.000 A 
ENDBRANCH  11  12
ENDBRANCH   7  11
ENDBRANCH   1   7
BRANCH   4  18
ATOM     18  C   UNL     1      48.559   6.927  13.535  0.00  0.00    +0.000 C 
BRANCH  18  19
ATOM     19  N   UNL     1      48.311   7.247  14.915  0.00  0.00    +0.000 N 
ATOM     20  C   UNL     1      49.343   7.488  15.785  0.00  0.00    +0.000 C 
ATOM     21  O   UNL     1      50.517   7.482  15.426  0.00  0.00    +0.000 OA
ATOM     22  H   UNL     1      47.387   7.031  15.278  0.00  0.00    +0.000 HD
BRANCH  20  23
ATOM     23  C   UNL     1      48.963   7.820  17.165  0.00  0.00    +0.000 A 
ATOM     24  C   UNL     1      49.230   9.085  17.668  0.00  0.00    +0.000 A 
ATOM     25  S   UNL     1      48.681   9.315  19.266  0.00  0.00    +0.000 S 
ATOM     26  C   UNL     1      48.112   7.714  19.359  0.00  0.00    +0.000 A 
ATOM     27  N   UNL     1      47.537   7.240  20.498  0.00  0.00    +0.000 NA
ATOM     28  C   UNL     1      47.173   6.003  20.437  0.00  0.00    +0.000 A 
ATOM     29  N   UNL     1      47.326   5.197  19.338  0.00  0.00    +0.000 N 
ATOM     30  C   UNL     1      47.879   5.638  18.160  0.00  0.00    +0.000 A 
ATOM     31  O   UNL     1      47.963   4.899  17.187  0.00  0.00    +0.000 OA
ATOM     32  C   UNL     1      48.317   7.021  18.180  0.00  0.00    +0.000 A 
ATOM     33  H   UNL     1      47.008   4.239  19.349  0.00  0.00    +0.000 HD
ENDBRANCH  20  23
ENDBRANCH  18  19
ENDBRANCH   4  18
TORSDOF 7
ENDMDL
MODEL 5
REMARK VINA RESULT:    -7.413      3.246      5.299
REMARK INTER + INTRA:         -11.329
REMARK INTER:                  -9.970
REMARK INTRA:                  -1.359
REMARK UNBOUND:                -1.099
REMARK  Name = 
REMARK  7 active torsions:
REMARK  status: ('A' for Active; 'I' for Inactive)
REMARK    1  A    between atoms: N_1  and  C_2
REMARK    2  A    between atoms: C_2  and  C_3
REMARK    3  A    between atoms: C_2  and  C_10
REMARK    4  A    between atoms: C_3  and  C_4
REMARK    5  A    between atoms: C_13  and  C_14
REMARK    6  A    between atoms: C_14  and  N_15
REMARK    7  A    between atoms: C_16  and  C_18
REMARK                            x       y       z     vdW  Elec       q    Type
REMARK                         _______ _______ _______ _____ _____    ______ ____
ROOT
ATOM      1  C   UNL     1      45.196   4.276  11.718  0.00  0.00    +0.000 A 
ATOM      2  C   UNL     1      45.457   5.607  11.345  0.00  0.00    +0.000 A 
ATOM      3  C   UNL     1      46.359   6.406  12.054  0.00  0.00    +0.000 A 
ATOM      4  C   UNL     1      47.016   5.902  13.179  0.00  0.00    +0.000 A 
ATOM      5  C   UNL     1      46.693   4.614  13.619  0.00  0.00    +0.000 A 
ATOM      6  C   UNL     1      45.799   3.811  12.898  0.00  0.00    +0.000 A 
ENDROOT
BRANCH   1   7
ATOM      7  C   UNL     1      44.243   3.421  10.873  0.00  0.00    +0.000 C 
BRANCH   7   8
ATOM      8  N   UNL     1      42.868   3.520  11.406  0.00  0.00    +0.000 NA
ATOM      9  H   UNL     1      42.211   3.182  10.703  0.00  0.00    +0.000 HD
ATOM     10  H   UNL     1      42.648   4.505  11.546  0.00  0.00    +0.000 HD
ENDBRANCH   7   8
BRANCH   7  11
ATOM     11  C   UNL     1      44.243   3.776   9.358  0.00  0.00    +0.000 C 
BRANCH  11  12
ATOM     12  C   UNL     1      45.287   3.070   8.514  0.00  0.00    +0.000 A 
ATOM     13  C   UNL     1      46.059   3.799   7.598  0.00  0.00    +0.000 A 
ATOM     14  C   UNL     1      47.064   3.173   6.858  0.00  0.00    +0.000 A 
ATOM     15  C   UNL     1      47.308   1.811   7.025  0.00  0.00    +0.000 A 
ATOM     16  C   UNL     1      46.541   1.074   7.925  0.00  0.00    +0.000 A 
ATOM     17  C   UNL     1      45.536   1.699   8.668  0.00  0.00    +0.000 A 
ENDBRANCH  11  12
ENDBRANCH   7  11
ENDBRANCH   1   7
BRANCH   4  18
ATOM     18  C   UNL     1      48.028   6.735  13.917  0.00  0.00    +0.000 C 
BRANCH  18  19
ATOM     19  N   UNL     1      48.399   7.900  13.160  0.00  0.00    +0.000 N 
ATOM     20  C   UNL     1      48.979   8.985  13.765  0.00  0.00    +0.000 C 
ATOM     21  O   UNL     1      49.244   9.002  14.964  0.00  0.00    +0.000 OA
ATOM     22  H   UNL     1      47.986   7.999  12.238  0.00  0.00    +0.000 HD
BRANCH  20  23
ATOM     23  C   UNL     1      49.327  10.109  12.885  0.00  0.00    +0.000 A 
ATOM     24  C   UNL     1      50.626  10.594  12.869  0.00  0.00    +0.000 A 
ATOM     25  S   UNL     1      50.867  11.865  11.758  0.00  0.00    +0.000 S 
ATOM     26  C   UNL     1      49.230  11.844  11.295  0.00  0.00    +0.000 A 
ATOM     27  N   UNL     1      48.752  12.723  10.372  0.00  0.00    +0.000 NA
ATOM     28  C   UNL     1      47.488  12.609  10.133  0.00  0.00    +0.000 A 
ATOM     29  N   UNL     1      46.659  11.695  10.729  0.00  0.00    +0.000 N 
ATOM     30  C   UNL     1      47.102  10.773  11.647  0.00  0.00    +0.000 A 
ATOM     31  O   UNL     1      46.338   9.946  12.130  0.00  0.00    +0.000 OA
ATOM     32  C   UNL     1      48.515  10.866  11.962  0.00  0.00    +0.000 A 
ATOM     33  H   UNL     1      45.680  11.648  10.489  0.00  0.00    +0.000 HD
ENDBRANCH  20  23
ENDBRANCH  18  19
ENDBRANCH   4  18
TORSDOF 7
ENDMDL
MODEL 6
REMARK VINA RESULT:    -7.196      3.475      5.220
REMARK INTER + INTRA:         -11.029
REMARK INTER:                  -9.736
REMARK INTRA:                  -1.293
REMARK UNBOUND:                -1.099
REMARK  Name = 
REMARK  7 active torsions:
REMARK  status: ('A' for Active; 'I' for Inactive)
REMARK    1  A    between atoms: N_1  and  C_2
REMARK    2  A    between atoms: C_2  and  C_3
REMARK    3  A    between atoms: C_2  and  C_10
REMARK    4  A    between atoms: C_3  and  C_4
REMARK    5  A    between atoms: C_13  and  C_14
REMARK    6  A    between atoms: C_14  and  N_15
REMARK    7  A    between atoms: C_16  and  C_18
REMARK                            x       y       z     vdW  Elec       q    Type
REMARK                         _______ _______ _______ _____ _____    ______ ____
ROOT
ATOM      1  C   UNL     1      45.158   4.371  11.716  0.00  0.00    +0.000 A 
ATOM      2  C   UNL     1      45.411   5.709  11.361  0.00  0.00    +0.000 A 
ATOM      3  C   UNL     1      46.316   6.500  12.076  0.00  0.00    +0.000 A 
ATOM      4  C   UNL     1      46.983   5.981  13.187  0.00  0.00    +0.000 A 
ATOM      5  C   UNL     1      46.669   4.685  13.610  0.00  0.00    +0.000 A 
ATOM      6  C   UNL     1      45.772   3.890  12.883  0.00  0.00    +0.000 A 
ENDROOT
BRANCH   1   7
ATOM      7  C   UNL     1      44.202   3.526  10.865  0.00  0.00    +0.000 C 
BRANCH   7   8
ATOM      8  N   UNL     1      42.819   3.664  11.370  0.00  0.00    +0.000 NA
ATOM      9  H   UNL     1      42.168   3.331  10.659  0.00  0.00    +0.000 HD
ATOM     10  H   UNL     1      42.620   4.655  11.491  0.00  0.00    +0.000 HD
ENDBRANCH   7   8
BRANCH   7  11
ATOM     11  C   UNL     1      44.239   3.858   9.345  0.00  0.00    +0.000 C 
BRANCH  11  12
ATOM     12  C   UNL     1      45.298   3.136   8.536  0.00  0.00    +0.000 A 
ATOM     13  C   UNL     1      46.127   3.855   7.662  0.00  0.00    +0.000 A 
ATOM     14  C   UNL     1      47.145   3.211   6.956  0.00  0.00    +0.000 A 
ATOM     15  C   UNL     1      47.345   1.841   7.114  0.00  0.00    +0.000 A 
ATOM     16  C   UNL     1      46.522   1.114   7.972  0.00  0.00    +0.000 A 
ATOM     17  C   UNL     1      45.504   1.756   8.680  0.00  0.00    +0.000 A 
ENDBRANCH  11  12
ENDBRANCH   7  11
ENDBRANCH   1   7
BRANCH   4  18
ATOM     18  C   UNL     1      47.999   6.806  13.931  0.00  0.00    +0.000 C 
BRANCH  18  19
ATOM     19  N   UNL     1      48.411   7.947  13.159  0.00  0.00    +0.000 N 
ATOM     20  C   UNL     1      48.953   9.053  13.761  0.00  0.00    +0.000 C 
ATOM     21  O   UNL     1      49.147   9.111  14.972  0.00  0.00    +0.000 OA
ATOM     22  H   UNL     1      48.054   8.014  12.211  0.00  0.00    +0.000 HD
BRANCH  20  23
ATOM     23  C   UNL     1      49.351  10.149  12.867  0.00  0.00    +0.000 A 
ATOM     24  C   UNL     1      48.717  11.379  12.960  0.00  0.00    +0.000 A 
ATOM     25  S   UNL     1      49.335  12.549  11.884  0.00  0.00    +0.000 S 
ATOM     26  C   UNL     1      50.438  11.436  11.221  0.00  0.00    +0.000 A 
ATOM     27  N   UNL     1      51.273  11.796  10.208  0.00  0.00    +0.000 NA
ATOM     28  C   UNL     1      52.040  10.846   9.786  0.00  0.00    +0.000 A 
ATOM     29  N   UNL     1      52.051   9.571  10.287  0.00  0.00    +0.000 N 
ATOM     30  C   UNL     1      51.244   9.169  11.324  0.00  0.00    +0.000 A 
ATOM     31  O   UNL     1      51.310   8.030  11.771  0.00  0.00    +0.000 OA
ATOM     32  C   UNL     1      50.352  10.196  11.828  0.00  0.00    +0.000 A 
ATOM     33  H   UNL     1      52.685   8.876   9.922  0.00  0.00    +0.000 HD
ENDBRANCH  20  23
ENDBRANCH  18  19
ENDBRANCH   4  18
TORSDOF 7
ENDMDL
MODEL 7
REMARK VINA RESULT:    -7.082      2.523      3.433
REMARK INTER + INTRA:         -10.872
REMARK INTER:                  -9.586
REMARK INTRA:                  -1.286
REMARK UNBOUND:                -1.099
REMARK  Name = 
REMARK  7 active torsions:
REMARK  status: ('A' for Active; 'I' for Inactive)
REMARK    1  A    between atoms: N_1  and  C_2
REMARK    2  A    between atoms: C_2  and  C_3
REMARK    3  A    between atoms: C_2  and  C_10
REMARK    4  A    between atoms: C_3  and  C_4
REMARK    5  A    between atoms: C_13  and  C_14
REMARK    6  A    between atoms: C_14  and  N_15
REMARK    7  A    between atoms: C_16  and  C_18
REMARK                            x       y       z     vdW  Elec       q    Type
REMARK                         _______ _______ _______ _____ _____    ______ ____
ROOT
ATOM      1  C   UNL     1      45.109   5.595  12.778  0.00  0.00    +0.000 A 
ATOM      2  C   UNL     1      45.284   6.954  12.457  0.00  0.00    +0.000 A 
ATOM      3  C   UNL     1      46.466   7.636  12.763  0.00  0.00    +0.000 A 
ATOM      4  C   UNL     1      47.508   6.981  13.424  0.00  0.00    +0.000 A 
ATOM      5  C   UNL     1      47.311   5.659  13.835  0.00  0.00    +0.000 A 
ATOM      6  C   UNL     1      46.131   4.975  13.515  0.00  0.00    +0.000 A 
ENDROOT
BRANCH   1   7
ATOM      7  C   UNL     1      43.818   4.876  12.368  0.00  0.00    +0.000 C 
BRANCH   7   8
ATOM      8  N   UNL     1      42.690   5.351  13.197  0.00  0.00    +0.000 NA
ATOM      9  H   UNL     1      41.812   5.082  12.754  0.00  0.00    +0.000 HD
ATOM     10  H   UNL     1      42.702   6.370  13.202  0.00  0.00    +0.000 HD
ENDBRANCH   7   8
BRANCH   7  11
ATOM     11  C   UNL     1      43.458   5.023  10.862  0.00  0.00    +0.000 C 
BRANCH  11  12
ATOM     12  C   UNL     1      44.215   4.117   9.910  0.00  0.00    +0.000 A 
ATOM     13  C   UNL     1      45.036   4.670   8.917  0.00  0.00    +0.000 A 
ATOM     14  C   UNL     1      45.784   3.847   8.073  0.00  0.00    +0.000 A 
ATOM     15  C   UNL     1      45.719   2.462   8.211  0.00  0.00    +0.000 A 
ATOM     16  C   UNL     1      44.900   1.899   9.188  0.00  0.00    +0.000 A 
ATOM     17  C   UNL     1      44.151   2.721  10.035  0.00  0.00    +0.000 A 
ENDBRANCH  11  12
ENDBRANCH   7  11
ENDBRANCH   1   7
BRANCH   4  18
ATOM     18  C   UNL     1      48.804   7.690  13.710  0.00  0.00    +0.000 C 
BRANCH  18  19
ATOM     19  N   UNL     1      49.647   6.908  14.573  0.00  0.00    +0.000 N 
ATOM     20  C   UNL     1      49.675   7.126  15.926  0.00  0.00    +0.000 C 
ATOM     21  O   UNL     1      48.960   7.963  16.470  0.00  0.00    +0.000 OA
ATOM     22  H   UNL     1      50.398   6.386  14.132  0.00  0.00    +0.000 HD
BRANCH  20  23
ATOM     23  C   UNL     1      50.563   6.253  16.706  0.00  0.00    +0.000 A 
ATOM     24  C   UNL     1      50.029   5.405  17.665  0.00  0.00    +0.000 A 
ATOM     25  S   UNL     1      51.194   4.430  18.439  0.00  0.00    +0.000 S 
ATOM     26  C   UNL     1      52.460   5.144  17.555  0.00  0.00    +0.000 A 
ATOM     27  N   UNL     1      53.753   4.772  17.759  0.00  0.00    +0.000 NA
ATOM     28  C   UNL     1      54.612   5.411  17.037  0.00  0.00    +0.000 A 
ATOM     29  N   UNL     1      54.295   6.385  16.126  0.00  0.00    +0.000 N 
ATOM     30  C   UNL     1      53.003   6.775  15.869  0.00  0.00    +0.000 A 
ATOM     31  O   UNL     1      52.757   7.622  15.019  0.00  0.00    +0.000 OA
ATOM     32  C   UNL     1      51.998   6.096  16.665  0.00  0.00    +0.000 A 
ATOM     33  H   UNL     1      55.013   6.839  15.581  0.00  0.00    +0.000 HD
ENDBRANCH  20  23
ENDBRANCH  18  19
ENDBRANCH   4  18
TORSDOF 7
ENDMDL
MODEL 8
REMARK VINA RESULT:    -6.930      3.145      8.369
REMARK INTER + INTRA:         -10.662
REMARK INTER:                  -8.965
REMARK INTRA:                  -1.697
REMARK UNBOUND:                -1.099
REMARK  Name = 
REMARK  7 active torsions:
REMARK  status: ('A' for Active; 'I' for Inactive)
REMARK    1  A    between atoms: N_1  and  C_2
REMARK    2  A    between atoms: C_2  and  C_3
REMARK    3  A    between atoms: C_2  and  C_10
REMARK    4  A    between atoms: C_3  and  C_4
REMARK    5  A    between atoms: C_13  and  C_14
REMARK    6  A    between atoms: C_14  and  N_15
REMARK    7  A    between atoms: C_16  and  C_18
REMARK                            x       y       z     vdW  Elec       q    Type
REMARK                         _______ _______ _______ _____ _____    ______ ____
ROOT
ATOM      1  C   UNL     1      49.519   7.966  15.849  0.00  0.00    +0.000 A 
ATOM      2  C   UNL     1      48.370   8.737  15.596  0.00  0.00    +0.000 A 
ATOM      3  C   UNL     1      47.746   8.738  14.344  0.00  0.00    +0.000 A 
ATOM      4  C   UNL     1      48.269   7.980  13.295  0.00  0.00    +0.000 A 
ATOM      5  C   UNL     1      49.465   7.286  13.503  0.00  0.00    +0.000 A 
ATOM      6  C   UNL     1      50.080   7.276  14.762  0.00  0.00    +0.000 A 
ENDROOT
BRANCH   1   7
ATOM      7  C   UNL     1      50.132   7.952  17.255  0.00  0.00    +0.000 C 
BRANCH   7   8
ATOM      8  N   UNL     1      50.256   9.334  17.766  0.00  0.00    +0.000 NA
ATOM      9  H   UNL     1      50.973   9.360  18.490  0.00  0.00    +0.000 HD
ATOM     10  H   UNL     1      49.382   9.584  18.227  0.00  0.00    +0.000 HD
ENDBRANCH   7   8
BRANCH   7  11
ATOM     11  C   UNL     1      49.352   7.083  18.282  0.00  0.00    +0.000 C 
BRANCH  11  12
ATOM     12  C   UNL     1      49.112   5.640  17.880  0.00  0.00    +0.000 A 
ATOM     13  C   UNL     1      47.859   5.246  17.389  0.00  0.00    +0.000 A 
ATOM     14  C   UNL     1      47.643   3.935  16.959  0.00  0.00    +0.000 A 
ATOM     15  C   UNL     1      48.677   3.003  17.018  0.00  0.00    +0.000 A 
ATOM     16  C   UNL     1      49.925   3.379  17.513  0.00  0.00    +0.000 A 
ATOM     17  C   UNL     1      50.143   4.691  17.942  0.00  0.00    +0.000 A 
ENDBRANCH  11  12
ENDBRANCH   7  11
ENDBRANCH   1   7
BRANCH   4  18
ATOM     18  C   UNL     1      47.576   7.931  11.960  0.00  0.00    +0.000 C 
BRANCH  18  19
ATOM     19  N   UNL     1      46.897   6.677  11.770  0.00  0.00    +0.000 N 
ATOM     20  C   UNL     1      45.531   6.590  11.851  0.00  0.00    +0.000 C 
ATOM     21  O   UNL     1      44.823   7.573  12.048  0.00  0.00    +0.000 OA
ATOM     22  H   UNL     1      47.460   5.835  11.837  0.00  0.00    +0.000 HD
BRANCH  20  23
ATOM     23  C   UNL     1      44.951   5.260  11.622  0.00  0.00    +0.000 A 
ATOM     24  C   UNL     1      44.267   4.621  12.646  0.00  0.00    +0.000 A 
ATOM     25  S   UNL     1      43.618   3.110  12.195  0.00  0.00    +0.000 S 
ATOM     26  C   UNL     1      44.273   3.234  10.629  0.00  0.00    +0.000 A 
ATOM     27  N   UNL     1      44.106   2.236   9.719  0.00  0.00    +0.000 NA
ATOM     28  C   UNL     1      44.675   2.453   8.580  0.00  0.00    +0.000 A 
ATOM     29  N   UNL     1      45.392   3.578   8.267  0.00  0.00    +0.000 N 
ATOM     30  C   UNL     1      45.566   4.621   9.144  0.00  0.00    +0.000 A 
ATOM     31  O   UNL     1      46.181   5.628   8.815  0.00  0.00    +0.000 OA
ATOM     32  C   UNL     1      44.957   4.422  10.446  0.00  0.00    +0.000 A 
ATOM     33  H   UNL     1      45.802   3.694   7.352  0.00  0.00    +0.000 HD
ENDBRANCH  20  23
ENDBRANCH  18  19
ENDBRANCH   4  18
TORSDOF 7
ENDMDL
MODEL 9
REMARK VINA RESULT:    -6.799      3.529      7.951
REMARK INTER + INTRA:         -10.481
REMARK INTER:                  -8.428
REMARK INTRA:                  -2.053
REMARK UNBOUND:                -1.099
REMARK  Name = 
REMARK  7 active torsions:
REMARK  status: ('A' for Active; 'I' for Inactive)
REMARK    1  A    between atoms: N_1  and  C_2
REMARK    2  A    between atoms: C_2  and  C_3
REMARK    3  A    between atoms: C_2  and  C_10
REMARK    4  A    between atoms: C_3  and  C_4
REMARK    5  A    between atoms: C_13  and  C_14
REMARK    6  A    between atoms: C_14  and  N_15
REMARK    7  A    between atoms: C_16  and  C_18
REMARK                            x       y       z     vdW  Elec       q    Type
REMARK                         _______ _______ _______ _____ _____    ______ ____
ROOT
ATOM      1  C   UNL     1      50.322   6.743  17.930  0.00  0.00    +0.000 A 
ATOM      2  C   UNL     1      49.334   7.696  18.241  0.00  0.00    +0.000 A 
ATOM      3  C   UNL     1      48.665   8.413  17.244  0.00  0.00    +0.000 A 
ATOM      4  C   UNL     1      48.979   8.213  15.898  0.00  0.00    +0.000 A 
ATOM      5  C   UNL     1      50.026   7.341  15.580  0.00  0.00    +0.000 A 
ATOM      6  C   UNL     1      50.685   6.614  16.580  0.00  0.00    +0.000 A 
ENDROOT
BRANCH   1   7
ATOM      7  C   UNL     1      50.985   5.940  19.055  0.00  0.00    +0.000 C 
BRANCH   7   8
ATOM      8  N   UNL     1      51.323   6.834  20.183  0.00  0.00    +0.000 NA
ATOM      9  H   UNL     1      50.536   7.456  20.365  0.00  0.00    +0.000 HD
ATOM     10  H   UNL     1      52.095   7.434  19.896  0.00  0.00    +0.000 HD
ENDBRANCH   7   8
BRANCH   7  11
ATOM     11  C   UNL     1      50.134   4.745  19.573  0.00  0.00    +0.000 C 
BRANCH  11  12
ATOM     12  C   UNL     1      49.407   3.942  18.511  0.00  0.00    +0.000 A 
ATOM     13  C   UNL     1      48.041   4.159  18.278  0.00  0.00    +0.000 A 
ATOM     14  C   UNL     1      47.374   3.469  17.264  0.00  0.00    +0.000 A 
ATOM     15  C   UNL     1      48.065   2.554  16.472  0.00  0.00    +0.000 A 
ATOM     16  C   UNL     1      49.420   2.323  16.699  0.00  0.00    +0.000 A 
ATOM     17  C   UNL     1      50.090   3.013  17.713  0.00  0.00    +0.000 A 
ENDBRANCH  11  12
ENDBRANCH   7  11
ENDBRANCH   1   7
BRANCH   4  18
ATOM     18  C   UNL     1      48.228   8.939  14.815  0.00  0.00    +0.000 C 
BRANCH  18  19
ATOM     19  N   UNL     1      47.203   8.108  14.244  0.00  0.00    +0.000 N 
ATOM     20  C   UNL     1      47.058   7.994  12.885  0.00  0.00    +0.000 C 
ATOM     21  O   UNL     1      47.811   8.557  12.096  0.00  0.00    +0.000 OA
ATOM     22  H   UNL     1      46.443   7.829  14.856  0.00  0.00    +0.000 HD
BRANCH  20  23
ATOM     23  C   UNL     1      45.985   7.104  12.420  0.00  0.00    +0.000 A 
ATOM     24  C   UNL     1      44.916   7.627  11.708  0.00  0.00    +0.000 A 
ATOM     25  S   UNL     1      43.789   6.450  11.205  0.00  0.00    +0.000 S 
ATOM     26  C   UNL     1      44.667   5.206  11.965  0.00  0.00    +0.000 A 
ATOM     27  N   UNL     1      44.224   3.919  11.938  0.00  0.00    +0.000 NA
ATOM     28  C   UNL     1      44.975   3.083  12.574  0.00  0.00    +0.000 A 
ATOM     29  N   UNL     1      46.132   3.416  13.231  0.00  0.00    +0.000 N 
ATOM     30  C   UNL     1      46.629   4.696  13.264  0.00  0.00    +0.000 A 
ATOM     31  O   UNL     1      47.687   4.947  13.829  0.00  0.00    +0.000 OA
ATOM     32  C   UNL     1      45.815   5.678  12.574  0.00  0.00    +0.000 A 
ATOM     33  H   UNL     1      46.683   2.712  13.699  0.00  0.00    +0.000 HD
ENDBRANCH  20  23
ENDBRANCH  18  19
ENDBRANCH   4  18
TORSDOF 7
ENDMDL
