MODEL 1
REMARK VINA RESULT:    -8.245      0.000      0.000
REMARK INTER + INTRA:         -12.352
REMARK INTER:                 -11.619
REMARK INTRA:                  -0.734
REMARK UNBOUND:                -0.734
REMARK  Name = 
REMARK  9 active torsions:
REMARK  status: ('A' for Active; 'I' for Inactive)
REMARK    1  A    between atoms: C_1  and  C_2
REMARK    2  A    between atoms: C_5  and  C_6
REMARK    3  A    between atoms: N_8  and  C_9
REMARK    4  A    between atoms: C_9  and  C_10
REMARK    5  A    between atoms: C_13  and  O_14
REMARK    6  A    between atoms: O_14  and  C_15
REMARK    7  A    between atoms: C_15  and  C_16
REMARK    8  A    between atoms: C_16  and  C_17
REMARK    9  A    between atoms: C_28  and  C_29
REMARK                            x       y       z     vdW  Elec       q    Type
REMARK                         _______ _______ _______ _____ _____    ______ ____
ROOT
ATOM      1  C   UNL     1      47.803   6.625  13.824  0.00  0.00    +0.000 C 
ENDROOT
BRANCH   1   2
ATOM      2  C   UNL     1      46.789   5.991  12.896  0.00  0.00    +0.000 A 
ATOM      3  C   UNL     1      46.125   4.822  13.286  0.00  0.00    +0.000 A 
ATOM      4  C   UNL     1      45.134   4.251  12.479  0.00  0.00    +0.000 A 
ATOM      5  C   UNL     1      44.791   4.839  11.260  0.00  0.00    +0.000 A 
ATOM      6  C   UNL     1      45.461   5.991  10.853  0.00  0.00    +0.000 A 
ATOM      7  C   UNL     1      46.453   6.563  11.661  0.00  0.00    +0.000 A 
BRANCH   5   8
ATOM      8  O   UNL     1      43.854   4.358  10.376  0.00  0.00    +0.000 OA
BRANCH   8   9
ATOM      9  C   UNL     1      44.311   3.284   9.552  0.00  0.00    +0.000 C 
BRANCH   9  10
ATOM     10  C   UNL     1      44.797   3.827   8.207  0.00  0.00    +0.000 C 
BRANCH  10  11
ATOM     11  C   UNL     1      45.837   2.940   7.558  0.00  0.00    +0.000 A 
ATOM     12  C   UNL     1      46.182   1.697   8.108  0.00  0.00    +0.000 A 
ATOM     13  C   UNL     1      47.103   0.864   7.461  0.00  0.00    +0.000 A 
ATOM     14  C   UNL     1      47.697   1.271   6.269  0.00  0.00    +0.000 A 
ATOM     15  C   UNL     1      47.388   2.521   5.735  0.00  0.00    +0.000 A 
ATOM     16  C   UNL     1      46.470   3.353   6.379  0.00  0.00    +0.000 A 
ENDBRANCH  10  11
ENDBRANCH   9  10
ENDBRANCH   8   9
ENDBRANCH   5   8
ENDBRANCH   1   2
BRANCH   1  19
ATOM     17  C   UNL     1      48.901   6.154  15.967  0.00  0.00    +0.000 C 
ATOM     18  O   UNL     1      49.988   6.553  15.563  0.00  0.00    +0.000 OA
ATOM     19  N   UNL     1      47.759   6.154  15.181  0.00  0.00    +0.000 N 
ATOM     20  H   UNL     1      46.904   5.760  15.576  0.00  0.00    +0.000 HD
BRANCH  17  25
ATOM     21  C   UNL     1      47.297   8.769  20.874  0.00  0.00    +0.000 C 
ATOM     22  C   UNL     1      47.694   7.556  20.129  0.00  0.00    +0.000 A 
ATOM     23  N   UNL     1      47.995   7.644  18.769  0.00  0.00    +0.000 NA
ATOM     24  C   UNL     1      48.297   6.407  18.449  0.00  0.00    +0.000 A 
ATOM     25  C   UNL     1      48.691   5.622  17.348  0.00  0.00    +0.000 C 
ATOM     26  C   UNL     1      48.802   4.365  17.863  0.00  0.00    +0.000 C 
ATOM     27  N   UNL     1      48.526   4.199  19.202  0.00  0.00    +0.000 NA
ATOM     28  N   UNL     1      48.206   5.573  19.507  0.00  0.00    +0.000 N 
ATOM     29  C   UNL     1      47.815   6.251  20.613  0.00  0.00    +0.000 A 
ATOM     30  C   UNL     1      47.592   5.678  21.950  0.00  0.00    +0.000 C 
ENDBRANCH  17  25
ENDBRANCH   1  19
TORSDOF 7
ENDMDL
MODEL 2
REMARK VINA RESULT:    -8.223      1.663      2.376
REMARK INTER + INTRA:         -12.321
REMARK INTER:                 -11.136
REMARK INTRA:                  -1.185
REMARK UNBOUND:                -0.734
REMARK  Name = 
REMARK  9 active torsions:
REMARK  status: ('A' for Active; 'I' for Inactive)
REMARK    1  A    between atoms: C_1  and  C_2
REMARK    2  A    between atoms: C_5  and  C_6
REMARK    3  A    between atoms: N_8  and  C_9
REMARK    4  A    between atoms: C_9  and  C_10
REMARK    5  A    between atoms: C_13  and  O_14
REMARK    6  A    between atoms: O_14  and  C_15
REMARK    7  A    between atoms: C_15  and  C_16
REMARK    8  A    between atoms: C_16  and  C_17
REMARK    9  A    between atoms: C_28  and  C_29
REMARK                            x       y       z     vdW  Elec       q    Type
REMARK                         _______ _______ _______ _____ _____    ______ ____
ROOT
ATOM      1  C   UNL     1      47.269   7.153  12.723  0.00  0.00    +0.000 C 
ENDROOT
BRANCH   1   2
ATOM      2  C   UNL     1      46.442   6.041  12.116  0.00  0.00    +0.000 A 
ATOM      3  C   UNL     1      46.141   4.904  12.875  0.00  0.00    +0.000 A 
ATOM      4  C   UNL     1      45.323   3.889  12.364  0.00  0.00    +0.000 A 
ATOM      5  C   UNL     1      44.790   3.993  11.078  0.00  0.00    +0.000 A 
ATOM      6  C   UNL     1      45.100   5.111  10.306  0.00  0.00    +0.000 A 
ATOM      7  C   UNL     1      45.920   6.127  10.817  0.00  0.00    +0.000 A 
BRANCH   5   8
ATOM      8  O   UNL     1      43.995   3.054  10.464  0.00  0.00    +0.000 OA
BRANCH   8   9
ATOM      9  C   UNL     1      44.318   2.808   9.093  0.00  0.00    +0.000 C 
BRANCH   9  10
ATOM     10  C   UNL     1      45.569   1.934   8.999  0.00  0.00    +0.000 C 
BRANCH  10  11
ATOM     11  C   UNL     1      46.301   2.098   7.684  0.00  0.00    +0.000 A 
ATOM     12  C   UNL     1      47.057   1.053   7.135  0.00  0.00    +0.000 A 
ATOM     13  C   UNL     1      47.678   1.203   5.889  0.00  0.00    +0.000 A 
ATOM     14  C   UNL     1      47.561   2.401   5.189  0.00  0.00    +0.000 A 
ATOM     15  C   UNL     1      46.842   3.458   5.744  0.00  0.00    +0.000 A 
ATOM     16  C   UNL     1      46.223   3.311   6.987  0.00  0.00    +0.000 A 
ENDBRANCH  10  11
ENDBRANCH   9  10
ENDBRANCH   8   9
ENDBRANCH   5   8
ENDBRANCH   1   2
BRANCH   1  19
ATOM     17  C   UNL     1      48.823   7.519  14.586  0.00  0.00    +0.000 C 
ATOM     18  O   UNL     1      49.548   8.245  13.913  0.00  0.00    +0.000 OA
ATOM     19  N   UNL     1      47.670   6.935  14.086  0.00  0.00    +0.000 N 
ATOM     20  H   UNL     1      47.147   6.305  14.695  0.00  0.00    +0.000 HD
BRANCH  17  25
ATOM     21  C   UNL     1      47.589   2.821  17.732  0.00  0.00    +0.000 C 
ATOM     22  C   UNL     1      48.183   4.168  17.604  0.00  0.00    +0.000 A 
ATOM     23  N   UNL     1      48.112   4.845  16.386  0.00  0.00    +0.000 NA
ATOM     24  C   UNL     1      48.727   5.978  16.636  0.00  0.00    +0.000 A 
ATOM     25  C   UNL     1      49.106   7.184  16.015  0.00  0.00    +0.000 C 
ATOM     26  C   UNL     1      49.747   7.875  17.000  0.00  0.00    +0.000 C 
ATOM     27  N   UNL     1      49.852   7.273  18.234  0.00  0.00    +0.000 NA
ATOM     28  N   UNL     1      49.165   6.045  17.912  0.00  0.00    +0.000 N 
ATOM     29  C   UNL     1      48.852   4.909  18.581  0.00  0.00    +0.000 A 
ATOM     30  C   UNL     1      49.179   4.610  19.985  0.00  0.00    +0.000 C 
ENDBRANCH  17  25
ENDBRANCH   1  19
TORSDOF 7
ENDMDL
MODEL 3
REMARK VINA RESULT:    -7.976      1.332      1.938
REMARK INTER + INTRA:         -11.974
REMARK INTER:                 -10.808
REMARK INTRA:                  -1.166
REMARK UNBOUND:                -0.734
REMARK  Name = 
REMARK  9 active torsions:
REMARK  status: ('A' for Active; 'I' for Inactive)
REMARK    1  A    between atoms: C_1  and  C_2
REMARK    2  A    between atoms: C_5  and  C_6
REMARK    3  A    between atoms: N_8  and  C_9
REMARK    4  A    between atoms: C_9  and  C_10
REMARK    5  A    between atoms: C_13  and  O_14
REMARK    6  A    between atoms: O_14  and  C_15
REMARK    7  A    between atoms: C_15  and  C_16
REMARK    8  A    between atoms: C_16  and  C_17
REMARK    9  A    between atoms: C_28  and  C_29
REMARK                            x       y       z     vdW  Elec       q    Type
REMARK                         _______ _______ _______ _____ _____    ______ ____
ROOT
ATOM      1  C   UNL     1      48.457   6.741  13.891  0.00  0.00    +0.000 C 
ENDROOT
BRANCH   1   2
ATOM      2  C   UNL     1      47.298   6.088  13.169  0.00  0.00    +0.000 A 
ATOM      3  C   UNL     1      46.792   4.867  13.629  0.00  0.00    +0.000 A 
ATOM      4  C   UNL     1      45.679   4.272  13.024  0.00  0.00    +0.000 A 
ATOM      5  C   UNL     1      45.051   4.889  11.939  0.00  0.00    +0.000 A 
ATOM      6  C   UNL     1      45.560   6.095  11.461  0.00  0.00    +0.000 A 
ATOM      7  C   UNL     1      46.675   6.691  12.068  0.00  0.00    +0.000 A 
BRANCH   5   8
ATOM      8  O   UNL     1      43.969   4.391  11.253  0.00  0.00    +0.000 OA
BRANCH   8   9
ATOM      9  C   UNL     1      44.177   4.241   9.846  0.00  0.00    +0.000 C 
BRANCH   9  10
ATOM     10  C   UNL     1      44.451   2.774   9.512  0.00  0.00    +0.000 C 
BRANCH  10  11
ATOM     11  C   UNL     1      45.513   2.604   8.448  0.00  0.00    +0.000 A 
ATOM     12  C   UNL     1      46.170   1.380   8.261  0.00  0.00    +0.000 A 
ATOM     13  C   UNL     1      47.107   1.224   7.233  0.00  0.00    +0.000 A 
ATOM     14  C   UNL     1      47.406   2.293   6.391  0.00  0.00    +0.000 A 
ATOM     15  C   UNL     1      46.785   3.525   6.593  0.00  0.00    +0.000 A 
ATOM     16  C   UNL     1      45.851   3.682   7.619  0.00  0.00    +0.000 A 
ENDBRANCH  10  11
ENDBRANCH   9  10
ENDBRANCH   8   9
ENDBRANCH   5   8
ENDBRANCH   1   2
BRANCH   1  19
ATOM     17  C   UNL     1      48.803   6.441  16.301  0.00  0.00    +0.000 C 
ATOM     18  O   UNL     1      49.597   5.521  16.130  0.00  0.00    +0.000 OA
ATOM     19  N   UNL     1      48.190   7.111  15.254  0.00  0.00    +0.000 N 
ATOM     20  H   UNL     1      47.505   7.832  15.481  0.00  0.00    +0.000 HD
BRANCH  17  25
ATOM     21  C   UNL     1      47.478  11.745  18.202  0.00  0.00    +0.000 C 
ATOM     22  C   UNL     1      47.665  10.298  18.440  0.00  0.00    +0.000 A 
ATOM     23  N   UNL     1      48.056   9.466  17.390  0.00  0.00    +0.000 NA
ATOM     24  C   UNL     1      48.120   8.282  17.955  0.00  0.00    +0.000 A 
ATOM     25  C   UNL     1      48.411   6.937  17.656  0.00  0.00    +0.000 C 
ATOM     26  C   UNL     1      48.236   6.291  18.843  0.00  0.00    +0.000 C 
ATOM     27  N   UNL     1      47.855   7.047  19.929  0.00  0.00    +0.000 NA
ATOM     28  N   UNL     1      47.802   8.328  19.266  0.00  0.00    +0.000 N 
ATOM     29  C   UNL     1      47.492   9.595  19.634  0.00  0.00    +0.000 A 
ATOM     30  C   UNL     1      47.080  10.033  20.978  0.00  0.00    +0.000 C 
ENDBRANCH  17  25
ENDBRANCH   1  19
TORSDOF 7
ENDMDL
MODEL 4
REMARK VINA RESULT:    -7.757      2.015      3.385
REMARK INTER + INTRA:         -11.664
REMARK INTER:                 -10.548
REMARK INTRA:                  -1.116
REMARK UNBOUND:                -0.734
REMARK  Name = 
REMARK  9 active torsions:
REMARK  status: ('A' for Active; 'I' for Inactive)
REMARK    1  A    between atoms: C_1  and  C_2
REMARK    2  A    between atoms: C_5  and  C_6
REMARK    3  A    between atoms: N_8  and  C_9
REMARK    4  A    between atoms: C_9  and  C_10
REMARK    5  A    between atoms: C_13  and  O_14
REMARK    6  A    between atoms: O_14  and  C_15
REMARK    7  A    between atoms: C_15  and  C_16
REMARK    8  A    between atoms: C_16  and  C_17
REMARK    9  A    between atoms: C_28  and  C_29
REMARK                            x       y       z     vdW  Elec       q    Type
REMARK                         _______ _______ _______ _____ _____    ______ ____
ROOT
ATOM      1  C   UNL     1      47.012   4.214  14.640  0.00  0.00    +0.000 C 
ENDROOT
BRANCH   1   2
ATOM      2  C   UNL     1      46.280   4.361  13.324  0.00  0.00    +0.000 A 
ATOM      3  C   UNL     1      45.637   3.254  12.758  0.00  0.00    +0.000 A 
ATOM      4  C   UNL     1      44.895   3.375  11.577  0.00  0.00    +0.000 A 
ATOM      5  C   UNL     1      44.785   4.611  10.936  0.00  0.00    +0.000 A 
ATOM      6  C   UNL     1      45.438   5.715  11.481  0.00  0.00    +0.000 A 
ATOM      7  C   UNL     1      46.181   5.594  12.664  0.00  0.00    +0.000 A 
BRANCH   5   8
ATOM      8  O   UNL     1      44.105   4.846   9.765  0.00  0.00    +0.000 OA
BRANCH   8   9
ATOM      9  C   UNL     1      44.406   3.929   8.710  0.00  0.00    +0.000 C 
BRANCH   9  10
ATOM     10  C   UNL     1      45.803   4.209   8.156  0.00  0.00    +0.000 C 
BRANCH  10  11
ATOM     11  C   UNL     1      46.339   3.070   7.316  0.00  0.00    +0.000 A 
ATOM     12  C   UNL     1      46.688   3.257   5.971  0.00  0.00    +0.000 A 
ATOM     13  C   UNL     1      47.239   2.207   5.227  0.00  0.00    +0.000 A 
ATOM     14  C   UNL     1      47.433   0.959   5.815  0.00  0.00    +0.000 A 
ATOM     15  C   UNL     1      47.054   0.754   7.141  0.00  0.00    +0.000 A 
ATOM     16  C   UNL     1      46.504   1.800   7.884  0.00  0.00    +0.000 A 
ENDBRANCH  10  11
ENDBRANCH   9  10
ENDBRANCH   8   9
ENDBRANCH   5   8
ENDBRANCH   1   2
BRANCH   1  19
ATOM     17  C   UNL     1      48.454   5.435  16.206  0.00  0.00    +0.000 C 
ATOM     18  O   UNL     1      48.944   4.401  16.649  0.00  0.00    +0.000 OA
ATOM     19  N   UNL     1      47.493   5.444  15.207  0.00  0.00    +0.000 N 
ATOM     20  H   UNL     1      47.099   6.343  14.927  0.00  0.00    +0.000 HD
BRANCH  17  25
ATOM     21  C   UNL     1      48.685  10.553  13.514  0.00  0.00    +0.000 C 
ATOM     22  C   UNL     1      48.853   9.724  14.725  0.00  0.00    +0.000 A 
ATOM     23  N   UNL     1      48.596   8.353  14.671  0.00  0.00    +0.000 NA
ATOM     24  C   UNL     1      48.843   7.953  15.897  0.00  0.00    +0.000 A 
ATOM     25  C   UNL     1      48.837   6.794  16.696  0.00  0.00    +0.000 C 
ATOM     26  C   UNL     1      49.234   7.237  17.923  0.00  0.00    +0.000 C 
ATOM     27  N   UNL     1      49.512   8.580  18.054  0.00  0.00    +0.000 NA
ATOM     28  N   UNL     1      49.232   8.972  16.694  0.00  0.00    +0.000 N 
ATOM     29  C   UNL     1      49.250  10.135  16.000  0.00  0.00    +0.000 A 
ATOM     30  C   UNL     1      49.607  11.460  16.535  0.00  0.00    +0.000 C 
ENDBRANCH  17  25
ENDBRANCH   1  19
TORSDOF 7
ENDMDL
MODEL 5
REMARK VINA RESULT:    -7.619      5.850      8.652
REMARK INTER + INTRA:         -11.470
REMARK INTER:                 -10.362
REMARK INTRA:                  -1.108
REMARK UNBOUND:                -0.734
REMARK  Name = 
REMARK  9 active torsions:
REMARK  status: ('A' for Active; 'I' for Inactive)
REMARK    1  A    between atoms: C_1  and  C_2
REMARK    2  A    between atoms: C_5  and  C_6
REMARK    3  A    between atoms: N_8  and  C_9
REMARK    4  A    between atoms: C_9  and  C_10
REMARK    5  A    between atoms: C_13  and  O_14
REMARK    6  A    between atoms: O_14  and  C_15
REMARK    7  A    between atoms: C_15  and  C_16
REMARK    8  A    between atoms: C_16  and  C_17
REMARK    9  A    between atoms: C_28  and  C_29
REMARK                            x       y       z     vdW  Elec       q    Type
REMARK                         _______ _______ _______ _____ _____    ______ ____
ROOT
ATOM      1  C   UNL     1      44.589   9.278  11.803  0.00  0.00    +0.000 C 
ENDROOT
BRANCH   1   2
ATOM      2  C   UNL     1      44.595   7.789  11.536  0.00  0.00    +0.000 A 
ATOM      3  C   UNL     1      45.804   7.084  11.554  0.00  0.00    +0.000 A 
ATOM      4  C   UNL     1      45.834   5.696  11.377  0.00  0.00    +0.000 A 
ATOM      5  C   UNL     1      44.649   4.985  11.174  0.00  0.00    +0.000 A 
ATOM      6  C   UNL     1      43.443   5.680  11.133  0.00  0.00    +0.000 A 
ATOM      7  C   UNL     1      43.413   7.070  11.311  0.00  0.00    +0.000 A 
BRANCH   5   8
ATOM      8  O   UNL     1      44.557   3.629  10.966  0.00  0.00    +0.000 OA
BRANCH   8   9
ATOM      9  C   UNL     1      44.291   3.252   9.613  0.00  0.00    +0.000 C 
BRANCH   9  10
ATOM     10  C   UNL     1      45.051   1.971   9.268  0.00  0.00    +0.000 C 
BRANCH  10  11
ATOM     11  C   UNL     1      45.941   2.127   8.054  0.00  0.00    +0.000 A 
ATOM     12  C   UNL     1      46.793   1.095   7.636  0.00  0.00    +0.000 A 
ATOM     13  C   UNL     1      47.564   1.234   6.476  0.00  0.00    +0.000 A 
ATOM     14  C   UNL     1      47.502   2.411   5.732  0.00  0.00    +0.000 A 
ATOM     15  C   UNL     1      46.687   3.456   6.161  0.00  0.00    +0.000 A 
ATOM     16  C   UNL     1      45.917   3.319   7.318  0.00  0.00    +0.000 A 
ENDBRANCH  10  11
ENDBRANCH   9  10
ENDBRANCH   8   9
ENDBRANCH   5   8
ENDBRANCH   1   2
BRANCH   1  19
ATOM     17  C   UNL     1      43.417  10.619  10.115  0.00  0.00    +0.000 C 
ATOM     18  O   UNL     1      44.390  10.631   9.367  0.00  0.00    +0.000 OA
ATOM     19  N   UNL     1      43.418   9.972  11.341  0.00  0.00    +0.000 N 
ATOM     20  H   UNL     1      42.586  10.050  11.926  0.00  0.00    +0.000 HD
BRANCH  17  25
ATOM     21  C   UNL     1      37.974   9.515  11.743  0.00  0.00    +0.000 C 
ATOM     22  C   UNL     1      38.958  10.323  10.992  0.00  0.00    +0.000 A 
ATOM     23  N   UNL     1      40.311   9.986  11.034  0.00  0.00    +0.000 NA
ATOM     24  C   UNL     1      40.871  10.898  10.272  0.00  0.00    +0.000 A 
ATOM     25  C   UNL     1      42.129  11.303   9.787  0.00  0.00    +0.000 C 
ATOM     26  C   UNL     1      41.850  12.394   9.019  0.00  0.00    +0.000 C 
ATOM     27  N   UNL     1      40.533  12.785   8.923  0.00  0.00    +0.000 NA
ATOM     28  N   UNL     1      39.964  11.761   9.766  0.00  0.00    +0.000 N 
ATOM     29  C   UNL     1      38.719  11.448  10.199  0.00  0.00    +0.000 A 
ATOM     30  C   UNL     1      37.478  12.171   9.873  0.00  0.00    +0.000 C 
ENDBRANCH  17  25
ENDBRANCH   1  19
TORSDOF 7
ENDMDL
MODEL 6
REMARK VINA RESULT:    -7.571      4.116      6.853
REMARK INTER + INTRA:         -11.403
REMARK INTER:                 -10.092
REMARK INTRA:                  -1.311
REMARK UNBOUND:                -0.734
REMARK  Name = 
REMARK  9 active torsions:
REMARK  status: ('A' for Active; 'I' for Inactive)
REMARK    1  A    between atoms: C_1  and  C_2
REMARK    2  A    between atoms: C_5  and  C_6
REMARK    3  A    between atoms: N_8  and  C_9
REMARK    4  A    between atoms: C_9  and  C_10
REMARK    5  A    between atoms: C_13  and  O_14
REMARK    6  A    between atoms: O_14  and  C_15
REMARK    7  A    between atoms: C_15  and  C_16
REMARK    8  A    between atoms: C_16  and  C_17
REMARK    9  A    between atoms: C_28  and  C_29
REMARK                            x       y       z     vdW  Elec       q    Type
REMARK                         _______ _______ _______ _____ _____    ______ ____
ROOT
ATOM      1  C   UNL     1      48.657   6.547  13.494  0.00  0.00    +0.000 C 
ENDROOT
BRANCH   1   2
ATOM      2  C   UNL     1      47.375   6.041  12.870  0.00  0.00    +0.000 A 
ATOM      3  C   UNL     1      46.943   6.565  11.646  0.00  0.00    +0.000 A 
ATOM      4  C   UNL     1      45.797   6.070  11.012  0.00  0.00    +0.000 A 
ATOM      5  C   UNL     1      45.058   5.039  11.595  0.00  0.00    +0.000 A 
ATOM      6  C   UNL     1      45.467   4.525  12.824  0.00  0.00    +0.000 A 
ATOM      7  C   UNL     1      46.615   5.021  13.459  0.00  0.00    +0.000 A 
BRANCH   5   8
ATOM      8  O   UNL     1      43.908   4.489  11.079  0.00  0.00    +0.000 OA
BRANCH   8   9
ATOM      9  C   UNL     1      43.991   4.128   9.698  0.00  0.00    +0.000 C 
BRANCH   9  10
ATOM     10  C   UNL     1      44.538   2.707   9.560  0.00  0.00    +0.000 C 
BRANCH  10  11
ATOM     11  C   UNL     1      45.543   2.573   8.437  0.00  0.00    +0.000 A 
ATOM     12  C   UNL     1      45.854   3.656   7.602  0.00  0.00    +0.000 A 
ATOM     13  C   UNL     1      46.830   3.529   6.607  0.00  0.00    +0.000 A 
ATOM     14  C   UNL     1      47.493   2.317   6.426  0.00  0.00    +0.000 A 
ATOM     15  C   UNL     1      47.163   1.225   7.227  0.00  0.00    +0.000 A 
ATOM     16  C   UNL     1      46.190   1.349   8.220  0.00  0.00    +0.000 A 
ENDBRANCH  10  11
ENDBRANCH   9  10
ENDBRANCH   8   9
ENDBRANCH   5   8
ENDBRANCH   1   2
BRANCH   1  19
ATOM     17  C   UNL     1      49.689   8.624  12.692  0.00  0.00    +0.000 C 
ATOM     18  O   UNL     1      49.111   9.304  13.535  0.00  0.00    +0.000 OA
ATOM     19  N   UNL     1      49.531   7.251  12.596  0.00  0.00    +0.000 N 
ATOM     20  H   UNL     1      50.009   6.764  11.836  0.00  0.00    +0.000 HD
BRANCH  17  25
ATOM     21  C   UNL     1      53.263   6.110   8.898  0.00  0.00    +0.000 C 
ATOM     22  C   UNL     1      52.672   7.319   9.508  0.00  0.00    +0.000 A 
ATOM     23  N   UNL     1      51.735   7.193  10.534  0.00  0.00    +0.000 NA
ATOM     24  C   UNL     1      51.437   8.440  10.822  0.00  0.00    +0.000 A 
ATOM     25  C   UNL     1      50.621   9.204  11.678  0.00  0.00    +0.000 C 
ATOM     26  C   UNL     1      50.901  10.493  11.335  0.00  0.00    +0.000 C 
ATOM     27  N   UNL     1      51.822  10.699  10.332  0.00  0.00    +0.000 NA
ATOM     28  N   UNL     1      52.121   9.315  10.054  0.00  0.00    +0.000 N 
ATOM     29  C   UNL     1      52.924   8.655   9.185  0.00  0.00    +0.000 A 
ATOM     30  C   UNL     1      53.807   9.270   8.180  0.00  0.00    +0.000 C 
ENDBRANCH  17  25
ENDBRANCH   1  19
TORSDOF 7
ENDMDL
MODEL 7
REMARK VINA RESULT:    -6.942      3.455      5.279
REMARK INTER + INTRA:         -10.516
REMARK INTER:                  -9.330
REMARK INTRA:                  -1.186
REMARK UNBOUND:                -0.734
REMARK  Name = 
REMARK  9 active torsions:
REMARK  status: ('A' for Active; 'I' for Inactive)
REMARK    1  A    between atoms: C_1  and  C_2
REMARK    2  A    between atoms: C_5  and  C_6
REMARK    3  A    between atoms: N_8  and  C_9
REMARK    4  A    between atoms: C_9  and  C_10
REMARK    5  A    between atoms: C_13  and  O_14
REMARK    6  A    between atoms: O_14  and  C_15
REMARK    7  A    between atoms: C_15  and  C_16
REMARK    8  A    between atoms: C_16  and  C_17
REMARK    9  A    between atoms: C_28  and  C_29
REMARK                            x       y       z     vdW  Elec       q    Type
REMARK                         _______ _______ _______ _____ _____    ______ ____
ROOT
ATOM      1  C   UNL     1      47.765   3.614  17.145  0.00  0.00    +0.000 C 
ENDROOT
BRANCH   1   2
ATOM      2  C   UNL     1      47.706   4.552  15.960  0.00  0.00    +0.000 A 
ATOM      3  C   UNL     1      48.444   5.741  15.977  0.00  0.00    +0.000 A 
ATOM      4  C   UNL     1      48.463   6.597  14.868  0.00  0.00    +0.000 A 
ATOM      5  C   UNL     1      47.737   6.278  13.719  0.00  0.00    +0.000 A 
ATOM      6  C   UNL     1      46.981   5.107  13.700  0.00  0.00    +0.000 A 
ATOM      7  C   UNL     1      46.963   4.251  14.810  0.00  0.00    +0.000 A 
BRANCH   5   8
ATOM      8  O   UNL     1      47.661   7.047  12.582  0.00  0.00    +0.000 OA
BRANCH   8   9
ATOM      9  C   UNL     1      46.330   7.362  12.166  0.00  0.00    +0.000 C 
BRANCH   9  10
ATOM     10  C   UNL     1      46.011   6.650  10.852  0.00  0.00    +0.000 C 
BRANCH  10  11
ATOM     11  C   UNL     1      44.996   5.540  11.017  0.00  0.00    +0.000 A 
ATOM     12  C   UNL     1      45.149   4.308  10.366  0.00  0.00    +0.000 A 
ATOM     13  C   UNL     1      44.231   3.272  10.578  0.00  0.00    +0.000 A 
ATOM     14  C   UNL     1      43.146   3.463  11.431  0.00  0.00    +0.000 A 
ATOM     15  C   UNL     1      42.966   4.696  12.054  0.00  0.00    +0.000 A 
ATOM     16  C   UNL     1      43.880   5.731  11.843  0.00  0.00    +0.000 A 
ENDBRANCH  10  11
ENDBRANCH   9  10
ENDBRANCH   8   9
ENDBRANCH   5   8
ENDBRANCH   1   2
BRANCH   1  19
ATOM     17  C   UNL     1      49.842   2.321  16.959  0.00  0.00    +0.000 C 
ATOM     18  O   UNL     1      49.432   1.694  15.987  0.00  0.00    +0.000 OA
ATOM     19  N   UNL     1      49.091   3.294  17.599  0.00  0.00    +0.000 N 
ATOM     20  H   UNL     1      49.485   3.735  18.431  0.00  0.00    +0.000 HD
BRANCH  17  25
ATOM     21  C   UNL     1      53.342   5.853  19.920  0.00  0.00    +0.000 C 
ATOM     22  C   UNL     1      53.045   4.534  19.323  0.00  0.00    +0.000 A 
ATOM     23  N   UNL     1      51.844   4.335  18.640  0.00  0.00    +0.000 NA
ATOM     24  C   UNL     1      51.921   3.081  18.257  0.00  0.00    +0.000 A 
ATOM     25  C   UNL     1      51.192   2.099  17.560  0.00  0.00    +0.000 C 
ATOM     26  C   UNL     1      51.998   1.000  17.602  0.00  0.00    +0.000 C 
ATOM     27  N   UNL     1      53.204   1.120  18.255  0.00  0.00    +0.000 NA
ATOM     28  N   UNL     1      53.076   2.502  18.650  0.00  0.00    +0.000 N 
ATOM     29  C   UNL     1      53.835   3.382  19.346  0.00  0.00    +0.000 A 
ATOM     30  C   UNL     1      55.151   3.109  19.947  0.00  0.00    +0.000 C 
ENDBRANCH  17  25
ENDBRANCH   1  19
TORSDOF 7
ENDMDL
MODEL 8
REMARK VINA RESULT:    -6.824      3.139      9.515
REMARK INTER + INTRA:         -10.351
REMARK INTER:                  -9.128
REMARK INTRA:                  -1.223
REMARK UNBOUND:                -0.734
REMARK  Name = 
REMARK  9 active torsions:
REMARK  status: ('A' for Active; 'I' for Inactive)
REMARK    1  A    between atoms: C_1  and  C_2
REMARK    2  A    between atoms: C_5  and  C_6
REMARK    3  A    between atoms: N_8  and  C_9
REMARK    4  A    between atoms: C_9  and  C_10
REMARK    5  A    between atoms: C_13  and  O_14
REMARK    6  A    between atoms: O_14  and  C_15
REMARK    7  A    between atoms: C_15  and  C_16
REMARK    8  A    between atoms: C_16  and  C_17
REMARK    9  A    between atoms: C_28  and  C_29
REMARK                            x       y       z     vdW  Elec       q    Type
REMARK                         _______ _______ _______ _____ _____    ______ ____
ROOT
ATOM      1  C   UNL     1      46.964   8.196  12.707  0.00  0.00    +0.000 C 
ENDROOT
BRANCH   1   2
ATOM      2  C   UNL     1      47.783   8.108  13.976  0.00  0.00    +0.000 A 
ATOM      3  C   UNL     1      48.496   6.938  14.264  0.00  0.00    +0.000 A 
ATOM      4  C   UNL     1      49.316   6.851  15.395  0.00  0.00    +0.000 A 
ATOM      5  C   UNL     1      49.435   7.937  16.265  0.00  0.00    +0.000 A 
ATOM      6  C   UNL     1      48.714   9.099  15.998  0.00  0.00    +0.000 A 
ATOM      7  C   UNL     1      47.893   9.185  14.865  0.00  0.00    +0.000 A 
BRANCH   5   8
ATOM      8  O   UNL     1      50.189   7.961  17.414  0.00  0.00    +0.000 OA
BRANCH   8   9
ATOM      9  C   UNL     1      49.556   7.370  18.552  0.00  0.00    +0.000 C 
BRANCH   9  10
ATOM     10  C   UNL     1      50.181   6.007  18.849  0.00  0.00    +0.000 C 
BRANCH  10  11
ATOM     11  C   UNL     1      49.393   4.859  18.254  0.00  0.00    +0.000 A 
ATOM     12  C   UNL     1      47.996   4.909  18.151  0.00  0.00    +0.000 A 
ATOM     13  C   UNL     1      47.289   3.865  17.543  0.00  0.00    +0.000 A 
ATOM     14  C   UNL     1      47.970   2.756  17.046  0.00  0.00    +0.000 A 
ATOM     15  C   UNL     1      49.356   2.681  17.177  0.00  0.00    +0.000 A 
ATOM     16  C   UNL     1      50.062   3.722  17.783  0.00  0.00    +0.000 A 
ENDBRANCH  10  11
ENDBRANCH   9  10
ENDBRANCH   8   9
ENDBRANCH   5   8
ENDBRANCH   1   2
BRANCH   1  19
ATOM     17  C   UNL     1      45.153   6.931  11.639  0.00  0.00    +0.000 C 
ATOM     18  O   UNL     1      44.501   7.945  11.412  0.00  0.00    +0.000 OA
ATOM     19  N   UNL     1      46.385   6.954  12.272  0.00  0.00    +0.000 N 
ATOM     20  H   UNL     1      46.842   6.062  12.468  0.00  0.00    +0.000 HD
BRANCH  17  25
ATOM     21  C   UNL     1      46.362   3.599   7.064  0.00  0.00    +0.000 C 
ATOM     22  C   UNL     1      45.660   3.827   8.345  0.00  0.00    +0.000 A 
ATOM     23  N   UNL     1      45.833   5.032   9.027  0.00  0.00    +0.000 NA
ATOM     24  C   UNL     1      45.080   4.884  10.092  0.00  0.00    +0.000 A 
ATOM     25  C   UNL     1      44.686   5.562  11.262  0.00  0.00    +0.000 C 
ATOM     26  C   UNL     1      43.847   4.685  11.884  0.00  0.00    +0.000 C 
ATOM     27  N   UNL     1      43.623   3.474  11.268  0.00  0.00    +0.000 NA
ATOM     28  N   UNL     1      44.460   3.684  10.112  0.00  0.00    +0.000 N 
ATOM     29  C   UNL     1      44.800   2.957   9.020  0.00  0.00    +0.000 A 
ATOM     30  C   UNL     1      44.337   1.596   8.704  0.00  0.00    +0.000 C 
ENDBRANCH  17  25
ENDBRANCH   1  19
TORSDOF 7
ENDMDL
MODEL 9
REMARK VINA RESULT:    -5.836      6.240     12.037
REMARK INTER + INTRA:          -8.958
REMARK INTER:                  -7.761
REMARK INTRA:                  -1.197
REMARK UNBOUND:                -0.734
REMARK  Name = 
REMARK  9 active torsions:
REMARK  status: ('A' for Active; 'I' for Inactive)
REMARK    1  A    between atoms: C_1  and  C_2
REMARK    2  A    between atoms: C_5  and  C_6
REMARK    3  A    between atoms: N_8  and  C_9
REMARK    4  A    between atoms: C_9  and  C_10
REMARK    5  A    between atoms: C_13  and  O_14
REMARK    6  A    between atoms: O_14  and  C_15
REMARK    7  A    between atoms: C_15  and  C_16
REMARK    8  A    between atoms: C_16  and  C_17
REMARK    9  A    between atoms: C_28  and  C_29
REMARK                            x       y       z     vdW  Elec       q    Type
REMARK                         _______ _______ _______ _____ _____    ______ ____
ROOT
ATOM      1  C   UNL     1      46.887   3.470   6.475  0.00  0.00    +0.000 C 
ENDROOT
BRANCH   1   2
ATOM      2  C   UNL     1      46.018   3.452   7.713  0.00  0.00    +0.000 A 
ATOM      3  C   UNL     1      45.782   4.641   8.414  0.00  0.00    +0.000 A 
ATOM      4  C   UNL     1      44.928   4.668   9.524  0.00  0.00    +0.000 A 
ATOM      5  C   UNL     1      44.296   3.500   9.956  0.00  0.00    +0.000 A 
ATOM      6  C   UNL     1      44.542   2.308   9.278  0.00  0.00    +0.000 A 
ATOM      7  C   UNL     1      45.396   2.281   8.166  0.00  0.00    +0.000 A 
BRANCH   5   8
ATOM      8  O   UNL     1      43.458   3.400  11.041  0.00  0.00    +0.000 OA
BRANCH   8   9
ATOM      9  C   UNL     1      42.846   4.630  11.435  0.00  0.00    +0.000 C 
BRANCH   9  10
ATOM     10  C   UNL     1      43.234   4.971  12.874  0.00  0.00    +0.000 C 
BRANCH  10  11
ATOM     11  C   UNL     1      44.658   5.469  12.995  0.00  0.00    +0.000 A 
ATOM     12  C   UNL     1      45.666   4.669  13.551  0.00  0.00    +0.000 A 
ATOM     13  C   UNL     1      46.989   5.124  13.601  0.00  0.00    +0.000 A 
ATOM     14  C   UNL     1      47.314   6.386  13.108  0.00  0.00    +0.000 A 
ATOM     15  C   UNL     1      46.311   7.203  12.588  0.00  0.00    +0.000 A 
ATOM     16  C   UNL     1      44.991   6.751  12.538  0.00  0.00    +0.000 A 
ENDBRANCH  10  11
ENDBRANCH   9  10
ENDBRANCH   8   9
ENDBRANCH   5   8
ENDBRANCH   1   2
BRANCH   1  19
ATOM     17  C   UNL     1      47.380   1.448   5.175  0.00  0.00    +0.000 C 
ATOM     18  O   UNL     1      48.454   1.276   5.743  0.00  0.00    +0.000 OA
ATOM     19  N   UNL     1      46.532   2.504   5.471  0.00  0.00    +0.000 N 
ATOM     20  H   UNL     1      45.679   2.604   4.920  0.00  0.00    +0.000 HD
BRANCH  17  25
ATOM     21  C   UNL     1      46.671  -4.294   5.035  0.00  0.00    +0.000 C 
ATOM     22  C   UNL     1      46.579  -2.967   4.392  0.00  0.00    +0.000 A 
ATOM     23  N   UNL     1      46.984  -1.828   5.088  0.00  0.00    +0.000 NA
ATOM     24  C   UNL     1      46.765  -0.858   4.230  0.00  0.00    +0.000 A 
ATOM     25  C   UNL     1      46.872   0.541   4.102  0.00  0.00    +0.000 C 
ATOM     26  C   UNL     1      46.414   0.791   2.842  0.00  0.00    +0.000 C 
ATOM     27  N   UNL     1      46.001  -0.286   2.090  0.00  0.00    +0.000 NA
ATOM     28  N   UNL     1      46.262  -1.317   3.064  0.00  0.00    +0.000 N 
ATOM     29  C   UNL     1      46.112  -2.663   3.110  0.00  0.00    +0.000 A 
ATOM     30  C   UNL     1      45.578  -3.515   2.035  0.00  0.00    +0.000 C 
ENDBRANCH  17  25
ENDBRANCH   1  19
TORSDOF 7
ENDMDL
