MODEL 1
REMARK VINA RESULT:    -6.611      0.000      0.000
REMARK INTER + INTRA:         -10.113
REMARK INTER:                  -9.316
REMARK INTRA:                  -0.797
REMARK UNBOUND:                -0.797
REMARK  Name = 
REMARK  8 active torsions:
REMARK  status: ('A' for Active; 'I' for Inactive)
REMARK    1  A    between atoms: N_1  and  C_2
REMARK    2  A    between atoms: C_2  and  C_3
REMARK    3  A    between atoms: C_7  and  C_8
REMARK    4  A    between atoms: C_8  and  C_9
REMARK    5  A    between atoms: C_9  and  C_10
REMARK    6  A    between atoms: C_10  and  C_11
REMARK    7  A    between atoms: C_13  and  C_14
REMARK    8  A    between atoms: C_14  and  N_15
REMARK                            x       y       z     vdW  Elec       q    Type
REMARK                         _______ _______ _______ _____ _____    ______ ____
ROOT
ATOM      1  C   UNL     1      43.420   4.516  10.392  0.00  0.00    +0.000 C 
ENDROOT
BRANCH   1   2
ATOM      2  C   UNL     1      43.380   5.044  11.829  0.00  0.00    +0.000 C 
BRANCH   2   7
ATOM      3  C   UNL     1      46.632   5.032  13.837  0.00  0.00    +0.000 A 
ATOM      4  C   UNL     1      47.418   5.908  13.077  0.00  0.00    +0.000 A 
ATOM      5  C   UNL     1      46.890   6.527  11.944  0.00  0.00    +0.000 A 
ATOM      6  C   UNL     1      45.575   6.272  11.551  0.00  0.00    +0.000 A 
ATOM      7  C   UNL     1      44.771   5.401  12.295  0.00  0.00    +0.000 A 
ATOM      8  C   UNL     1      45.307   4.795  13.442  0.00  0.00    +0.000 A 
BRANCH   3   9
ATOM      9  C   UNL     1      47.196   4.350  15.058  0.00  0.00    +0.000 C 
BRANCH   9  10
ATOM     10  N   UNL     1      47.552   2.962  14.780  0.00  0.00    +0.000 NA
ATOM     11  H   UNL     1      47.647   2.460  15.659  0.00  0.00    +0.000 HD
ATOM     12  H   UNL     1      48.470   2.946  14.336  0.00  0.00    +0.000 HD
ENDBRANCH   9  10
ENDBRANCH   3   9
ENDBRANCH   2   7
ENDBRANCH   1   2
BRANCH   1  13
ATOM     13  C   UNL     1      44.110   3.155  10.289  0.00  0.00    +0.000 C 
BRANCH  13  14
ATOM     14  C   UNL     1      45.093   3.147   9.141  0.00  0.00    +0.000 A 
ATOM     15  C   UNL     1      45.627   1.947   8.670  0.00  0.00    +0.000 A 
ATOM     16  C   UNL     1      46.592   1.974   7.656  0.00  0.00    +0.000 A 
ATOM     17  C   UNL     1      46.981   3.217   7.151  0.00  0.00    +0.000 A 
ATOM     18  C   UNL     1      46.400   4.360   7.672  0.00  0.00    +0.000 A 
ATOM     19  N   UNL     1      45.471   4.352   8.654  0.00  0.00    +0.000 NA
BRANCH  16  20
ATOM     20  C   UNL     1      47.235   0.707   7.159  0.00  0.00    +0.000 C 
BRANCH  20  21
ATOM     21  N   UNL     1      46.664  -0.476   7.791  0.00  0.00    +0.000 NA
ATOM     22  H   UNL     1      47.325  -1.247   7.705  0.00  0.00    +0.000 HD
ATOM     23  H   UNL     1      45.829  -0.756   7.279  0.00  0.00    +0.000 HD
ENDBRANCH  20  21
ENDBRANCH  16  20
ENDBRANCH  13  14
ENDBRANCH   1  13
TORSDOF 8
ENDMDL
MODEL 2
REMARK VINA RESULT:    -6.562      1.604      6.301
REMARK INTER + INTRA:         -10.044
REMARK INTER:                  -9.364
REMARK INTRA:                  -0.680
REMARK UNBOUND:                -0.797
REMARK  Name = 
REMARK  8 active torsions:
REMARK  status: ('A' for Active; 'I' for Inactive)
REMARK    1  A    between atoms: N_1  and  C_2
REMARK    2  A    between atoms: C_2  and  C_3
REMARK    3  A    between atoms: C_7  and  C_8
REMARK    4  A    between atoms: C_8  and  C_9
REMARK    5  A    between atoms: C_9  and  C_10
REMARK    6  A    between atoms: C_10  and  C_11
REMARK    7  A    between atoms: C_13  and  C_14
REMARK    8  A    between atoms: C_14  and  N_15
REMARK                            x       y       z     vdW  Elec       q    Type
REMARK                         _______ _______ _______ _____ _____    ______ ____
ROOT
ATOM      1  C   UNL     1      43.649   3.972  10.318  0.00  0.00    +0.000 C 
ENDROOT
BRANCH   1   2
ATOM      2  C   UNL     1      44.457   4.485   9.123  0.00  0.00    +0.000 C 
BRANCH   2   7
ATOM      3  C   UNL     1      46.636   2.541   6.656  0.00  0.00    +0.000 A 
ATOM      4  C   UNL     1      46.664   1.279   7.262  0.00  0.00    +0.000 A 
ATOM      5  C   UNL     1      45.955   1.046   8.441  0.00  0.00    +0.000 A 
ATOM      6  C   UNL     1      45.217   2.072   9.032  0.00  0.00    +0.000 A 
ATOM      7  C   UNL     1      45.174   3.342   8.444  0.00  0.00    +0.000 A 
ATOM      8  C   UNL     1      45.879   3.562   7.251  0.00  0.00    +0.000 A 
BRANCH   3   9
ATOM      9  C   UNL     1      47.408   2.807   5.388  0.00  0.00    +0.000 C 
BRANCH   9  10
ATOM     10  N   UNL     1      48.423   1.785   5.155  0.00  0.00    +0.000 NA
ATOM     11  H   UNL     1      49.323   2.237   5.009  0.00  0.00    +0.000 HD
ATOM     12  H   UNL     1      48.200   1.298   4.287  0.00  0.00    +0.000 HD
ENDBRANCH   9  10
ENDBRANCH   3   9
ENDBRANCH   2   7
ENDBRANCH   1   2
BRANCH   1  13
ATOM     13  C   UNL     1      43.259   5.092  11.284  0.00  0.00    +0.000 C 
BRANCH  13  14
ATOM     14  C   UNL     1      44.490   5.688  11.926  0.00  0.00    +0.000 A 
ATOM     15  C   UNL     1      45.283   4.926  12.786  0.00  0.00    +0.000 A 
ATOM     16  C   UNL     1      46.374   5.525  13.426  0.00  0.00    +0.000 A 
ATOM     17  C   UNL     1      46.628   6.875  13.171  0.00  0.00    +0.000 A 
ATOM     18  C   UNL     1      45.793   7.557  12.303  0.00  0.00    +0.000 A 
ATOM     19  N   UNL     1      44.733   6.997  11.681  0.00  0.00    +0.000 NA
BRANCH  16  20
ATOM     20  C   UNL     1      47.222   4.756  14.404  0.00  0.00    +0.000 C 
BRANCH  20  21
ATOM     21  N   UNL     1      47.201   3.323  14.131  0.00  0.00    +0.000 NA
ATOM     22  H   UNL     1      46.357   2.923  14.538  0.00  0.00    +0.000 HD
ATOM     23  H   UNL     1      47.986   2.883  14.608  0.00  0.00    +0.000 HD
ENDBRANCH  20  21
ENDBRANCH  16  20
ENDBRANCH  13  14
ENDBRANCH   1  13
TORSDOF 8
ENDMDL
MODEL 3
REMARK VINA RESULT:    -6.559      1.942      2.533
REMARK INTER + INTRA:         -10.040
REMARK INTER:                  -9.282
REMARK INTRA:                  -0.758
REMARK UNBOUND:                -0.797
REMARK  Name = 
REMARK  8 active torsions:
REMARK  status: ('A' for Active; 'I' for Inactive)
REMARK    1  A    between atoms: N_1  and  C_2
REMARK    2  A    between atoms: C_2  and  C_3
REMARK    3  A    between atoms: C_7  and  C_8
REMARK    4  A    between atoms: C_8  and  C_9
REMARK    5  A    between atoms: C_9  and  C_10
REMARK    6  A    between atoms: C_10  and  C_11
REMARK    7  A    between atoms: C_13  and  C_14
REMARK    8  A    between atoms: C_14  and  N_15
REMARK                            x       y       z     vdW  Elec       q    Type
REMARK                         _______ _______ _______ _____ _____    ______ ____
ROOT
ATOM      1  C   UNL     1      43.065   4.183  11.467  0.00  0.00    +0.000 C 
ENDROOT
BRANCH   1   2
ATOM      2  C   UNL     1      43.411   4.547  12.913  0.00  0.00    +0.000 C 
BRANCH   2   7
ATOM      3  C   UNL     1      45.980   7.375  12.770  0.00  0.00    +0.000 A 
ATOM      4  C   UNL     1      47.125   6.718  13.238  0.00  0.00    +0.000 A 
ATOM      5  C   UNL     1      47.078   5.362  13.563  0.00  0.00    +0.000 A 
ATOM      6  C   UNL     1      45.886   4.648  13.433  0.00  0.00    +0.000 A 
ATOM      7  C   UNL     1      44.729   5.283  12.967  0.00  0.00    +0.000 A 
ATOM      8  C   UNL     1      44.791   6.644  12.629  0.00  0.00    +0.000 A 
BRANCH   3   9
ATOM      9  C   UNL     1      46.017   8.842  12.426  0.00  0.00    +0.000 C 
BRANCH   9  10
ATOM     10  N   UNL     1      44.782   9.515  12.815  0.00  0.00    +0.000 NA
ATOM     11  H   UNL     1      44.023   8.838  12.822  0.00  0.00    +0.000 HD
ATOM     12  H   UNL     1      44.550  10.204  12.100  0.00  0.00    +0.000 HD
ENDBRANCH   9  10
ENDBRANCH   3   9
ENDBRANCH   2   7
ENDBRANCH   1   2
BRANCH   1  13
ATOM     13  C   UNL     1      43.708   2.867  11.026  0.00  0.00    +0.000 C 
BRANCH  13  14
ATOM     14  C   UNL     1      44.581   3.086   9.812  0.00  0.00    +0.000 A 
ATOM     15  C   UNL     1      45.216   2.011   9.188  0.00  0.00    +0.000 A 
ATOM     16  C   UNL     1      46.078   2.252   8.113  0.00  0.00    +0.000 A 
ATOM     17  C   UNL     1      46.267   3.574   7.702  0.00  0.00    +0.000 A 
ATOM     18  C   UNL     1      45.597   4.581   8.375  0.00  0.00    +0.000 A 
ATOM     19  N   UNL     1      44.766   4.368   9.417  0.00  0.00    +0.000 NA
BRANCH  16  20
ATOM     20  C   UNL     1      46.826   1.127   7.448  0.00  0.00    +0.000 C 
BRANCH  20  21
ATOM     21  N   UNL     1      48.096   1.576   6.887  0.00  0.00    +0.000 NA
ATOM     22  H   UNL     1      48.819   0.901   7.129  0.00  0.00    +0.000 HD
ATOM     23  H   UNL     1      48.362   2.454   7.329  0.00  0.00    +0.000 HD
ENDBRANCH  20  21
ENDBRANCH  16  20
ENDBRANCH  13  14
ENDBRANCH   1  13
TORSDOF 8
ENDMDL
MODEL 4
REMARK VINA RESULT:    -6.492      2.152      6.474
REMARK INTER + INTRA:          -9.946
REMARK INTER:                  -9.231
REMARK INTRA:                  -0.715
REMARK UNBOUND:                -0.797
REMARK  Name = 
REMARK  8 active torsions:
REMARK  status: ('A' for Active; 'I' for Inactive)
REMARK    1  A    between atoms: N_1  and  C_2
REMARK    2  A    between atoms: C_2  and  C_3
REMARK    3  A    between atoms: C_7  and  C_8
REMARK    4  A    between atoms: C_8  and  C_9
REMARK    5  A    between atoms: C_9  and  C_10
REMARK    6  A    between atoms: C_10  and  C_11
REMARK    7  A    between atoms: C_13  and  C_14
REMARK    8  A    between atoms: C_14  and  N_15
REMARK                            x       y       z     vdW  Elec       q    Type
REMARK                         _______ _______ _______ _____ _____    ______ ____
ROOT
ATOM      1  C   UNL     1      44.535   3.008  11.586  0.00  0.00    +0.000 C 
ENDROOT
BRANCH   1   2
ATOM      2  C   UNL     1      44.062   2.569  10.197  0.00  0.00    +0.000 C 
BRANCH   2   7
ATOM      3  C   UNL     1      46.653   2.184   7.413  0.00  0.00    +0.000 A 
ATOM      4  C   UNL     1      46.898   3.524   7.090  0.00  0.00    +0.000 A 
ATOM      5  C   UNL     1      46.259   4.548   7.791  0.00  0.00    +0.000 A 
ATOM      6  C   UNL     1      45.362   4.245   8.816  0.00  0.00    +0.000 A 
ATOM      7  C   UNL     1      45.101   2.912   9.156  0.00  0.00    +0.000 A 
ATOM      8  C   UNL     1      45.760   1.891   8.455  0.00  0.00    +0.000 A 
BRANCH   3   9
ATOM      9  C   UNL     1      47.330   1.070   6.655  0.00  0.00    +0.000 C 
BRANCH   9  10
ATOM     10  N   UNL     1      48.428   1.570   5.835  0.00  0.00    +0.000 NA
ATOM     11  H   UNL     1      48.059   2.221   5.145  0.00  0.00    +0.000 HD
ATOM     12  H   UNL     1      48.824   0.789   5.313  0.00  0.00    +0.000 HD
ENDBRANCH   9  10
ENDBRANCH   3   9
ENDBRANCH   2   7
ENDBRANCH   1   2
BRANCH   1  13
ATOM     13  C   UNL     1      43.771   4.227  12.105  0.00  0.00    +0.000 C 
BRANCH  13  14
ATOM     14  C   UNL     1      44.726   5.356  12.415  0.00  0.00    +0.000 A 
ATOM     15  C   UNL     1      44.468   6.651  11.962  0.00  0.00    +0.000 A 
ATOM     16  C   UNL     1      45.406   7.662  12.199  0.00  0.00    +0.000 A 
ATOM     17  C   UNL     1      46.573   7.329  12.891  0.00  0.00    +0.000 A 
ATOM     18  C   UNL     1      46.750   6.020  13.307  0.00  0.00    +0.000 A 
ATOM     19  N   UNL     1      45.857   5.031  13.083  0.00  0.00    +0.000 NA
BRANCH  16  20
ATOM     20  C   UNL     1      45.195   9.059  11.679  0.00  0.00    +0.000 C 
BRANCH  20  21
ATOM     21  N   UNL     1      44.477   9.892  12.637  0.00  0.00    +0.000 NA
ATOM     22  H   UNL     1      43.706  10.354  12.158  0.00  0.00    +0.000 HD
ATOM     23  H   UNL     1      45.097  10.631  12.964  0.00  0.00    +0.000 HD
ENDBRANCH  20  21
ENDBRANCH  16  20
ENDBRANCH  13  14
ENDBRANCH   1  13
TORSDOF 8
ENDMDL
MODEL 5
REMARK VINA RESULT:    -6.335      1.767      6.068
REMARK INTER + INTRA:          -9.725
REMARK INTER:                  -8.915
REMARK INTRA:                  -0.810
REMARK UNBOUND:                -0.797
REMARK  Name = 
REMARK  8 active torsions:
REMARK  status: ('A' for Active; 'I' for Inactive)
REMARK    1  A    between atoms: N_1  and  C_2
REMARK    2  A    between atoms: C_2  and  C_3
REMARK    3  A    between atoms: C_7  and  C_8
REMARK    4  A    between atoms: C_8  and  C_9
REMARK    5  A    between atoms: C_9  and  C_10
REMARK    6  A    between atoms: C_10  and  C_11
REMARK    7  A    between atoms: C_13  and  C_14
REMARK    8  A    between atoms: C_14  and  N_15
REMARK                            x       y       z     vdW  Elec       q    Type
REMARK                         _______ _______ _______ _____ _____    ______ ____
ROOT
ATOM      1  C   UNL     1      44.611   2.926  11.564  0.00  0.00    +0.000 C 
ENDROOT
BRANCH   1   2
ATOM      2  C   UNL     1      44.086   2.609  10.161  0.00  0.00    +0.000 C 
BRANCH   2   7
ATOM      3  C   UNL     1      46.737   2.127   7.449  0.00  0.00    +0.000 A 
ATOM      4  C   UNL     1      46.969   3.454   7.065  0.00  0.00    +0.000 A 
ATOM      5  C   UNL     1      46.301   4.501   7.702  0.00  0.00    +0.000 A 
ATOM      6  C   UNL     1      45.388   4.235   8.723  0.00  0.00    +0.000 A 
ATOM      7  C   UNL     1      45.141   2.917   9.124  0.00  0.00    +0.000 A 
ATOM      8  C   UNL     1      45.828   1.872   8.487  0.00  0.00    +0.000 A 
BRANCH   3   9
ATOM      9  C   UNL     1      47.446   0.988   6.761  0.00  0.00    +0.000 C 
BRANCH   9  10
ATOM     10  N   UNL     1      48.261   1.460   5.647  0.00  0.00    +0.000 NA
ATOM     11  H   UNL     1      49.244   1.395   5.903  0.00  0.00    +0.000 HD
ATOM     12  H   UNL     1      48.066   2.449   5.499  0.00  0.00    +0.000 HD
ENDBRANCH   9  10
ENDBRANCH   3   9
ENDBRANCH   2   7
ENDBRANCH   1   2
BRANCH   1  13
ATOM     13  C   UNL     1      43.812   4.036  12.250  0.00  0.00    +0.000 C 
BRANCH  13  14
ATOM     14  C   UNL     1      44.539   5.356  12.139  0.00  0.00    +0.000 A 
ATOM     15  C   UNL     1      45.764   5.550  12.780  0.00  0.00    +0.000 A 
ATOM     16  C   UNL     1      46.379   6.806  12.723  0.00  0.00    +0.000 A 
ATOM     17  C   UNL     1      45.735   7.823  12.015  0.00  0.00    +0.000 A 
ATOM     18  C   UNL     1      44.522   7.546  11.407  0.00  0.00    +0.000 A 
ATOM     19  N   UNL     1      43.912   6.342  11.456  0.00  0.00    +0.000 NA
BRANCH  16  20
ATOM     20  C   UNL     1      47.672   7.073  13.446  0.00  0.00    +0.000 C 
BRANCH  20  21
ATOM     21  N   UNL     1      48.539   5.901  13.461  0.00  0.00    +0.000 NA
ATOM     22  H   UNL     1      48.165   5.208  12.815  0.00  0.00    +0.000 HD
ATOM     23  H   UNL     1      48.508   5.477  14.386  0.00  0.00    +0.000 HD
ENDBRANCH  20  21
ENDBRANCH  16  20
ENDBRANCH  13  14
ENDBRANCH   1  13
TORSDOF 8
ENDMDL
MODEL 6
REMARK VINA RESULT:    -6.275      1.471      2.034
REMARK INTER + INTRA:          -9.640
REMARK INTER:                  -9.043
REMARK INTRA:                  -0.596
REMARK UNBOUND:                -0.797
REMARK  Name = 
REMARK  8 active torsions:
REMARK  status: ('A' for Active; 'I' for Inactive)
REMARK    1  A    between atoms: N_1  and  C_2
REMARK    2  A    between atoms: C_2  and  C_3
REMARK    3  A    between atoms: C_7  and  C_8
REMARK    4  A    between atoms: C_8  and  C_9
REMARK    5  A    between atoms: C_9  and  C_10
REMARK    6  A    between atoms: C_10  and  C_11
REMARK    7  A    between atoms: C_13  and  C_14
REMARK    8  A    between atoms: C_14  and  N_15
REMARK                            x       y       z     vdW  Elec       q    Type
REMARK                         _______ _______ _______ _____ _____    ______ ____
ROOT
ATOM      1  C   UNL     1      44.809   4.713  10.404  0.00  0.00    +0.000 C 
ENDROOT
BRANCH   1   2
ATOM      2  C   UNL     1      45.855   5.822  10.262  0.00  0.00    +0.000 C 
BRANCH   2   7
ATOM      3  C   UNL     1      47.037   5.435  13.878  0.00  0.00    +0.000 A 
ATOM      4  C   UNL     1      47.764   6.619  14.048  0.00  0.00    +0.000 A 
ATOM      5  C   UNL     1      47.843   7.554  13.016  0.00  0.00    +0.000 A 
ATOM      6  C   UNL     1      47.204   7.314  11.799  0.00  0.00    +0.000 A 
ATOM      7  C   UNL     1      46.471   6.138  11.605  0.00  0.00    +0.000 A 
ATOM      8  C   UNL     1      46.386   5.210  12.655  0.00  0.00    +0.000 A 
BRANCH   3   9
ATOM      9  C   UNL     1      46.954   4.412  14.983  0.00  0.00    +0.000 C 
BRANCH   9  10
ATOM     10  N   UNL     1      47.478   3.119  14.556  0.00  0.00    +0.000 NA
ATOM     11  H   UNL     1      48.472   3.210  14.364  0.00  0.00    +0.000 HD
ATOM     12  H   UNL     1      47.034   2.865  13.674  0.00  0.00    +0.000 HD
ENDBRANCH   9  10
ENDBRANCH   3   9
ENDBRANCH   2   7
ENDBRANCH   1   2
BRANCH   1  13
ATOM     13  C   UNL     1      44.281   4.233   9.051  0.00  0.00    +0.000 C 
BRANCH  13  14
ATOM     14  C   UNL     1      45.227   3.223   8.444  0.00  0.00    +0.000 A 
ATOM     15  C   UNL     1      45.980   3.543   7.313  0.00  0.00    +0.000 A 
ATOM     16  C   UNL     1      46.791   2.564   6.727  0.00  0.00    +0.000 A 
ATOM     17  C   UNL     1      46.815   1.294   7.308  0.00  0.00    +0.000 A 
ATOM     18  C   UNL     1      46.040   1.061   8.431  0.00  0.00    +0.000 A 
ATOM     19  N   UNL     1      45.247   1.992   9.006  0.00  0.00    +0.000 NA
BRANCH  16  20
ATOM     20  C   UNL     1      47.576   2.850   5.475  0.00  0.00    +0.000 C 
BRANCH  20  21
ATOM     21  N   UNL     1      48.242   1.657   4.967  0.00  0.00    +0.000 NA
ATOM     22  H   UNL     1      47.730   0.835   5.282  0.00  0.00    +0.000 HD
ATOM     23  H   UNL     1      49.170   1.594   5.381  0.00  0.00    +0.000 HD
ENDBRANCH  20  21
ENDBRANCH  16  20
ENDBRANCH  13  14
ENDBRANCH   1  13
TORSDOF 8
ENDMDL
MODEL 7
REMARK VINA RESULT:    -6.183      2.107      6.976
REMARK INTER + INTRA:          -9.510
REMARK INTER:                  -8.981
REMARK INTRA:                  -0.529
REMARK UNBOUND:                -0.797
REMARK  Name = 
REMARK  8 active torsions:
REMARK  status: ('A' for Active; 'I' for Inactive)
REMARK    1  A    between atoms: N_1  and  C_2
REMARK    2  A    between atoms: C_2  and  C_3
REMARK    3  A    between atoms: C_7  and  C_8
REMARK    4  A    between atoms: C_8  and  C_9
REMARK    5  A    between atoms: C_9  and  C_10
REMARK    6  A    between atoms: C_10  and  C_11
REMARK    7  A    between atoms: C_13  and  C_14
REMARK    8  A    between atoms: C_14  and  N_15
REMARK                            x       y       z     vdW  Elec       q    Type
REMARK                         _______ _______ _______ _____ _____    ______ ____
ROOT
ATOM      1  C   UNL     1      44.309   3.787  10.074  0.00  0.00    +0.000 C 
ENDROOT
BRANCH   1   2
ATOM      2  C   UNL     1      44.768   4.161   8.663  0.00  0.00    +0.000 C 
BRANCH   2   7
ATOM      3  C   UNL     1      47.001   2.179   6.275  0.00  0.00    +0.000 A 
ATOM      4  C   UNL     1      47.074   0.949   6.939  0.00  0.00    +0.000 A 
ATOM      5  C   UNL     1      46.379   0.747   8.132  0.00  0.00    +0.000 A 
ATOM      6  C   UNL     1      45.609   1.774   8.679  0.00  0.00    +0.000 A 
ATOM      7  C   UNL     1      45.520   3.012   8.033  0.00  0.00    +0.000 A 
ATOM      8  C   UNL     1      46.211   3.200   6.826  0.00  0.00    +0.000 A 
BRANCH   3   9
ATOM      9  C   UNL     1      47.756   2.411   4.991  0.00  0.00    +0.000 C 
BRANCH   9  10
ATOM     10  N   UNL     1      47.706   1.240   4.121  0.00  0.00    +0.000 NA
ATOM     11  H   UNL     1      48.397   1.345   3.382  0.00  0.00    +0.000 HD
ATOM     12  H   UNL     1      46.795   1.215   3.664  0.00  0.00    +0.000 HD
ENDBRANCH   9  10
ENDBRANCH   3   9
ENDBRANCH   2   7
ENDBRANCH   1   2
BRANCH   1  13
ATOM     13  C   UNL     1      44.034   5.015  10.944  0.00  0.00    +0.000 C 
BRANCH  13  14
ATOM     14  C   UNL     1      45.118   5.179  11.983  0.00  0.00    +0.000 A 
ATOM     15  C   UNL     1      45.710   6.424  12.203  0.00  0.00    +0.000 A 
ATOM     16  C   UNL     1      46.763   6.532  13.119  0.00  0.00    +0.000 A 
ATOM     17  C   UNL     1      47.179   5.377  13.784  0.00  0.00    +0.000 A 
ATOM     18  C   UNL     1      46.537   4.182  13.509  0.00  0.00    +0.000 A 
ATOM     19  N   UNL     1      45.522   4.058  12.625  0.00  0.00    +0.000 NA
BRANCH  16  20
ATOM     20  C   UNL     1      47.467   7.844  13.344  0.00  0.00    +0.000 C 
BRANCH  20  21
ATOM     21  N   UNL     1      46.607   8.814  14.011  0.00  0.00    +0.000 NA
ATOM     22  H   UNL     1      46.986   9.748  13.860  0.00  0.00    +0.000 HD
ATOM     23  H   UNL     1      46.638   8.651  15.016  0.00  0.00    +0.000 HD
ENDBRANCH  20  21
ENDBRANCH  16  20
ENDBRANCH  13  14
ENDBRANCH   1  13
TORSDOF 8
ENDMDL
MODEL 8
REMARK VINA RESULT:    -5.814      1.935      3.515
REMARK INTER + INTRA:          -8.990
REMARK INTER:                  -8.446
REMARK INTRA:                  -0.545
REMARK UNBOUND:                -0.797
REMARK  Name = 
REMARK  8 active torsions:
REMARK  status: ('A' for Active; 'I' for Inactive)
REMARK    1  A    between atoms: N_1  and  C_2
REMARK    2  A    between atoms: C_2  and  C_3
REMARK    3  A    between atoms: C_7  and  C_8
REMARK    4  A    between atoms: C_8  and  C_9
REMARK    5  A    between atoms: C_9  and  C_10
REMARK    6  A    between atoms: C_10  and  C_11
REMARK    7  A    between atoms: C_13  and  C_14
REMARK    8  A    between atoms: C_14  and  N_15
REMARK                            x       y       z     vdW  Elec       q    Type
REMARK                         _______ _______ _______ _____ _____    ______ ____
ROOT
ATOM      1  C   UNL     1      45.719   6.287  12.773  0.00  0.00    +0.000 C 
ENDROOT
BRANCH   1   2
ATOM      2  C   UNL     1      47.228   6.030  12.811  0.00  0.00    +0.000 C 
BRANCH   2   7
ATOM      3  C   UNL     1      47.987   4.398  16.184  0.00  0.00    +0.000 A 
ATOM      4  C   UNL     1      48.711   5.417  16.815  0.00  0.00    +0.000 A 
ATOM      5  C   UNL     1      48.922   6.637  16.172  0.00  0.00    +0.000 A 
ATOM      6  C   UNL     1      48.420   6.850  14.887  0.00  0.00    +0.000 A 
ATOM      7  C   UNL     1      47.694   5.847  14.236  0.00  0.00    +0.000 A 
ATOM      8  C   UNL     1      47.475   4.629  14.898  0.00  0.00    +0.000 A 
BRANCH   3   9
ATOM      9  C   UNL     1      47.762   3.073  16.866  0.00  0.00    +0.000 C 
BRANCH   9  10
ATOM     10  N   UNL     1      46.561   3.093  17.694  0.00  0.00    +0.000 NA
ATOM     11  H   UNL     1      46.829   3.210  18.668  0.00  0.00    +0.000 HD
ATOM     12  H   UNL     1      46.105   2.183  17.626  0.00  0.00    +0.000 HD
ENDBRANCH   9  10
ENDBRANCH   3   9
ENDBRANCH   2   7
ENDBRANCH   1   2
BRANCH   1  13
ATOM     13  C   UNL     1      45.198   6.493  11.350  0.00  0.00    +0.000 C 
BRANCH  13  14
ATOM     14  C   UNL     1      44.999   5.163  10.662  0.00  0.00    +0.000 A 
ATOM     15  C   UNL     1      45.516   4.936   9.386  0.00  0.00    +0.000 A 
ATOM     16  C   UNL     1      45.253   3.722   8.742  0.00  0.00    +0.000 A 
ATOM     17  C   UNL     1      44.477   2.775   9.414  0.00  0.00    +0.000 A 
ATOM     18  C   UNL     1      44.004   3.078  10.679  0.00  0.00    +0.000 A 
ATOM     19  N   UNL     1      44.244   4.247  11.313  0.00  0.00    +0.000 NA
BRANCH  16  20
ATOM     20  C   UNL     1      45.744   3.459   7.344  0.00  0.00    +0.000 C 
BRANCH  20  21
ATOM     21  N   UNL     1      46.933   4.243   7.029  0.00  0.00    +0.000 NA
ATOM     22  H   UNL     1      47.283   3.957   6.116  0.00  0.00    +0.000 HD
ATOM     23  H   UNL     1      47.666   4.019   7.700  0.00  0.00    +0.000 HD
ENDBRANCH  20  21
ENDBRANCH  16  20
ENDBRANCH  13  14
ENDBRANCH   1  13
TORSDOF 8
ENDMDL
MODEL 9
REMARK VINA RESULT:    -5.697      2.516      6.672
REMARK INTER + INTRA:          -8.825
REMARK INTER:                  -8.182
REMARK INTRA:                  -0.643
REMARK UNBOUND:                -0.797
REMARK  Name = 
REMARK  8 active torsions:
REMARK  status: ('A' for Active; 'I' for Inactive)
REMARK    1  A    between atoms: N_1  and  C_2
REMARK    2  A    between atoms: C_2  and  C_3
REMARK    3  A    between atoms: C_7  and  C_8
REMARK    4  A    between atoms: C_8  and  C_9
REMARK    5  A    between atoms: C_9  and  C_10
REMARK    6  A    between atoms: C_10  and  C_11
REMARK    7  A    between atoms: C_13  and  C_14
REMARK    8  A    between atoms: C_14  and  N_15
REMARK                            x       y       z     vdW  Elec       q    Type
REMARK                         _______ _______ _______ _____ _____    ______ ____
ROOT
ATOM      1  C   UNL     1      44.846   5.134  10.932  0.00  0.00    +0.000 C 
ENDROOT
BRANCH   1   2
ATOM      2  C   UNL     1      45.431   5.362   9.536  0.00  0.00    +0.000 C 
BRANCH   2   7
ATOM      3  C   UNL     1      46.660   2.771   7.008  0.00  0.00    +0.000 A 
ATOM      4  C   UNL     1      46.220   1.585   7.608  0.00  0.00    +0.000 A 
ATOM      5  C   UNL     1      45.500   1.622   8.803  0.00  0.00    +0.000 A 
ATOM      6  C   UNL     1      45.218   2.843   9.416  0.00  0.00    +0.000 A 
ATOM      7  C   UNL     1      45.647   4.042   8.834  0.00  0.00    +0.000 A 
ATOM      8  C   UNL     1      46.358   3.994   7.626  0.00  0.00    +0.000 A 
BRANCH   3   9
ATOM      9  C   UNL     1      47.448   2.741   5.723  0.00  0.00    +0.000 C 
BRANCH   9  10
ATOM     10  N   UNL     1      48.407   1.642   5.709  0.00  0.00    +0.000 NA
ATOM     11  H   UNL     1      48.692   1.461   4.749  0.00  0.00    +0.000 HD
ATOM     12  H   UNL     1      47.937   0.798   6.035  0.00  0.00    +0.000 HD
ENDBRANCH   9  10
ENDBRANCH   3   9
ENDBRANCH   2   7
ENDBRANCH   1   2
BRANCH   1  13
ATOM     13  C   UNL     1      45.885   5.326  12.039  0.00  0.00    +0.000 C 
BRANCH  13  14
ATOM     14  C   UNL     1      46.395   6.748  12.042  0.00  0.00    +0.000 A 
ATOM     15  C   UNL     1      47.752   7.018  11.853  0.00  0.00    +0.000 A 
ATOM     16  C   UNL     1      48.209   8.339  11.936  0.00  0.00    +0.000 A 
ATOM     17  C   UNL     1      47.275   9.343  12.205  0.00  0.00    +0.000 A 
ATOM     18  C   UNL     1      45.948   8.990  12.377  0.00  0.00    +0.000 A 
ATOM     19  N   UNL     1      45.491   7.720  12.305  0.00  0.00    +0.000 NA
BRANCH  16  20
ATOM     20  C   UNL     1      49.671   8.667  11.795  0.00  0.00    +0.000 C 
BRANCH  20  21
ATOM     21  N   UNL     1      50.515   7.503  12.036  0.00  0.00    +0.000 NA
ATOM     22  H   UNL     1      50.397   6.846  11.266  0.00  0.00    +0.000 HD
ATOM     23  H   UNL     1      50.189   7.024  12.874  0.00  0.00    +0.000 HD
ENDBRANCH  20  21
ENDBRANCH  16  20
ENDBRANCH  13  14
ENDBRANCH   1  13
TORSDOF 8
ENDMDL
