MODEL 1
REMARK VINA RESULT:    -8.272      0.000      0.000
REMARK INTER + INTRA:         -11.899
REMARK INTER:                 -11.173
REMARK INTRA:                  -0.726
REMARK UNBOUND:                -0.726
REMARK  Name = 
REMARK  6 active torsions:
REMARK  status: ('A' for Active; 'I' for Inactive)
REMARK    1  A    between atoms: C_2  and  C_4
REMARK    2  A    between atoms: C_7  and  O_8
REMARK    3  A    between atoms: O_8  and  C_9
REMARK    4  A    between atoms: C_9  and  C_10
REMARK    5  A    between atoms: C_10  and  C_11
REMARK    6  A    between atoms: C_15  and  C_16
REMARK                            x       y       z     vdW  Elec       q    Type
REMARK                         _______ _______ _______ _____ _____    ______ ____
ROOT
ATOM      1  C   UNL     1      43.875   5.117  12.076  0.00  0.00    +0.000 C 
ENDROOT
BRANCH   1   2
ATOM      2  C   UNL     1      45.291   5.481  12.443  0.00  0.00    +0.000 A 
ATOM      3  C   UNL     1      46.038   6.360  11.659  0.00  0.00    +0.000 A 
ATOM      4  C   UNL     1      47.333   6.702  12.042  0.00  0.00    +0.000 A 
ATOM      5  C   UNL     1      47.884   6.173  13.215  0.00  0.00    +0.000 A 
ATOM      6  C   UNL     1      47.145   5.326  14.062  0.00  0.00    +0.000 A 
ATOM      7  C   UNL     1      45.843   4.998  13.642  0.00  0.00    +0.000 A 
BRANCH   6   8
ATOM      8  C   UNL     1      47.656   4.911  15.399  0.00  0.00    +0.000 A 
ATOM      9  C   UNL     1      47.384   3.598  15.847  0.00  0.00    +0.000 A 
ATOM     10  C   UNL     1      47.937   3.078  17.021  0.00  0.00    +0.000 A 
ATOM     11  C   UNL     1      48.799   3.853  17.782  0.00  0.00    +0.000 A 
ATOM     12  C   UNL     1      49.062   5.164  17.396  0.00  0.00    +0.000 A 
ATOM     13  C   UNL     1      48.476   5.701  16.237  0.00  0.00    +0.000 A 
ATOM     14 CL   UNL     1      48.789   7.384  15.957  0.00  0.00    +0.000 Cl
ENDBRANCH   6   8
ENDBRANCH   1   2
BRANCH   1  15
ATOM     15  C   UNL     1      43.855   3.905  11.151  0.00  0.00    +0.000 C 
BRANCH  15  16
ATOM     16  O   UNL     1      43.770   4.337   9.789  0.00  0.00    +0.000 OA
BRANCH  16  20
ATOM     17  C   UNL     1      46.563   2.392   7.467  0.00  0.00    +0.000 A 
ATOM     18  C   UNL     1      45.833   1.674   8.417  0.00  0.00    +0.000 A 
ATOM     19  C   UNL     1      44.887   2.342   9.197  0.00  0.00    +0.000 A 
ATOM     20  C   UNL     1      44.706   3.702   8.995  0.00  0.00    +0.000 A 
ATOM     21  N   UNL     1      45.403   4.419   8.086  0.00  0.00    +0.000 NA
ATOM     22  C   UNL     1      46.322   3.753   7.349  0.00  0.00    +0.000 A 
BRANCH  17  24
ATOM     23  N   UNL     1      48.733   2.506   6.375  0.00  0.00    +0.000 N 
ATOM     24  C   UNL     1      47.589   1.789   6.595  0.00  0.00    +0.000 C 
ATOM     25  O   UNL     1      47.449   0.675   6.121  0.00  0.00    +0.000 OA
ATOM     26  H   UNL     1      49.468   2.024   5.872  0.00  0.00    +0.000 HD
ATOM     27  H   UNL     1      48.998   3.298   6.942  0.00  0.00    +0.000 HD
ENDBRANCH  17  24
ENDBRANCH  16  20
ENDBRANCH  15  16
ENDBRANCH   1  15
TORSDOF 6
ENDMDL
MODEL 2
REMARK VINA RESULT:    -8.245      1.937      3.945
REMARK INTER + INTRA:         -11.863
REMARK INTER:                 -11.026
REMARK INTRA:                  -0.838
REMARK UNBOUND:                -0.726
REMARK  Name = 
REMARK  6 active torsions:
REMARK  status: ('A' for Active; 'I' for Inactive)
REMARK    1  A    between atoms: C_2  and  C_4
REMARK    2  A    between atoms: C_7  and  O_8
REMARK    3  A    between atoms: O_8  and  C_9
REMARK    4  A    between atoms: C_9  and  C_10
REMARK    5  A    between atoms: C_10  and  C_11
REMARK    6  A    between atoms: C_15  and  C_16
REMARK                            x       y       z     vdW  Elec       q    Type
REMARK                         _______ _______ _______ _____ _____    ______ ____
ROOT
ATOM      1  C   UNL     1      43.485   4.785  12.326  0.00  0.00    +0.000 C 
ENDROOT
BRANCH   1   2
ATOM      2  C   UNL     1      44.824   5.312  12.776  0.00  0.00    +0.000 A 
ATOM      3  C   UNL     1      45.713   4.511  13.493  0.00  0.00    +0.000 A 
ATOM      4  C   UNL     1      46.956   5.016  13.865  0.00  0.00    +0.000 A 
ATOM      5  C   UNL     1      47.321   6.321  13.515  0.00  0.00    +0.000 A 
ATOM      6  C   UNL     1      46.476   7.143  12.745  0.00  0.00    +0.000 A 
ATOM      7  C   UNL     1      45.226   6.603  12.391  0.00  0.00    +0.000 A 
BRANCH   6   8
ATOM      8  C   UNL     1      46.931   8.458  12.213  0.00  0.00    +0.000 A 
ATOM      9  C   UNL     1      46.012   9.533  12.194  0.00  0.00    +0.000 A 
ATOM     10  C   UNL     1      46.387  10.833  11.842  0.00  0.00    +0.000 A 
ATOM     11  C   UNL     1      47.706  11.107  11.513  0.00  0.00    +0.000 A 
ATOM     12  C   UNL     1      48.633  10.070  11.482  0.00  0.00    +0.000 A 
ATOM     13  C   UNL     1      48.250   8.755  11.797  0.00  0.00    +0.000 A 
ATOM     14 CL   UNL     1      49.479   7.550  11.586  0.00  0.00    +0.000 Cl
ENDBRANCH   6   8
ENDBRANCH   1   2
BRANCH   1  15
ATOM     15  C   UNL     1      43.661   3.735  11.235  0.00  0.00    +0.000 C 
BRANCH  15  16
ATOM     16  O   UNL     1      43.770   4.376   9.959  0.00  0.00    +0.000 OA
BRANCH  16  20
ATOM     17  C   UNL     1      46.591   2.492   7.622  0.00  0.00    +0.000 A 
ATOM     18  C   UNL     1      45.799   1.738   8.492  0.00  0.00    +0.000 A 
ATOM     19  C   UNL     1      44.845   2.386   9.277  0.00  0.00    +0.000 A 
ATOM     20  C   UNL     1      44.717   3.762   9.161  0.00  0.00    +0.000 A 
ATOM     21  N   UNL     1      45.473   4.513   8.331  0.00  0.00    +0.000 NA
ATOM     22  C   UNL     1      46.400   3.864   7.587  0.00  0.00    +0.000 A 
BRANCH  17  24
ATOM     23  N   UNL     1      48.622   2.745   6.308  0.00  0.00    +0.000 N 
ATOM     24  C   UNL     1      47.632   1.912   6.751  0.00  0.00    +0.000 C 
ATOM     25  O   UNL     1      47.641   0.726   6.471  0.00  0.00    +0.000 OA
ATOM     26  H   UNL     1      49.385   2.301   5.812  0.00  0.00    +0.000 HD
ATOM     27  H   UNL     1      48.795   3.651   6.716  0.00  0.00    +0.000 HD
ENDBRANCH  17  24
ENDBRANCH  16  20
ENDBRANCH  15  16
ENDBRANCH   1  15
TORSDOF 6
ENDMDL
MODEL 3
REMARK VINA RESULT:    -7.714      1.997      2.572
REMARK INTER + INTRA:         -11.145
REMARK INTER:                 -10.212
REMARK INTRA:                  -0.934
REMARK UNBOUND:                -0.726
REMARK  Name = 
REMARK  6 active torsions:
REMARK  status: ('A' for Active; 'I' for Inactive)
REMARK    1  A    between atoms: C_2  and  C_4
REMARK    2  A    between atoms: C_7  and  O_8
REMARK    3  A    between atoms: O_8  and  C_9
REMARK    4  A    between atoms: C_9  and  C_10
REMARK    5  A    between atoms: C_10  and  C_11
REMARK    6  A    between atoms: C_15  and  C_16
REMARK                            x       y       z     vdW  Elec       q    Type
REMARK                         _______ _______ _______ _____ _____    ______ ____
ROOT
ATOM      1  C   UNL     1      44.890   3.752  12.098  0.00  0.00    +0.000 C 
ENDROOT
BRANCH   1   2
ATOM      2  C   UNL     1      45.412   5.166  12.121  0.00  0.00    +0.000 A 
ATOM      3  C   UNL     1      44.690   6.213  11.547  0.00  0.00    +0.000 A 
ATOM      4  C   UNL     1      45.183   7.514  11.614  0.00  0.00    +0.000 A 
ATOM      5  C   UNL     1      46.396   7.776  12.262  0.00  0.00    +0.000 A 
ATOM      6  C   UNL     1      47.128   6.758  12.900  0.00  0.00    +0.000 A 
ATOM      7  C   UNL     1      46.603   5.455  12.809  0.00  0.00    +0.000 A 
BRANCH   6   8
ATOM      8  C   UNL     1      48.317   7.057  13.746  0.00  0.00    +0.000 A 
ATOM      9  C   UNL     1      48.351   6.548  15.065  0.00  0.00    +0.000 A 
ATOM     10  C   UNL     1      49.480   6.661  15.883  0.00  0.00    +0.000 A 
ATOM     11  C   UNL     1      50.625   7.275  15.398  0.00  0.00    +0.000 A 
ATOM     12  C   UNL     1      50.619   7.823  14.120  0.00  0.00    +0.000 A 
ATOM     13  C   UNL     1      49.473   7.746  13.311  0.00  0.00    +0.000 A 
ATOM     14 CL   UNL     1      49.570   8.588  11.799  0.00  0.00    +0.000 Cl
ENDBRANCH   6   8
ENDBRANCH   1   2
BRANCH   1  15
ATOM     15  C   UNL     1      43.685   3.641  11.170  0.00  0.00    +0.000 C 
BRANCH  15  16
ATOM     16  O   UNL     1      43.752   2.413  10.435  0.00  0.00    +0.000 OA
BRANCH  16  20
ATOM     17  C   UNL     1      46.382   2.721   7.279  0.00  0.00    +0.000 A 
ATOM     18  C   UNL     1      45.602   3.823   7.639  0.00  0.00    +0.000 A 
ATOM     19  C   UNL     1      44.716   3.709   8.711  0.00  0.00    +0.000 A 
ATOM     20  C   UNL     1      44.645   2.498   9.384  0.00  0.00    +0.000 A 
ATOM     21  N   UNL     1      45.386   1.418   9.053  0.00  0.00    +0.000 NA
ATOM     22  C   UNL     1      46.230   1.548   8.003  0.00  0.00    +0.000 A 
BRANCH  17  24
ATOM     23  N   UNL     1      48.671   2.591   6.467  0.00  0.00    +0.000 N 
ATOM     24  C   UNL     1      47.345   2.728   6.161  0.00  0.00    +0.000 C 
ATOM     25  O   UNL     1      46.976   2.808   5.002  0.00  0.00    +0.000 OA
ATOM     26  H   UNL     1      49.297   2.481   5.679  0.00  0.00    +0.000 HD
ATOM     27  H   UNL     1      48.992   2.268   7.368  0.00  0.00    +0.000 HD
ENDBRANCH  17  24
ENDBRANCH  16  20
ENDBRANCH  15  16
ENDBRANCH   1  15
TORSDOF 6
ENDMDL
MODEL 4
REMARK VINA RESULT:    -7.643      4.073      7.836
REMARK INTER + INTRA:         -11.051
REMARK INTER:                  -9.882
REMARK INTRA:                  -1.169
REMARK UNBOUND:                -0.726
REMARK  Name = 
REMARK  6 active torsions:
REMARK  status: ('A' for Active; 'I' for Inactive)
REMARK    1  A    between atoms: C_2  and  C_4
REMARK    2  A    between atoms: C_7  and  O_8
REMARK    3  A    between atoms: O_8  and  C_9
REMARK    4  A    between atoms: C_9  and  C_10
REMARK    5  A    between atoms: C_10  and  C_11
REMARK    6  A    between atoms: C_15  and  C_16
REMARK                            x       y       z     vdW  Elec       q    Type
REMARK                         _______ _______ _______ _____ _____    ______ ____
ROOT
ATOM      1  C   UNL     1      48.867   8.157  12.142  0.00  0.00    +0.000 C 
ENDROOT
BRANCH   1   2
ATOM      2  C   UNL     1      47.393   7.885  11.985  0.00  0.00    +0.000 A 
ATOM      3  C   UNL     1      46.440   8.853  12.304  0.00  0.00    +0.000 A 
ATOM      4  C   UNL     1      45.087   8.582  12.117  0.00  0.00    +0.000 A 
ATOM      5  C   UNL     1      44.680   7.346  11.600  0.00  0.00    +0.000 A 
ATOM      6  C   UNL     1      45.610   6.364  11.214  0.00  0.00    +0.000 A 
ATOM      7  C   UNL     1      46.968   6.668  11.422  0.00  0.00    +0.000 A 
BRANCH   6   8
ATOM      8  C   UNL     1      45.195   5.128  10.494  0.00  0.00    +0.000 A 
ATOM      9  C   UNL     1      45.545   4.991   9.131  0.00  0.00    +0.000 A 
ATOM     10  C   UNL     1      45.319   3.812   8.414  0.00  0.00    +0.000 A 
ATOM     11  C   UNL     1      44.747   2.718   9.046  0.00  0.00    +0.000 A 
ATOM     12  C   UNL     1      44.353   2.824  10.375  0.00  0.00    +0.000 A 
ATOM     13  C   UNL     1      44.543   4.021  11.087  0.00  0.00    +0.000 A 
ATOM     14 CL   UNL     1      43.882   4.048  12.690  0.00  0.00    +0.000 Cl
ENDBRANCH   6   8
ENDBRANCH   1   2
BRANCH   1  15
ATOM     15  C   UNL     1      49.481   7.207  13.166  0.00  0.00    +0.000 C 
BRANCH  15  16
ATOM     16  O   UNL     1      49.192   7.670  14.490  0.00  0.00    +0.000 OA
BRANCH  16  20
ATOM     17  C   UNL     1      48.011   4.607  16.978  0.00  0.00    +0.000 A 
ATOM     18  C   UNL     1      48.839   5.618  17.472  0.00  0.00    +0.000 A 
ATOM     19  C   UNL     1      49.231   6.652  16.621  0.00  0.00    +0.000 A 
ATOM     20  C   UNL     1      48.779   6.637  15.310  0.00  0.00    +0.000 A 
ATOM     21  N   UNL     1      47.982   5.669  14.808  0.00  0.00    +0.000 NA
ATOM     22  C   UNL     1      47.623   4.670  15.648  0.00  0.00    +0.000 A 
BRANCH  17  24
ATOM     23  N   UNL     1      48.237   3.166  18.924  0.00  0.00    +0.000 N 
ATOM     24  C   UNL     1      47.541   3.465  17.786  0.00  0.00    +0.000 C 
ATOM     25  O   UNL     1      46.543   2.835  17.480  0.00  0.00    +0.000 OA
ATOM     26  H   UNL     1      47.828   2.457  19.520  0.00  0.00    +0.000 HD
ATOM     27  H   UNL     1      48.896   3.805  19.344  0.00  0.00    +0.000 HD
ENDBRANCH  17  24
ENDBRANCH  16  20
ENDBRANCH  15  16
ENDBRANCH   1  15
TORSDOF 6
ENDMDL
MODEL 5
REMARK VINA RESULT:    -7.307      1.744      3.376
REMARK INTER + INTRA:         -10.597
REMARK INTER:                  -9.417
REMARK INTRA:                  -1.180
REMARK UNBOUND:                -0.726
REMARK  Name = 
REMARK  6 active torsions:
REMARK  status: ('A' for Active; 'I' for Inactive)
REMARK    1  A    between atoms: C_2  and  C_4
REMARK    2  A    between atoms: C_7  and  O_8
REMARK    3  A    between atoms: O_8  and  C_9
REMARK    4  A    between atoms: C_9  and  C_10
REMARK    5  A    between atoms: C_10  and  C_11
REMARK    6  A    between atoms: C_15  and  C_16
REMARK                            x       y       z     vdW  Elec       q    Type
REMARK                         _______ _______ _______ _____ _____    ______ ____
ROOT
ATOM      1  C   UNL     1      43.638   5.082  12.319  0.00  0.00    +0.000 C 
ENDROOT
BRANCH   1   2
ATOM      2  C   UNL     1      45.055   5.132  12.831  0.00  0.00    +0.000 A 
ATOM      3  C   UNL     1      45.664   4.006  13.385  0.00  0.00    +0.000 A 
ATOM      4  C   UNL     1      46.986   4.075  13.818  0.00  0.00    +0.000 A 
ATOM      5  C   UNL     1      47.709   5.267  13.691  0.00  0.00    +0.000 A 
ATOM      6  C   UNL     1      47.149   6.409  13.089  0.00  0.00    +0.000 A 
ATOM      7  C   UNL     1      45.811   6.306  12.667  0.00  0.00    +0.000 A 
BRANCH   6   8
ATOM      8  C   UNL     1      47.967   7.616  12.783  0.00  0.00    +0.000 A 
ATOM      9  C   UNL     1      48.705   7.643  11.577  0.00  0.00    +0.000 A 
ATOM     10  C   UNL     1      49.389   8.783  11.142  0.00  0.00    +0.000 A 
ATOM     11  C   UNL     1      49.342   9.947  11.896  0.00  0.00    +0.000 A 
ATOM     12  C   UNL     1      48.659   9.950  13.108  0.00  0.00    +0.000 A 
ATOM     13  C   UNL     1      48.005   8.794  13.566  0.00  0.00    +0.000 A 
ATOM     14 CL   UNL     1      47.312   8.908  15.151  0.00  0.00    +0.000 Cl
ENDBRANCH   6   8
ENDBRANCH   1   2
BRANCH   1  15
ATOM     15  C   UNL     1      43.521   4.099  11.159  0.00  0.00    +0.000 C 
BRANCH  15  16
ATOM     16  O   UNL     1      43.754   4.780   9.922  0.00  0.00    +0.000 OA
BRANCH  16  20
ATOM     17  C   UNL     1      46.540   2.763   7.655  0.00  0.00    +0.000 A 
ATOM     18  C   UNL     1      45.682   2.047   8.493  0.00  0.00    +0.000 A 
ATOM     19  C   UNL     1      44.739   2.740   9.255  0.00  0.00    +0.000 A 
ATOM     20  C   UNL     1      44.691   4.122   9.148  0.00  0.00    +0.000 A 
ATOM     21  N   UNL     1      45.513   4.837   8.349  0.00  0.00    +0.000 NA
ATOM     22  C   UNL     1      46.426   4.145   7.628  0.00  0.00    +0.000 A 
BRANCH  17  24
ATOM     23  N   UNL     1      47.990   2.820   5.704  0.00  0.00    +0.000 N 
ATOM     24  C   UNL     1      47.575   2.135   6.812  0.00  0.00    +0.000 C 
ATOM     25  O   UNL     1      48.079   1.066   7.111  0.00  0.00    +0.000 OA
ATOM     26  H   UNL     1      48.781   2.424   5.209  0.00  0.00    +0.000 HD
ATOM     27  H   UNL     1      47.795   3.800   5.563  0.00  0.00    +0.000 HD
ENDBRANCH  17  24
ENDBRANCH  16  20
ENDBRANCH  15  16
ENDBRANCH   1  15
TORSDOF 6
ENDMDL
MODEL 6
REMARK VINA RESULT:    -6.816      3.905      5.715
REMARK INTER + INTRA:          -9.934
REMARK INTER:                  -8.297
REMARK INTRA:                  -1.637
REMARK UNBOUND:                -0.726
REMARK  Name = 
REMARK  6 active torsions:
REMARK  status: ('A' for Active; 'I' for Inactive)
REMARK    1  A    between atoms: C_2  and  C_4
REMARK    2  A    between atoms: C_7  and  O_8
REMARK    3  A    between atoms: O_8  and  C_9
REMARK    4  A    between atoms: C_9  and  C_10
REMARK    5  A    between atoms: C_10  and  C_11
REMARK    6  A    between atoms: C_15  and  C_16
REMARK                            x       y       z     vdW  Elec       q    Type
REMARK                         _______ _______ _______ _____ _____    ______ ____
ROOT
ATOM      1  C   UNL     1      48.683   9.447  15.193  0.00  0.00    +0.000 C 
ENDROOT
BRANCH   1   2
ATOM      2  C   UNL     1      48.615   8.564  16.412  0.00  0.00    +0.000 A 
ATOM      3  C   UNL     1      47.991   8.993  17.584  0.00  0.00    +0.000 A 
ATOM      4  C   UNL     1      47.916   8.141  18.683  0.00  0.00    +0.000 A 
ATOM      5  C   UNL     1      48.456   6.851  18.613  0.00  0.00    +0.000 A 
ATOM      6  C   UNL     1      49.044   6.359  17.433  0.00  0.00    +0.000 A 
ATOM      7  C   UNL     1      49.108   7.248  16.344  0.00  0.00    +0.000 A 
BRANCH   6   8
ATOM      8  C   UNL     1      49.451   4.933  17.293  0.00  0.00    +0.000 A 
ATOM      9  C   UNL     1      50.809   4.596  17.495  0.00  0.00    +0.000 A 
ATOM     10  C   UNL     1      51.257   3.271  17.519  0.00  0.00    +0.000 A 
ATOM     11  C   UNL     1      50.351   2.233  17.360  0.00  0.00    +0.000 A 
ATOM     12  C   UNL     1      49.012   2.523  17.121  0.00  0.00    +0.000 A 
ATOM     13  C   UNL     1      48.567   3.854  17.056  0.00  0.00    +0.000 A 
ATOM     14 CL   UNL     1      46.902   4.063  16.620  0.00  0.00    +0.000 Cl
ENDBRANCH   6   8
ENDBRANCH   1   2
BRANCH   1  15
ATOM     15  C   UNL     1      48.757   8.604  13.924  0.00  0.00    +0.000 C 
BRANCH  15  16
ATOM     16  O   UNL     1      47.537   8.732  13.186  0.00  0.00    +0.000 OA
BRANCH  16  20
ATOM     17  C   UNL     1      45.538   5.134  13.021  0.00  0.00    +0.000 A 
ATOM     18  C   UNL     1      46.920   5.148  13.225  0.00  0.00    +0.000 A 
ATOM     19  C   UNL     1      47.587   6.372  13.281  0.00  0.00    +0.000 A 
ATOM     20  C   UNL     1      46.847   7.536  13.134  0.00  0.00    +0.000 A 
ATOM     21  N   UNL     1      45.511   7.548  12.932  0.00  0.00    +0.000 NA
ATOM     22  C   UNL     1      44.887   6.349  12.869  0.00  0.00    +0.000 A 
BRANCH  17  24
ATOM     23  N   UNL     1      45.363   2.763  12.511  0.00  0.00    +0.000 N 
ATOM     24  C   UNL     1      44.734   3.900  12.938  0.00  0.00    +0.000 C 
ATOM     25  O   UNL     1      43.564   3.876  13.279  0.00  0.00    +0.000 OA
ATOM     26  H   UNL     1      44.823   1.908  12.575  0.00  0.00    +0.000 HD
ATOM     27  H   UNL     1      46.367   2.678  12.469  0.00  0.00    +0.000 HD
ENDBRANCH  17  24
ENDBRANCH  16  20
ENDBRANCH  15  16
ENDBRANCH   1  15
TORSDOF 6
ENDMDL
MODEL 7
REMARK VINA RESULT:    -6.659      5.138      8.228
REMARK INTER + INTRA:          -9.720
REMARK INTER:                  -8.949
REMARK INTRA:                  -0.772
REMARK UNBOUND:                -0.726
REMARK  Name = 
REMARK  6 active torsions:
REMARK  status: ('A' for Active; 'I' for Inactive)
REMARK    1  A    between atoms: C_2  and  C_4
REMARK    2  A    between atoms: C_7  and  O_8
REMARK    3  A    between atoms: O_8  and  C_9
REMARK    4  A    between atoms: C_9  and  C_10
REMARK    5  A    between atoms: C_10  and  C_11
REMARK    6  A    between atoms: C_15  and  C_16
REMARK                            x       y       z     vdW  Elec       q    Type
REMARK                         _______ _______ _______ _____ _____    ______ ____
ROOT
ATOM      1  C   UNL     1      48.978   7.244  15.354  0.00  0.00    +0.000 C 
ENDROOT
BRANCH   1   2
ATOM      2  C   UNL     1      48.423   7.187  13.954  0.00  0.00    +0.000 A 
ATOM      3  C   UNL     1      49.138   7.697  12.870  0.00  0.00    +0.000 A 
ATOM      4  C   UNL     1      48.612   7.600  11.584  0.00  0.00    +0.000 A 
ATOM      5  C   UNL     1      47.373   6.984  11.373  0.00  0.00    +0.000 A 
ATOM      6  C   UNL     1      46.645   6.408  12.431  0.00  0.00    +0.000 A 
ATOM      7  C   UNL     1      47.203   6.528  13.718  0.00  0.00    +0.000 A 
BRANCH   6   8
ATOM      8  C   UNL     1      45.422   5.591  12.191  0.00  0.00    +0.000 A 
ATOM      9  C   UNL     1      44.296   6.219  11.609  0.00  0.00    +0.000 A 
ATOM     10  C   UNL     1      43.158   5.505  11.222  0.00  0.00    +0.000 A 
ATOM     11  C   UNL     1      43.115   4.128  11.388  0.00  0.00    +0.000 A 
ATOM     12  C   UNL     1      44.187   3.479  11.992  0.00  0.00    +0.000 A 
ATOM     13  C   UNL     1      45.315   4.199  12.418  0.00  0.00    +0.000 A 
ATOM     14 CL   UNL     1      46.510   3.277  13.271  0.00  0.00    +0.000 Cl
ENDBRANCH   6   8
ENDBRANCH   1   2
BRANCH   1  15
ATOM     15  C   UNL     1      48.663   5.956  16.108  0.00  0.00    +0.000 C 
BRANCH  15  16
ATOM     16  O   UNL     1      49.416   5.910  17.325  0.00  0.00    +0.000 OA
BRANCH  16  20
ATOM     17  C   UNL     1      51.663   2.470  17.614  0.00  0.00    +0.000 A 
ATOM     18  C   UNL     1      52.268   3.711  17.826  0.00  0.00    +0.000 A 
ATOM     19  C   UNL     1      51.498   4.870  17.728  0.00  0.00    +0.000 A 
ATOM     20  C   UNL     1      50.150   4.744  17.424  0.00  0.00    +0.000 A 
ATOM     21  N   UNL     1      49.543   3.557  17.211  0.00  0.00    +0.000 NA
ATOM     22  C   UNL     1      50.312   2.447  17.300  0.00  0.00    +0.000 A 
BRANCH  17  24
ATOM     23  N   UNL     1      51.686   0.094  18.131  0.00  0.00    +0.000 N 
ATOM     24  C   UNL     1      52.382   1.184  17.687  0.00  0.00    +0.000 C 
ATOM     25  O   UNL     1      53.540   1.079  17.322  0.00  0.00    +0.000 OA
ATOM     26  H   UNL     1      52.164  -0.796  18.060  0.00  0.00    +0.000 HD
ATOM     27  H   UNL     1      50.679   0.078  18.193  0.00  0.00    +0.000 HD
ENDBRANCH  17  24
ENDBRANCH  16  20
ENDBRANCH  15  16
ENDBRANCH   1  15
TORSDOF 6
ENDMDL
MODEL 8
REMARK VINA RESULT:    -6.414      4.790      7.798
REMARK INTER + INTRA:          -9.390
REMARK INTER:                  -7.914
REMARK INTRA:                  -1.476
REMARK UNBOUND:                -0.726
REMARK  Name = 
REMARK  6 active torsions:
REMARK  status: ('A' for Active; 'I' for Inactive)
REMARK    1  A    between atoms: C_2  and  C_4
REMARK    2  A    between atoms: C_7  and  O_8
REMARK    3  A    between atoms: O_8  and  C_9
REMARK    4  A    between atoms: C_9  and  C_10
REMARK    5  A    between atoms: C_10  and  C_11
REMARK    6  A    between atoms: C_15  and  C_16
REMARK                            x       y       z     vdW  Elec       q    Type
REMARK                         _______ _______ _______ _____ _____    ______ ____
ROOT
ATOM      1  C   UNL     1      48.299   9.253  16.161  0.00  0.00    +0.000 C 
ENDROOT
BRANCH   1   2
ATOM      2  C   UNL     1      48.564   8.540  14.859  0.00  0.00    +0.000 A 
ATOM      3  C   UNL     1      49.821   8.577  14.257  0.00  0.00    +0.000 A 
ATOM      4  C   UNL     1      50.043   7.881  13.071  0.00  0.00    +0.000 A 
ATOM      5  C   UNL     1      49.011   7.136  12.486  0.00  0.00    +0.000 A 
ATOM      6  C   UNL     1      47.745   7.029  13.090  0.00  0.00    +0.000 A 
ATOM      7  C   UNL     1      47.554   7.749  14.284  0.00  0.00    +0.000 A 
BRANCH   6   8
ATOM      8  C   UNL     1      46.706   6.094  12.575  0.00  0.00    +0.000 A 
ATOM      9  C   UNL     1      46.022   6.435  11.384  0.00  0.00    +0.000 A 
ATOM     10  C   UNL     1      45.133   5.559  10.754  0.00  0.00    +0.000 A 
ATOM     11  C   UNL     1      44.911   4.298  11.287  0.00  0.00    +0.000 A 
ATOM     12  C   UNL     1      45.534   3.938  12.477  0.00  0.00    +0.000 A 
ATOM     13  C   UNL     1      46.397   4.831  13.134  0.00  0.00    +0.000 A 
ATOM     14 CL   UNL     1      46.994   4.297  14.671  0.00  0.00    +0.000 Cl
ENDBRANCH   6   8
ENDBRANCH   1   2
BRANCH   1  15
ATOM     15  C   UNL     1      49.016   8.553  17.310  0.00  0.00    +0.000 C 
BRANCH  15  16
ATOM     16  O   UNL     1      48.143   7.591  17.911  0.00  0.00    +0.000 OA
BRANCH  16  20
ATOM     17  C   UNL     1      49.455   3.722  17.383  0.00  0.00    +0.000 A 
ATOM     18  C   UNL     1      48.187   3.954  17.922  0.00  0.00    +0.000 A 
ATOM     19  C   UNL     1      47.751   5.269  18.095  0.00  0.00    +0.000 A 
ATOM     20  C   UNL     1      48.599   6.301  17.719  0.00  0.00    +0.000 A 
ATOM     21  N   UNL     1      49.830   6.101  17.200  0.00  0.00    +0.000 NA
ATOM     22  C   UNL     1      50.236   4.819  17.052  0.00  0.00    +0.000 A 
BRANCH  17  24
ATOM     23  N   UNL     1      50.979   1.942  18.034  0.00  0.00    +0.000 N 
ATOM     24  C   UNL     1      50.018   2.376  17.163  0.00  0.00    +0.000 C 
ATOM     25  O   UNL     1      49.613   1.654  16.267  0.00  0.00    +0.000 OA
ATOM     26  H   UNL     1      51.263   0.975  17.933  0.00  0.00    +0.000 HD
ATOM     27  H   UNL     1      51.152   2.389  18.921  0.00  0.00    +0.000 HD
ENDBRANCH  17  24
ENDBRANCH  16  20
ENDBRANCH  15  16
ENDBRANCH   1  15
TORSDOF 6
ENDMDL
MODEL 9
REMARK VINA RESULT:    -6.273      4.564      8.279
REMARK INTER + INTRA:          -9.199
REMARK INTER:                  -8.168
REMARK INTRA:                  -1.031
REMARK UNBOUND:                -0.726
REMARK  Name = 
REMARK  6 active torsions:
REMARK  status: ('A' for Active; 'I' for Inactive)
REMARK    1  A    between atoms: C_2  and  C_4
REMARK    2  A    between atoms: C_7  and  O_8
REMARK    3  A    between atoms: O_8  and  C_9
REMARK    4  A    between atoms: C_9  and  C_10
REMARK    5  A    between atoms: C_10  and  C_11
REMARK    6  A    between atoms: C_15  and  C_16
REMARK                            x       y       z     vdW  Elec       q    Type
REMARK                         _______ _______ _______ _____ _____    ______ ____
ROOT
ATOM      1  C   UNL     1      48.131   8.615  13.593  0.00  0.00    +0.000 C 
ENDROOT
BRANCH   1   2
ATOM      2  C   UNL     1      46.829   8.382  12.870  0.00  0.00    +0.000 A 
ATOM      3  C   UNL     1      46.138   9.433  12.268  0.00  0.00    +0.000 A 
ATOM      4  C   UNL     1      44.953   9.181  11.580  0.00  0.00    +0.000 A 
ATOM      5  C   UNL     1      44.458   7.875  11.483  0.00  0.00    +0.000 A 
ATOM      6  C   UNL     1      45.152   6.780  12.029  0.00  0.00    +0.000 A 
ATOM      7  C   UNL     1      46.342   7.071  12.722  0.00  0.00    +0.000 A 
BRANCH   6   8
ATOM      8  C   UNL     1      44.731   5.374  11.771  0.00  0.00    +0.000 A 
ATOM      9  C   UNL     1      44.045   4.677  12.793  0.00  0.00    +0.000 A 
ATOM     10  C   UNL     1      43.493   3.408  12.593  0.00  0.00    +0.000 A 
ATOM     11  C   UNL     1      43.593   2.798  11.351  0.00  0.00    +0.000 A 
ATOM     12  C   UNL     1      44.293   3.434  10.331  0.00  0.00    +0.000 A 
ATOM     13  C   UNL     1      44.883   4.692  10.541  0.00  0.00    +0.000 A 
ATOM     14 CL   UNL     1      45.833   5.299   9.224  0.00  0.00    +0.000 Cl
ENDBRANCH   6   8
ENDBRANCH   1   2
BRANCH   1  15
ATOM     15  C   UNL     1      49.029   7.386  13.486  0.00  0.00    +0.000 C 
BRANCH  15  16
ATOM     16  O   UNL     1      50.034   7.432  14.505  0.00  0.00    +0.000 OA
BRANCH  16  20
ATOM     17  C   UNL     1      48.825   5.611  17.996  0.00  0.00    +0.000 A 
ATOM     18  C   UNL     1      49.745   6.660  18.047  0.00  0.00    +0.000 A 
ATOM     19  C   UNL     1      50.147   7.272  16.859  0.00  0.00    +0.000 A 
ATOM     20  C   UNL     1      49.610   6.812  15.665  0.00  0.00    +0.000 A 
ATOM     21  N   UNL     1      48.722   5.797  15.590  0.00  0.00    +0.000 NA
ATOM     22  C   UNL     1      48.356   5.212  16.754  0.00  0.00    +0.000 A 
BRANCH  17  24
ATOM     23  N   UNL     1      48.508   3.534  19.221  0.00  0.00    +0.000 N 
ATOM     24  C   UNL     1      48.337   4.890  19.188  0.00  0.00    +0.000 C 
ATOM     25  O   UNL     1      47.840   5.481  20.132  0.00  0.00    +0.000 OA
ATOM     26  H   UNL     1      48.273   3.080  20.095  0.00  0.00    +0.000 HD
ATOM     27  H   UNL     1      49.132   3.048  18.596  0.00  0.00    +0.000 HD
ENDBRANCH  17  24
ENDBRANCH  16  20
ENDBRANCH  15  16
ENDBRANCH   1  15
TORSDOF 6
ENDMDL
