MODEL 1
REMARK VINA RESULT:    -7.849      0.000      0.000
REMARK INTER + INTRA:         -10.901
REMARK INTER:                 -10.143
REMARK INTRA:                  -0.758
REMARK UNBOUND:                -0.758
REMARK  Name = 
REMARK  6 active torsions:
REMARK  status: ('A' for Active; 'I' for Inactive)
REMARK    1  A    between atoms: C_1  and  C_2
REMARK    2  A    between atoms: C_6  and  C_7
REMARK    3  A    between atoms: C_7  and  C_8
REMARK    4  A    between atoms: C_11  and  C_12
REMARK    5  A    between atoms: C_12  and  N_13
REMARK    6  A    between atoms: C_14  and  C_16
REMARK                            x       y       z     vdW  Elec       q    Type
REMARK                         _______ _______ _______ _____ _____    ______ ____
ROOT
ATOM      1  C   UNL     1      46.934   8.084  13.218  0.00  0.00    +0.000 C 
ENDROOT
BRANCH   1   5
ATOM      2  C   UNL     1      44.756   5.481  10.734  0.00  0.00    +0.000 A 
ATOM      3  C   UNL     1      44.236   5.932  11.943  0.00  0.00    +0.000 A 
ATOM      4  N   UNL     1      44.917   6.754  12.776  0.00  0.00    +0.000 NA
ATOM      5  C   UNL     1      46.154   7.130  12.356  0.00  0.00    +0.000 A 
ATOM      6  C   UNL     1      46.689   6.652  11.166  0.00  0.00    +0.000 A 
ATOM      7  N   UNL     1      46.008   5.830  10.333  0.00  0.00    +0.000 NA
BRANCH   2   8
ATOM      8  C   UNL     1      43.917   4.661   9.791  0.00  0.00    +0.000 C 
BRANCH   8  14
ATOM      9  C   UNL     1      46.840   3.615   6.032  0.00  0.00    +0.000 C 
ATOM     10  C   UNL     1      46.131   3.125   7.258  0.00  0.00    +0.000 A 
ATOM     11  C   UNL     1      46.202   1.788   7.633  0.00  0.00    +0.000 A 
ATOM     12  C   UNL     1      45.487   1.369   8.748  0.00  0.00    +0.000 A 
ATOM     13  C   UNL     1      44.725   2.292   9.455  0.00  0.00    +0.000 A 
ATOM     14  C   UNL     1      44.718   3.623   9.040  0.00  0.00    +0.000 A 
ATOM     15  N   UNL     1      45.409   4.043   7.950  0.00  0.00    +0.000 NA
ENDBRANCH   8  14
ENDBRANCH   2   8
ENDBRANCH   1   5
BRANCH   1  16
ATOM     16  N   UNL     1      47.376   7.476  14.453  0.00  0.00    +0.000 N 
ATOM     17  C   UNL     1      48.598   6.868  14.556  0.00  0.00    +0.000 C 
ATOM     18  O   UNL     1      49.394   6.854  13.619  0.00  0.00    +0.000 OA
ATOM     19  H   UNL     1      46.652   7.275  15.138  0.00  0.00    +0.000 HD
BRANCH  17  20
ATOM     20  C   UNL     1      48.940   6.286  15.857  0.00  0.00    +0.000 A 
ATOM     21  C   UNL     1      49.953   6.856  16.616  0.00  0.00    +0.000 A 
ATOM     22  S   UNL     1      50.217   6.071  18.106  0.00  0.00    +0.000 S 
ATOM     23  C   UNL     1      49.015   4.913  17.769  0.00  0.00    +0.000 A 
ATOM     24  N   UNL     1      48.751   3.903  18.643  0.00  0.00    +0.000 NA
ATOM     25  C   UNL     1      47.841   3.076  18.242  0.00  0.00    +0.000 A 
ATOM     26  N   UNL     1      47.163   3.178  17.058  0.00  0.00    +0.000 N 
ATOM     27  C   UNL     1      47.356   4.210  16.172  0.00  0.00    +0.000 A 
ATOM     28  O   UNL     1      46.665   4.328  15.167  0.00  0.00    +0.000 OA
ATOM     29  C   UNL     1      48.399   5.142  16.552  0.00  0.00    +0.000 A 
ATOM     30  H   UNL     1      46.442   2.512  16.818  0.00  0.00    +0.000 HD
ENDBRANCH  17  20
ENDBRANCH   1  16
TORSDOF 5
ENDMDL
MODEL 2
REMARK VINA RESULT:    -7.723      1.088      1.520
REMARK INTER + INTRA:         -10.739
REMARK INTER:                 -10.221
REMARK INTRA:                  -0.518
REMARK UNBOUND:                -0.758
REMARK  Name = 
REMARK  6 active torsions:
REMARK  status: ('A' for Active; 'I' for Inactive)
REMARK    1  A    between atoms: C_1  and  C_2
REMARK    2  A    between atoms: C_6  and  C_7
REMARK    3  A    between atoms: C_7  and  C_8
REMARK    4  A    between atoms: C_11  and  C_12
REMARK    5  A    between atoms: C_12  and  N_13
REMARK    6  A    between atoms: C_14  and  C_16
REMARK                            x       y       z     vdW  Elec       q    Type
REMARK                         _______ _______ _______ _____ _____    ______ ____
ROOT
ATOM      1  C   UNL     1      46.654   7.432  13.117  0.00  0.00    +0.000 C 
ENDROOT
BRANCH   1   5
ATOM      2  C   UNL     1      44.847   4.321  10.940  0.00  0.00    +0.000 A 
ATOM      3  C   UNL     1      44.500   5.651  10.726  0.00  0.00    +0.000 A 
ATOM      4  N   UNL     1      45.046   6.675  11.422  0.00  0.00    +0.000 NA
ATOM      5  C   UNL     1      45.977   6.330  12.350  0.00  0.00    +0.000 A 
ATOM      6  C   UNL     1      46.299   5.000  12.591  0.00  0.00    +0.000 A 
ATOM      7  N   UNL     1      45.752   3.975  11.895  0.00  0.00    +0.000 NA
BRANCH   2   8
ATOM      8  C   UNL     1      44.295   3.228  10.064  0.00  0.00    +0.000 C 
BRANCH   8  14
ATOM      9  C   UNL     1      46.803  -0.209   7.683  0.00  0.00    +0.000 C 
ATOM     10  C   UNL     1      46.393   1.230   7.765  0.00  0.00    +0.000 A 
ATOM     11  C   UNL     1      46.870   2.158   6.847  0.00  0.00    +0.000 A 
ATOM     12  C   UNL     1      46.505   3.491   6.991  0.00  0.00    +0.000 A 
ATOM     13  C   UNL     1      45.676   3.858   8.045  0.00  0.00    +0.000 A 
ATOM     14  C   UNL     1      45.212   2.873   8.916  0.00  0.00    +0.000 A 
ATOM     15  N   UNL     1      45.566   1.570   8.787  0.00  0.00    +0.000 NA
ENDBRANCH   8  14
ENDBRANCH   2   8
ENDBRANCH   1   5
BRANCH   1  16
ATOM     16  N   UNL     1      47.195   6.976  14.377  0.00  0.00    +0.000 N 
ATOM     17  C   UNL     1      48.526   6.689  14.525  0.00  0.00    +0.000 C 
ATOM     18  O   UNL     1      49.328   6.852  13.607  0.00  0.00    +0.000 OA
ATOM     19  H   UNL     1      46.523   6.618  15.050  0.00  0.00    +0.000 HD
BRANCH  17  20
ATOM     20  C   UNL     1      48.961   6.234  15.848  0.00  0.00    +0.000 A 
ATOM     21  C   UNL     1      49.945   6.943  16.524  0.00  0.00    +0.000 A 
ATOM     22  S   UNL     1      50.328   6.293  18.054  0.00  0.00    +0.000 S 
ATOM     23  C   UNL     1      49.223   5.015  17.846  0.00  0.00    +0.000 A 
ATOM     24  N   UNL     1      49.080   4.052  18.797  0.00  0.00    +0.000 NA
ATOM     25  C   UNL     1      48.234   3.123  18.492  0.00  0.00    +0.000 A 
ATOM     26  N   UNL     1      47.509   3.080  17.332  0.00  0.00    +0.000 N 
ATOM     27  C   UNL     1      47.580   4.057  16.369  0.00  0.00    +0.000 A 
ATOM     28  O   UNL     1      46.848   4.042  15.387  0.00  0.00    +0.000 OA
ATOM     29  C   UNL     1      48.549   5.101  16.642  0.00  0.00    +0.000 A 
ATOM     30  H   UNL     1      46.843   2.338  17.167  0.00  0.00    +0.000 HD
ENDBRANCH  17  20
ENDBRANCH   1  16
TORSDOF 5
ENDMDL
MODEL 3
REMARK VINA RESULT:    -7.335      2.851      4.945
REMARK INTER + INTRA:         -10.237
REMARK INTER:                  -9.450
REMARK INTRA:                  -0.787
REMARK UNBOUND:                -0.758
REMARK  Name = 
REMARK  6 active torsions:
REMARK  status: ('A' for Active; 'I' for Inactive)
REMARK    1  A    between atoms: C_1  and  C_2
REMARK    2  A    between atoms: C_6  and  C_7
REMARK    3  A    between atoms: C_7  and  C_8
REMARK    4  A    between atoms: C_11  and  C_12
REMARK    5  A    between atoms: C_12  and  N_13
REMARK    6  A    between atoms: C_14  and  C_16
REMARK                            x       y       z     vdW  Elec       q    Type
REMARK                         _______ _______ _______ _____ _____    ______ ____
ROOT
ATOM      1  C   UNL     1      47.287   5.790  14.670  0.00  0.00    +0.000 C 
ENDROOT
BRANCH   1   5
ATOM      2  C   UNL     1      44.955   3.802  11.790  0.00  0.00    +0.000 A 
ATOM      3  C   UNL     1      44.802   5.162  12.032  0.00  0.00    +0.000 A 
ATOM      4  N   UNL     1      45.521   5.830  12.965  0.00  0.00    +0.000 NA
ATOM      5  C   UNL     1      46.425   5.089  13.657  0.00  0.00    +0.000 A 
ATOM      6  C   UNL     1      46.555   3.722  13.443  0.00  0.00    +0.000 A 
ATOM      7  N   UNL     1      45.835   3.054  12.510  0.00  0.00    +0.000 NA
BRANCH   2   8
ATOM      8  C   UNL     1      44.214   3.128  10.666  0.00  0.00    +0.000 C 
BRANCH   8  14
ATOM      9  C   UNL     1      46.777   0.248   7.681  0.00  0.00    +0.000 C 
ATOM     10  C   UNL     1      46.249   1.620   7.971  0.00  0.00    +0.000 A 
ATOM     11  C   UNL     1      46.548   2.688   7.132  0.00  0.00    +0.000 A 
ATOM     12  C   UNL     1      46.079   3.952   7.467  0.00  0.00    +0.000 A 
ATOM     13  C   UNL     1      45.328   4.115   8.625  0.00  0.00    +0.000 A 
ATOM     14  C   UNL     1      45.042   2.998   9.408  0.00  0.00    +0.000 A 
ATOM     15  N   UNL     1      45.499   1.759   9.094  0.00  0.00    +0.000 NA
ENDBRANCH   8  14
ENDBRANCH   2   8
ENDBRANCH   1   5
BRANCH   1  16
ATOM     16  N   UNL     1      47.562   7.161  14.306  0.00  0.00    +0.000 N 
ATOM     17  C   UNL     1      48.525   7.481  13.387  0.00  0.00    +0.000 C 
ATOM     18  O   UNL     1      49.166   6.615  12.795  0.00  0.00    +0.000 OA
ATOM     19  H   UNL     1      47.218   7.872  14.946  0.00  0.00    +0.000 HD
BRANCH  17  20
ATOM     20  C   UNL     1      48.716   8.904  13.096  0.00  0.00    +0.000 A 
ATOM     21  C   UNL     1      49.971   9.474  13.266  0.00  0.00    +0.000 A 
ATOM     22  S   UNL     1      50.029  11.132  12.873  0.00  0.00    +0.000 S 
ATOM     23  C   UNL     1      48.367  11.157  12.505  0.00  0.00    +0.000 A 
ATOM     24  N   UNL     1      47.751  12.310  12.125  0.00  0.00    +0.000 NA
ATOM     25  C   UNL     1      46.481  12.190  11.912  0.00  0.00    +0.000 A 
ATOM     26  N   UNL     1      45.778  11.022  12.028  0.00  0.00    +0.000 N 
ATOM     27  C   UNL     1      46.367   9.825  12.354  0.00  0.00    +0.000 A 
ATOM     28  O   UNL     1      45.730   8.778  12.355  0.00  0.00    +0.000 OA
ATOM     29  C   UNL     1      47.784   9.911  12.648  0.00  0.00    +0.000 A 
ATOM     30  H   UNL     1      44.790  10.992  11.820  0.00  0.00    +0.000 HD
ENDBRANCH  17  20
ENDBRANCH   1  16
TORSDOF 5
ENDMDL
MODEL 4
REMARK VINA RESULT:    -7.318      2.542      4.293
REMARK INTER + INTRA:         -10.216
REMARK INTER:                  -9.257
REMARK INTRA:                  -0.959
REMARK UNBOUND:                -0.758
REMARK  Name = 
REMARK  6 active torsions:
REMARK  status: ('A' for Active; 'I' for Inactive)
REMARK    1  A    between atoms: C_1  and  C_2
REMARK    2  A    between atoms: C_6  and  C_7
REMARK    3  A    between atoms: C_7  and  C_8
REMARK    4  A    between atoms: C_11  and  C_12
REMARK    5  A    between atoms: C_12  and  N_13
REMARK    6  A    between atoms: C_14  and  C_16
REMARK                            x       y       z     vdW  Elec       q    Type
REMARK                         _______ _______ _______ _____ _____    ______ ____
ROOT
ATOM      1  C   UNL     1      46.887   5.132  14.691  0.00  0.00    +0.000 C 
ENDROOT
BRANCH   1   5
ATOM      2  C   UNL     1      45.130   3.903  11.074  0.00  0.00    +0.000 A 
ATOM      3  C   UNL     1      45.344   3.007  12.115  0.00  0.00    +0.000 A 
ATOM      4  N   UNL     1      45.926   3.364  13.285  0.00  0.00    +0.000 NA
ATOM      5  C   UNL     1      46.285   4.670  13.394  0.00  0.00    +0.000 A 
ATOM      6  C   UNL     1      46.104   5.559  12.341  0.00  0.00    +0.000 A 
ATOM      7  N   UNL     1      45.523   5.202  11.171  0.00  0.00    +0.000 NA
BRANCH   2   8
ATOM      8  C   UNL     1      44.378   3.486   9.838  0.00  0.00    +0.000 C 
BRANCH   8  14
ATOM      9  C   UNL     1      46.818  -0.137   7.673  0.00  0.00    +0.000 C 
ATOM     10  C   UNL     1      46.438   1.311   7.668  0.00  0.00    +0.000 A 
ATOM     11  C   UNL     1      46.936   2.173   6.697  0.00  0.00    +0.000 A 
ATOM     12  C   UNL     1      46.597   3.520   6.761  0.00  0.00    +0.000 A 
ATOM     13  C   UNL     1      45.774   3.966   7.789  0.00  0.00    +0.000 A 
ATOM     14  C   UNL     1      45.289   3.044   8.715  0.00  0.00    +0.000 A 
ATOM     15  N   UNL     1      45.617   1.728   8.665  0.00  0.00    +0.000 NA
ENDBRANCH   8  14
ENDBRANCH   2   8
ENDBRANCH   1   5
BRANCH   1  16
ATOM     16  N   UNL     1      47.554   6.408  14.566  0.00  0.00    +0.000 N 
ATOM     17  C   UNL     1      48.724   6.674  15.226  0.00  0.00    +0.000 C 
ATOM     18  O   UNL     1      49.285   5.825  15.916  0.00  0.00    +0.000 OA
ATOM     19  H   UNL     1      46.992   7.174  14.205  0.00  0.00    +0.000 HD
BRANCH  17  20
ATOM     20  C   UNL     1      49.310   8.002  15.024  0.00  0.00    +0.000 A 
ATOM     21  C   UNL     1      49.556   8.815  16.123  0.00  0.00    +0.000 A 
ATOM     22  S   UNL     1      50.252  10.319  15.721  0.00  0.00    +0.000 S 
ATOM     23  C   UNL     1      50.207   9.954  14.059  0.00  0.00    +0.000 A 
ATOM     24  N   UNL     1      50.634  10.855  13.132  0.00  0.00    +0.000 NA
ATOM     25  C   UNL     1      50.509  10.460  11.907  0.00  0.00    +0.000 A 
ATOM     26  N   UNL     1      50.013   9.243  11.528  0.00  0.00    +0.000 N 
ATOM     27  C   UNL     1      49.623   8.281  12.428  0.00  0.00    +0.000 A 
ATOM     28  O   UNL     1      49.274   7.165  12.061  0.00  0.00    +0.000 OA
ATOM     29  C   UNL     1      49.700   8.690  13.816  0.00  0.00    +0.000 A 
ATOM     30  H   UNL     1      49.967   8.985  10.552  0.00  0.00    +0.000 HD
ENDBRANCH  17  20
ENDBRANCH   1  16
TORSDOF 5
ENDMDL
MODEL 5
REMARK VINA RESULT:    -7.273      3.201      5.187
REMARK INTER + INTRA:         -10.157
REMARK INTER:                  -9.517
REMARK INTRA:                  -0.640
REMARK UNBOUND:                -0.758
REMARK  Name = 
REMARK  6 active torsions:
REMARK  status: ('A' for Active; 'I' for Inactive)
REMARK    1  A    between atoms: C_1  and  C_2
REMARK    2  A    between atoms: C_6  and  C_7
REMARK    3  A    between atoms: C_7  and  C_8
REMARK    4  A    between atoms: C_11  and  C_12
REMARK    5  A    between atoms: C_12  and  N_13
REMARK    6  A    between atoms: C_14  and  C_16
REMARK                            x       y       z     vdW  Elec       q    Type
REMARK                         _______ _______ _______ _____ _____    ______ ____
ROOT
ATOM      1  C   UNL     1      47.859   3.383  17.365  0.00  0.00    +0.000 C 
ENDROOT
BRANCH   1   5
ATOM      2  C   UNL     1      47.287   5.476  13.763  0.00  0.00    +0.000 A 
ATOM      3  C   UNL     1      46.821   4.176  13.926  0.00  0.00    +0.000 A 
ATOM      4  N   UNL     1      47.005   3.466  15.064  0.00  0.00    +0.000 NA
ATOM      5  C   UNL     1      47.671   4.106  16.060  0.00  0.00    +0.000 A 
ATOM      6  C   UNL     1      48.169   5.392  15.886  0.00  0.00    +0.000 A 
ATOM      7  N   UNL     1      47.985   6.102  14.747  0.00  0.00    +0.000 NA
BRANCH   2   8
ATOM      8  C   UNL     1      46.959   6.263  12.522  0.00  0.00    +0.000 C 
BRANCH   8  14
ATOM      9  C   UNL     1      44.617   4.083   8.843  0.00  0.00    +0.000 C 
ATOM     10  C   UNL     1      44.523   4.803  10.153  0.00  0.00    +0.000 A 
ATOM     11  C   UNL     1      43.285   5.094  10.716  0.00  0.00    +0.000 A 
ATOM     12  C   UNL     1      43.243   5.808  11.908  0.00  0.00    +0.000 A 
ATOM     13  C   UNL     1      44.434   6.208  12.502  0.00  0.00    +0.000 A 
ATOM     14  C   UNL     1      45.642   5.861  11.899  0.00  0.00    +0.000 A 
ATOM     15  N   UNL     1      45.694   5.169  10.733  0.00  0.00    +0.000 NA
ENDBRANCH   8  14
ENDBRANCH   2   8
ENDBRANCH   1   5
BRANCH   1  16
ATOM     16  N   UNL     1      49.253   3.187  17.692  0.00  0.00    +0.000 N 
ATOM     17  C   UNL     1      50.024   2.272  17.026  0.00  0.00    +0.000 C 
ATOM     18  O   UNL     1      49.580   1.612  16.089  0.00  0.00    +0.000 OA
ATOM     19  H   UNL     1      49.556   3.541  18.595  0.00  0.00    +0.000 HD
BRANCH  17  20
ATOM     20  C   UNL     1      51.424   2.159  17.443  0.00  0.00    +0.000 A 
ATOM     21  C   UNL     1      51.977   0.902  17.646  0.00  0.00    +0.000 A 
ATOM     22  S   UNL     1      53.617   0.943  18.114  0.00  0.00    +0.000 S 
ATOM     23  C   UNL     1      53.632   2.645  18.105  0.00  0.00    +0.000 A 
ATOM     24  N   UNL     1      54.750   3.337  18.456  0.00  0.00    +0.000 NA
ATOM     25  C   UNL     1      54.608   4.622  18.439  0.00  0.00    +0.000 A 
ATOM     26  N   UNL     1      53.458   5.274  18.089  0.00  0.00    +0.000 N 
ATOM     27  C   UNL     1      52.323   4.620  17.676  0.00  0.00    +0.000 A 
ATOM     28  O   UNL     1      51.341   5.233  17.275  0.00  0.00    +0.000 OA
ATOM     29  C   UNL     1      52.414   3.174  17.718  0.00  0.00    +0.000 A 
ATOM     30  H   UNL     1      53.422   6.284  18.071  0.00  0.00    +0.000 HD
ENDBRANCH  17  20
ENDBRANCH   1  16
TORSDOF 5
ENDMDL
MODEL 6
REMARK VINA RESULT:    -7.128      3.324      8.054
REMARK INTER + INTRA:          -9.970
REMARK INTER:                  -9.317
REMARK INTRA:                  -0.653
REMARK UNBOUND:                -0.758
REMARK  Name = 
REMARK  6 active torsions:
REMARK  status: ('A' for Active; 'I' for Inactive)
REMARK    1  A    between atoms: C_1  and  C_2
REMARK    2  A    between atoms: C_6  and  C_7
REMARK    3  A    between atoms: C_7  and  C_8
REMARK    4  A    between atoms: C_11  and  C_12
REMARK    5  A    between atoms: C_12  and  N_13
REMARK    6  A    between atoms: C_14  and  C_16
REMARK                            x       y       z     vdW  Elec       q    Type
REMARK                         _______ _______ _______ _____ _____    ______ ____
ROOT
ATOM      1  C   UNL     1      48.592   7.434  12.915  0.00  0.00    +0.000 C 
ENDROOT
BRANCH   1   5
ATOM      2  C   UNL     1      49.681   5.981  16.708  0.00  0.00    +0.000 A 
ATOM      3  C   UNL     1      48.470   5.632  16.120  0.00  0.00    +0.000 A 
ATOM      4  N   UNL     1      48.079   6.097  14.910  0.00  0.00    +0.000 NA
ATOM      5  C   UNL     1      48.952   6.929  14.284  0.00  0.00    +0.000 A 
ATOM      6  C   UNL     1      50.146   7.308  14.886  0.00  0.00    +0.000 A 
ATOM      7  N   UNL     1      50.538   6.843  16.097  0.00  0.00    +0.000 NA
BRANCH   2   8
ATOM      8  C   UNL     1      50.121   5.351  18.002  0.00  0.00    +0.000 C 
BRANCH   8  14
ATOM      9  C   UNL     1      54.116   2.565  18.225  0.00  0.00    +0.000 C 
ATOM     10  C   UNL     1      52.649   2.651  17.937  0.00  0.00    +0.000 A 
ATOM     11  C   UNL     1      51.945   1.537  17.493  0.00  0.00    +0.000 A 
ATOM     12  C   UNL     1      50.596   1.676  17.189  0.00  0.00    +0.000 A 
ATOM     13  C   UNL     1      49.990   2.918  17.337  0.00  0.00    +0.000 A 
ATOM     14  C   UNL     1      50.747   3.988  17.811  0.00  0.00    +0.000 A 
ATOM     15  N   UNL     1      52.066   3.865  18.106  0.00  0.00    +0.000 NA
ENDBRANCH   8  14
ENDBRANCH   2   8
ENDBRANCH   1   5
BRANCH   1  16
ATOM     16  N   UNL     1      47.818   6.475  12.159  0.00  0.00    +0.000 N 
ATOM     17  C   UNL     1      46.500   6.695  11.858  0.00  0.00    +0.000 C 
ATOM     18  O   UNL     1      45.930   7.737  12.173  0.00  0.00    +0.000 OA
ATOM     19  H   UNL     1      48.199   5.534  12.106  0.00  0.00    +0.000 HD
BRANCH  17  20
ATOM     20  C   UNL     1      45.816   5.653  11.087  0.00  0.00    +0.000 A 
ATOM     21  C   UNL     1      45.894   5.666   9.701  0.00  0.00    +0.000 A 
ATOM     22  S   UNL     1      45.058   4.380   8.955  0.00  0.00    +0.000 S 
ATOM     23  C   UNL     1      44.523   3.787  10.459  0.00  0.00    +0.000 A 
ATOM     24  N   UNL     1      43.713   2.696  10.533  0.00  0.00    +0.000 NA
ATOM     25  C   UNL     1      43.355   2.378  11.734  0.00  0.00    +0.000 A 
ATOM     26  N   UNL     1      43.746   3.042  12.865  0.00  0.00    +0.000 N 
ATOM     27  C   UNL     1      44.606   4.113  12.843  0.00  0.00    +0.000 A 
ATOM     28  O   UNL     1      45.016   4.626  13.878  0.00  0.00    +0.000 OA
ATOM     29  C   UNL     1      45.003   4.539  11.516  0.00  0.00    +0.000 A 
ATOM     30  H   UNL     1      43.451   2.725  13.777  0.00  0.00    +0.000 HD
ENDBRANCH  17  20
ENDBRANCH   1  16
TORSDOF 5
ENDMDL
MODEL 7
REMARK VINA RESULT:    -7.104      2.118      2.973
REMARK INTER + INTRA:          -9.939
REMARK INTER:                  -9.292
REMARK INTRA:                  -0.647
REMARK UNBOUND:                -0.758
REMARK  Name = 
REMARK  6 active torsions:
REMARK  status: ('A' for Active; 'I' for Inactive)
REMARK    1  A    between atoms: C_1  and  C_2
REMARK    2  A    between atoms: C_6  and  C_7
REMARK    3  A    between atoms: C_7  and  C_8
REMARK    4  A    between atoms: C_11  and  C_12
REMARK    5  A    between atoms: C_12  and  N_13
REMARK    6  A    between atoms: C_14  and  C_16
REMARK                            x       y       z     vdW  Elec       q    Type
REMARK                         _______ _______ _______ _____ _____    ______ ____
ROOT
ATOM      1  C   UNL     1      44.979   5.060  13.573  0.00  0.00    +0.000 C 
ENDROOT
BRANCH   1   5
ATOM      2  C   UNL     1      44.500   4.266   9.472  0.00  0.00    +0.000 A 
ATOM      3  C   UNL     1      45.485   5.133   9.931  0.00  0.00    +0.000 A 
ATOM      4  N   UNL     1      45.654   5.427  11.241  0.00  0.00    +0.000 NA
ATOM      5  C   UNL     1      44.802   4.810  12.101  0.00  0.00    +0.000 A 
ATOM      6  C   UNL     1      43.794   3.971  11.642  0.00  0.00    +0.000 A 
ATOM      7  N   UNL     1      43.624   3.677  10.331  0.00  0.00    +0.000 NA
BRANCH   2   8
ATOM      8  C   UNL     1      44.423   3.883   8.018  0.00  0.00    +0.000 C 
BRANCH   8  14
ATOM      9  C   UNL     1      47.807   2.420   4.827  0.00  0.00    +0.000 C 
ATOM     10  C   UNL     1      47.085   2.160   6.113  0.00  0.00    +0.000 A 
ATOM     11  C   UNL     1      47.348   1.014   6.856  0.00  0.00    +0.000 A 
ATOM     12  C   UNL     1      46.618   0.788   8.017  0.00  0.00    +0.000 A 
ATOM     13  C   UNL     1      45.650   1.709   8.402  0.00  0.00    +0.000 A 
ATOM     14  C   UNL     1      45.454   2.849   7.625  0.00  0.00    +0.000 A 
ATOM     15  N   UNL     1      46.158   3.078   6.487  0.00  0.00    +0.000 NA
ENDBRANCH   8  14
ENDBRANCH   2   8
ENDBRANCH   1   5
BRANCH   1  16
ATOM     16  N   UNL     1      46.122   5.897  13.858  0.00  0.00    +0.000 N 
ATOM     17  C   UNL     1      47.339   5.361  14.187  0.00  0.00    +0.000 C 
ATOM     18  O   UNL     1      47.526   4.147  14.208  0.00  0.00    +0.000 OA
ATOM     19  H   UNL     1      45.923   6.870  14.074  0.00  0.00    +0.000 HD
BRANCH  17  20
ATOM     20  C   UNL     1      48.427   6.306  14.454  0.00  0.00    +0.000 A 
ATOM     21  C   UNL     1      48.942   7.068  13.414  0.00  0.00    +0.000 A 
ATOM     22  S   UNL     1      50.190   8.126  13.893  0.00  0.00    +0.000 S 
ATOM     23  C   UNL     1      50.116   7.571  15.500  0.00  0.00    +0.000 A 
ATOM     24  N   UNL     1      50.966   8.054  16.447  0.00  0.00    +0.000 NA
ATOM     25  C   UNL     1      50.823   7.517  17.615  0.00  0.00    +0.000 A 
ATOM     26  N   UNL     1      49.899   6.556  17.922  0.00  0.00    +0.000 N 
ATOM     27  C   UNL     1      48.986   6.079  17.014  0.00  0.00    +0.000 A 
ATOM     28  O   UNL     1      48.108   5.290  17.344  0.00  0.00    +0.000 OA
ATOM     29  C   UNL     1      49.132   6.615  15.676  0.00  0.00    +0.000 A 
ATOM     30  H   UNL     1      49.822   6.197  18.864  0.00  0.00    +0.000 HD
ENDBRANCH  17  20
ENDBRANCH   1  16
TORSDOF 5
ENDMDL
MODEL 8
REMARK VINA RESULT:    -6.970      2.281      2.749
REMARK INTER + INTRA:          -9.765
REMARK INTER:                  -8.928
REMARK INTRA:                  -0.837
REMARK UNBOUND:                -0.758
REMARK  Name = 
REMARK  6 active torsions:
REMARK  status: ('A' for Active; 'I' for Inactive)
REMARK    1  A    between atoms: C_1  and  C_2
REMARK    2  A    between atoms: C_6  and  C_7
REMARK    3  A    between atoms: C_7  and  C_8
REMARK    4  A    between atoms: C_11  and  C_12
REMARK    5  A    between atoms: C_12  and  N_13
REMARK    6  A    between atoms: C_14  and  C_16
REMARK                            x       y       z     vdW  Elec       q    Type
REMARK                         _______ _______ _______ _____ _____    ______ ____
ROOT
ATOM      1  C   UNL     1      48.316   7.257  14.081  0.00  0.00    +0.000 C 
ENDROOT
BRANCH   1   5
ATOM      2  C   UNL     1      45.164   5.895  11.653  0.00  0.00    +0.000 A 
ATOM      3  C   UNL     1      45.481   7.247  11.737  0.00  0.00    +0.000 A 
ATOM      4  N   UNL     1      46.475   7.722  12.524  0.00  0.00    +0.000 NA
ATOM      5  C   UNL     1      47.167   6.790  13.231  0.00  0.00    +0.000 A 
ATOM      6  C   UNL     1      46.829   5.444  13.176  0.00  0.00    +0.000 A 
ATOM      7  N   UNL     1      45.834   4.968  12.390  0.00  0.00    +0.000 NA
BRANCH   2   8
ATOM      8  C   UNL     1      44.125   5.404  10.681  0.00  0.00    +0.000 C 
BRANCH   8  14
ATOM      9  C   UNL     1      46.768   3.981   6.839  0.00  0.00    +0.000 C 
ATOM     10  C   UNL     1      45.897   3.585   7.992  0.00  0.00    +0.000 A 
ATOM     11  C   UNL     1      45.559   2.253   8.203  0.00  0.00    +0.000 A 
ATOM     12  C   UNL     1      44.708   1.937   9.255  0.00  0.00    +0.000 A 
ATOM     13  C   UNL     1      44.221   2.957  10.064  0.00  0.00    +0.000 A 
ATOM     14  C   UNL     1      44.619   4.269   9.814  0.00  0.00    +0.000 A 
ATOM     15  N   UNL     1      45.446   4.589   8.786  0.00  0.00    +0.000 NA
ENDBRANCH   8  14
ENDBRANCH   2   8
ENDBRANCH   1   5
BRANCH   1  16
ATOM     16  N   UNL     1      48.164   6.882  15.468  0.00  0.00    +0.000 N 
ATOM     17  C   UNL     1      49.229   6.458  16.218  0.00  0.00    +0.000 C 
ATOM     18  O   UNL     1      50.368   6.423  15.759  0.00  0.00    +0.000 OA
ATOM     19  H   UNL     1      47.216   6.682  15.778  0.00  0.00    +0.000 HD
BRANCH  17  20
ATOM     20  C   UNL     1      48.956   6.104  17.613  0.00  0.00    +0.000 A 
ATOM     21  C   UNL     1      49.215   4.813  18.054  0.00  0.00    +0.000 A 
ATOM     22  S   UNL     1      48.857   4.567  19.703  0.00  0.00    +0.000 S 
ATOM     23  C   UNL     1      48.300   6.166  19.875  0.00  0.00    +0.000 A 
ATOM     24  N   UNL     1      47.805   6.612  21.062  0.00  0.00    +0.000 NA
ATOM     25  C   UNL     1      47.384   7.834  21.039  0.00  0.00    +0.000 A 
ATOM     26  N   UNL     1      47.429   8.653  19.943  0.00  0.00    +0.000 N 
ATOM     27  C   UNL     1      47.970   8.265  18.742  0.00  0.00    +0.000 A 
ATOM     28  O   UNL     1      48.085   9.051  17.808  0.00  0.00    +0.000 OA
ATOM     29  C   UNL     1      48.416   6.887  18.700  0.00  0.00    +0.000 A 
ATOM     30  H   UNL     1      47.107   9.609  20.000  0.00  0.00    +0.000 HD
ENDBRANCH  17  20
ENDBRANCH   1  16
TORSDOF 5
ENDMDL
MODEL 9
REMARK VINA RESULT:    -6.674      2.669      3.759
REMARK INTER + INTRA:          -9.383
REMARK INTER:                  -8.758
REMARK INTRA:                  -0.625
REMARK UNBOUND:                -0.758
REMARK  Name = 
REMARK  6 active torsions:
REMARK  status: ('A' for Active; 'I' for Inactive)
REMARK    1  A    between atoms: C_1  and  C_2
REMARK    2  A    between atoms: C_6  and  C_7
REMARK    3  A    between atoms: C_7  and  C_8
REMARK    4  A    between atoms: C_11  and  C_12
REMARK    5  A    between atoms: C_12  and  N_13
REMARK    6  A    between atoms: C_14  and  C_16
REMARK                            x       y       z     vdW  Elec       q    Type
REMARK                         _______ _______ _______ _____ _____    ______ ____
ROOT
ATOM      1  C   UNL     1      47.745   4.661  15.580  0.00  0.00    +0.000 C 
ENDROOT
BRANCH   1   5
ATOM      2  C   UNL     1      45.907   5.701  11.944  0.00  0.00    +0.000 A 
ATOM      3  C   UNL     1      47.203   6.107  12.241  0.00  0.00    +0.000 A 
ATOM      4  N   UNL     1      47.817   5.808  13.410  0.00  0.00    +0.000 NA
ATOM      5  C   UNL     1      47.092   5.067  14.288  0.00  0.00    +0.000 A 
ATOM      6  C   UNL     1      45.784   4.691  14.008  0.00  0.00    +0.000 A 
ATOM      7  N   UNL     1      45.168   4.991  12.839  0.00  0.00    +0.000 NA
BRANCH   2   8
ATOM      8  C   UNL     1      45.308   5.962  10.587  0.00  0.00    +0.000 C 
BRANCH   8  14
ATOM      9  C   UNL     1      46.711   3.698   6.504  0.00  0.00    +0.000 C 
ATOM     10  C   UNL     1      45.933   3.634   7.782  0.00  0.00    +0.000 A 
ATOM     11  C   UNL     1      45.188   2.505   8.105  0.00  0.00    +0.000 A 
ATOM     12  C   UNL     1      44.440   2.509   9.276  0.00  0.00    +0.000 A 
ATOM     13  C   UNL     1      44.458   3.636  10.090  0.00  0.00    +0.000 A 
ATOM     14  C   UNL     1      45.247   4.725   9.722  0.00  0.00    +0.000 A 
ATOM     15  N   UNL     1      45.977   4.733   8.577  0.00  0.00    +0.000 NA
ENDBRANCH   8  14
ENDBRANCH   2   8
ENDBRANCH   1   5
BRANCH   1  16
ATOM     16  N   UNL     1      47.716   5.716  16.567  0.00  0.00    +0.000 N 
ATOM     17  C   UNL     1      48.822   6.032  17.312  0.00  0.00    +0.000 C 
ATOM     18  O   UNL     1      49.899   5.466  17.141  0.00  0.00    +0.000 OA
ATOM     19  H   UNL     1      46.796   6.016  16.877  0.00  0.00    +0.000 HD
BRANCH  17  20
ATOM     20  C   UNL     1      48.676   7.120  18.283  0.00  0.00    +0.000 A 
ATOM     21  C   UNL     1      48.823   6.851  19.637  0.00  0.00    +0.000 A 
ATOM     22  S   UNL     1      48.637   8.224  20.632  0.00  0.00    +0.000 S 
ATOM     23  C   UNL     1      48.309   9.217  19.290  0.00  0.00    +0.000 A 
ATOM     24  N   UNL     1      48.020  10.538  19.450  0.00  0.00    +0.000 NA
ATOM     25  C   UNL     1      47.756  11.163  18.349  0.00  0.00    +0.000 A 
ATOM     26  N   UNL     1      47.771  10.592  17.106  0.00  0.00    +0.000 N 
ATOM     27  C   UNL     1      48.111   9.279  16.891  0.00  0.00    +0.000 A 
ATOM     28  O   UNL     1      48.211   8.821  15.758  0.00  0.00    +0.000 OA
ATOM     29  C   UNL     1      48.373   8.519  18.097  0.00  0.00    +0.000 A 
ATOM     30  H   UNL     1      47.581  11.145  16.282  0.00  0.00    +0.000 HD
ENDBRANCH  17  20
ENDBRANCH   1  16
TORSDOF 5
ENDMDL
