MODEL 1
REMARK VINA RESULT:    -6.715      0.000      0.000
REMARK INTER + INTRA:         -10.371
REMARK INTER:                  -9.659
REMARK INTRA:                  -0.712
REMARK UNBOUND:                -0.712
REMARK  Name = 
REMARK  9 active torsions:
REMARK  status: ('A' for Active; 'I' for Inactive)
REMARK    1  A    between atoms: C_1  and  C_2
REMARK    2  A    between atoms: C_5  and  C_6
REMARK    3  A    between atoms: C_6  and  C_7
REMARK    4  A    between atoms: C_7  and  C_8
REMARK    5  A    between atoms: C_12  and  C_13
REMARK    6  A    between atoms: C_13  and  C_14
REMARK    7  A    between atoms: C_14  and  O_15
REMARK    8  A    between atoms: C_18  and  C_19
REMARK    9  A    between atoms: C_20  and  C_21
REMARK                            x       y       z     vdW  Elec       q    Type
REMARK                         _______ _______ _______ _____ _____    ______ ____
ROOT
ATOM      1  C   UNL     1      44.036   4.631  11.483  0.00  0.00    +0.000 C 
ENDROOT
BRANCH   1   6
ATOM      2  C   UNL     1      48.922   7.125  13.263  0.00  0.00    +0.000 C 
ATOM      3  C   UNL     1      47.677   6.371  12.913  0.00  0.00    +0.000 A 
ATOM      4  C   UNL     1      47.011   6.740  11.743  0.00  0.00    +0.000 A 
ATOM      5  N   UNL     1      45.863   6.193  11.299  0.00  0.00    +0.000 NA
ATOM      6  C   UNL     1      45.307   5.218  12.044  0.00  0.00    +0.000 A 
ATOM      7  C   UNL     1      45.910   4.764  13.218  0.00  0.00    +0.000 A 
ATOM      8  C   UNL     1      47.111   5.337  13.678  0.00  0.00    +0.000 A 
BRANCH   8   9
ATOM      9  C   UNL     1      47.605   4.815  14.976  0.00  0.00    +0.000 C 
ATOM     10  C   UNL     1      46.941   4.074  15.869  0.00  0.00    +0.000 C 
BRANCH  10  11
ATOM     11  C   UNL     1      47.518   3.668  17.106  0.00  0.00    +0.000 C 
ATOM     12  N   UNL     1      47.964   3.333  18.125  0.00  0.00    +0.000 NA
ENDBRANCH  10  11
ENDBRANCH   8   9
ENDBRANCH   1   6
BRANCH   1  13
ATOM     13  C   UNL     1      43.879   4.739   9.963  0.00  0.00    +0.000 C 
BRANCH  13  14
ATOM     14  C   UNL     1      44.665   3.682   9.229  0.00  0.00    +0.000 A 
ATOM     15  C   UNL     1      44.531   2.324   9.530  0.00  0.00    +0.000 A 
ATOM     16  C   UNL     1      45.254   1.370   8.811  0.00  0.00    +0.000 A 
ATOM     17  C   UNL     1      46.088   1.762   7.760  0.00  0.00    +0.000 A 
ATOM     18  C   UNL     1      46.214   3.115   7.428  0.00  0.00    +0.000 A 
ATOM     19  C   UNL     1      45.522   4.066   8.190  0.00  0.00    +0.000 A 
BRANCH  18  20
ATOM     20  C   UNL     1      47.008   3.573   6.227  0.00  0.00    +0.000 C 
BRANCH  20  21
ATOM     21  C   UNL     1      47.264   2.441   5.226  0.00  0.00    +0.000 C 
BRANCH  21  22
ATOM     22  O   UNL     1      48.561   1.872   5.389  0.00  0.00    +0.000 OA
ATOM     23  H   UNL     1      48.516   0.972   5.013  0.00  0.00    +0.000 HD
ENDBRANCH  21  22
ENDBRANCH  20  21
ENDBRANCH  18  20
ENDBRANCH  13  14
ENDBRANCH   1  13
TORSDOF 8
ENDMDL
MODEL 2
REMARK VINA RESULT:    -6.137      2.082      3.807
REMARK INTER + INTRA:          -9.540
REMARK INTER:                  -8.804
REMARK INTRA:                  -0.736
REMARK UNBOUND:                -0.712
REMARK  Name = 
REMARK  9 active torsions:
REMARK  status: ('A' for Active; 'I' for Inactive)
REMARK    1  A    between atoms: C_1  and  C_2
REMARK    2  A    between atoms: C_5  and  C_6
REMARK    3  A    between atoms: C_6  and  C_7
REMARK    4  A    between atoms: C_7  and  C_8
REMARK    5  A    between atoms: C_12  and  C_13
REMARK    6  A    between atoms: C_13  and  C_14
REMARK    7  A    between atoms: C_14  and  O_15
REMARK    8  A    between atoms: C_18  and  C_19
REMARK    9  A    between atoms: C_20  and  C_21
REMARK                            x       y       z     vdW  Elec       q    Type
REMARK                         _______ _______ _______ _____ _____    ______ ____
ROOT
ATOM      1  C   UNL     1      44.249   5.501  12.260  0.00  0.00    +0.000 C 
ENDROOT
BRANCH   1   6
ATOM      2  C   UNL     1      49.265   6.943  14.711  0.00  0.00    +0.000 C 
ATOM      3  C   UNL     1      47.956   6.715  14.022  0.00  0.00    +0.000 A 
ATOM      4  C   UNL     1      47.296   5.513  14.280  0.00  0.00    +0.000 A 
ATOM      5  N   UNL     1      46.132   5.134  13.720  0.00  0.00    +0.000 NA
ATOM      6  C   UNL     1      45.561   5.973  12.835  0.00  0.00    +0.000 A 
ATOM      7  C   UNL     1      46.133   7.208  12.528  0.00  0.00    +0.000 A 
ATOM      8  C   UNL     1      47.350   7.603  13.117  0.00  0.00    +0.000 A 
BRANCH   8   9
ATOM      9  C   UNL     1      47.886   8.904  12.648  0.00  0.00    +0.000 C 
ATOM     10  C   UNL     1      48.659   9.138  11.582  0.00  0.00    +0.000 C 
BRANCH  10  11
ATOM     11  C   UNL     1      49.146  10.437  11.261  0.00  0.00    +0.000 C 
ATOM     12  N   UNL     1      49.566  11.485  10.989  0.00  0.00    +0.000 NA
ENDBRANCH  10  11
ENDBRANCH   8   9
ENDBRANCH   1   6
BRANCH   1  13
ATOM     13  C   UNL     1      44.114   5.633  10.740  0.00  0.00    +0.000 C 
BRANCH  13  14
ATOM     14  C   UNL     1      44.535   4.378  10.016  0.00  0.00    +0.000 A 
ATOM     15  C   UNL     1      44.025   3.124  10.361  0.00  0.00    +0.000 A 
ATOM     16  C   UNL     1      44.416   1.987   9.651  0.00  0.00    +0.000 A 
ATOM     17  C   UNL     1      45.293   2.099   8.567  0.00  0.00    +0.000 A 
ATOM     18  C   UNL     1      45.793   3.350   8.193  0.00  0.00    +0.000 A 
ATOM     19  C   UNL     1      45.431   4.476   8.945  0.00  0.00    +0.000 A 
BRANCH  18  20
ATOM     20  C   UNL     1      46.645   3.533   6.959  0.00  0.00    +0.000 C 
BRANCH  20  21
ATOM     21  C   UNL     1      47.599   2.357   6.724  0.00  0.00    +0.000 C 
BRANCH  21  22
ATOM     22  O   UNL     1      48.871   2.792   6.249  0.00  0.00    +0.000 OA
ATOM     23  H   UNL     1      49.138   3.539   6.817  0.00  0.00    +0.000 HD
ENDBRANCH  21  22
ENDBRANCH  20  21
ENDBRANCH  18  20
ENDBRANCH  13  14
ENDBRANCH   1  13
TORSDOF 8
ENDMDL
MODEL 3
REMARK VINA RESULT:    -6.117      2.628      3.562
REMARK INTER + INTRA:          -9.511
REMARK INTER:                  -8.870
REMARK INTRA:                  -0.641
REMARK UNBOUND:                -0.712
REMARK  Name = 
REMARK  9 active torsions:
REMARK  status: ('A' for Active; 'I' for Inactive)
REMARK    1  A    between atoms: C_1  and  C_2
REMARK    2  A    between atoms: C_5  and  C_6
REMARK    3  A    between atoms: C_6  and  C_7
REMARK    4  A    between atoms: C_7  and  C_8
REMARK    5  A    between atoms: C_12  and  C_13
REMARK    6  A    between atoms: C_13  and  C_14
REMARK    7  A    between atoms: C_14  and  O_15
REMARK    8  A    between atoms: C_18  and  C_19
REMARK    9  A    between atoms: C_20  and  C_21
REMARK                            x       y       z     vdW  Elec       q    Type
REMARK                         _______ _______ _______ _____ _____    ______ ____
ROOT
ATOM      1  C   UNL     1      44.990   5.204  11.748  0.00  0.00    +0.000 C 
ENDROOT
BRANCH   1   6
ATOM      2  C   UNL     1      47.690  10.192  12.793  0.00  0.00    +0.000 C 
ATOM      3  C   UNL     1      47.111   8.859  12.432  0.00  0.00    +0.000 A 
ATOM      4  C   UNL     1      45.791   8.610  12.809  0.00  0.00    +0.000 A 
ATOM      5  N   UNL     1      45.129   7.457  12.596  0.00  0.00    +0.000 NA
ATOM      6  C   UNL     1      45.792   6.461  11.977  0.00  0.00    +0.000 A 
ATOM      7  C   UNL     1      47.108   6.622  11.541  0.00  0.00    +0.000 A 
ATOM      8  C   UNL     1      47.797   7.830  11.764  0.00  0.00    +0.000 A 
BRANCH   8   9
ATOM      9  C   UNL     1      49.211   7.843  11.319  0.00  0.00    +0.000 C 
ATOM     10  C   UNL     1      50.307   8.009  12.068  0.00  0.00    +0.000 C 
BRANCH  10  11
ATOM     11  C   UNL     1      51.616   8.043  11.510  0.00  0.00    +0.000 C 
ATOM     12  N   UNL     1      52.681   8.098  11.048  0.00  0.00    +0.000 NA
ENDBRANCH  10  11
ENDBRANCH   8   9
ENDBRANCH   1   6
BRANCH   1  13
ATOM     13  C   UNL     1      44.313   5.100  10.377  0.00  0.00    +0.000 C 
BRANCH  13  14
ATOM     14  C   UNL     1      44.875   3.975   9.544  0.00  0.00    +0.000 A 
ATOM     15  C   UNL     1      44.571   2.638   9.813  0.00  0.00    +0.000 A 
ATOM     16  C   UNL     1      45.087   1.624   9.004  0.00  0.00    +0.000 A 
ATOM     17  C   UNL     1      45.882   1.939   7.898  0.00  0.00    +0.000 A 
ATOM     18  C   UNL     1      46.175   3.274   7.600  0.00  0.00    +0.000 A 
ATOM     19  C   UNL     1      45.692   4.279   8.448  0.00  0.00    +0.000 A 
BRANCH  18  20
ATOM     20  C   UNL     1      46.927   3.667   6.350  0.00  0.00    +0.000 C 
BRANCH  20  21
ATOM     21  C   UNL     1      47.128   2.489   5.390  0.00  0.00    +0.000 C 
BRANCH  21  22
ATOM     22  O   UNL     1      48.459   1.980   5.446  0.00  0.00    +0.000 OA
ATOM     23  H   UNL     1      48.664   1.848   6.391  0.00  0.00    +0.000 HD
ENDBRANCH  21  22
ENDBRANCH  20  21
ENDBRANCH  18  20
ENDBRANCH  13  14
ENDBRANCH   1  13
TORSDOF 8
ENDMDL
MODEL 4
REMARK VINA RESULT:    -5.853      2.140      3.002
REMARK INTER + INTRA:          -9.131
REMARK INTER:                  -8.710
REMARK INTRA:                  -0.422
REMARK UNBOUND:                -0.712
REMARK  Name = 
REMARK  9 active torsions:
REMARK  status: ('A' for Active; 'I' for Inactive)
REMARK    1  A    between atoms: C_1  and  C_2
REMARK    2  A    between atoms: C_5  and  C_6
REMARK    3  A    between atoms: C_6  and  C_7
REMARK    4  A    between atoms: C_7  and  C_8
REMARK    5  A    between atoms: C_12  and  C_13
REMARK    6  A    between atoms: C_13  and  C_14
REMARK    7  A    between atoms: C_14  and  O_15
REMARK    8  A    between atoms: C_18  and  C_19
REMARK    9  A    between atoms: C_20  and  C_21
REMARK                            x       y       z     vdW  Elec       q    Type
REMARK                         _______ _______ _______ _____ _____    ______ ____
ROOT
ATOM      1  C   UNL     1      46.643   6.479  11.444  0.00  0.00    +0.000 C 
ENDROOT
BRANCH   1   6
ATOM      2  C   UNL     1      47.627   4.134  16.620  0.00  0.00    +0.000 C 
ATOM      3  C   UNL     1      47.449   4.869  15.328  0.00  0.00    +0.000 A 
ATOM      4  C   UNL     1      46.590   4.305  14.383  0.00  0.00    +0.000 A 
ATOM      5  N   UNL     1      46.342   4.813  13.161  0.00  0.00    +0.000 NA
ATOM      6  C   UNL     1      46.978   5.949  12.816  0.00  0.00    +0.000 A 
ATOM      7  C   UNL     1      47.840   6.600  13.701  0.00  0.00    +0.000 A 
ATOM      8  C   UNL     1      48.095   6.067  14.979  0.00  0.00    +0.000 A 
BRANCH   8   9
ATOM      9  C   UNL     1      49.085   6.815  15.790  0.00  0.00    +0.000 C 
ATOM     10  C   UNL     1      48.927   7.997  16.396  0.00  0.00    +0.000 C 
BRANCH  10  11
ATOM     11  C   UNL     1      49.977   8.634  17.117  0.00  0.00    +0.000 C 
ATOM     12  N   UNL     1      50.844   9.129  17.711  0.00  0.00    +0.000 NA
ENDBRANCH  10  11
ENDBRANCH   8   9
ENDBRANCH   1   6
BRANCH   1  13
ATOM     13  C   UNL     1      45.212   6.209  10.969  0.00  0.00    +0.000 C 
BRANCH  13  14
ATOM     14  C   UNL     1      45.101   4.924  10.186  0.00  0.00    +0.000 A 
ATOM     15  C   UNL     1      44.233   3.900  10.573  0.00  0.00    +0.000 A 
ATOM     16  C   UNL     1      44.136   2.736   9.808  0.00  0.00    +0.000 A 
ATOM     17  C   UNL     1      44.878   2.600   8.631  0.00  0.00    +0.000 A 
ATOM     18  C   UNL     1      45.732   3.627   8.216  0.00  0.00    +0.000 A 
ATOM     19  C   UNL     1      45.857   4.769   9.018  0.00  0.00    +0.000 A 
BRANCH  18  20
ATOM     20  C   UNL     1      46.460   3.575   6.893  0.00  0.00    +0.000 C 
BRANCH  20  21
ATOM     21  C   UNL     1      47.389   2.362   6.781  0.00  0.00    +0.000 C 
BRANCH  21  22
ATOM     22  O   UNL     1      48.699   2.734   6.357  0.00  0.00    +0.000 OA
ATOM     23  H   UNL     1      49.047   1.981   5.843  0.00  0.00    +0.000 HD
ENDBRANCH  21  22
ENDBRANCH  20  21
ENDBRANCH  18  20
ENDBRANCH  13  14
ENDBRANCH   1  13
TORSDOF 8
ENDMDL
MODEL 5
REMARK VINA RESULT:    -5.840      4.381      8.595
REMARK INTER + INTRA:          -9.112
REMARK INTER:                  -8.476
REMARK INTRA:                  -0.636
REMARK UNBOUND:                -0.712
REMARK  Name = 
REMARK  9 active torsions:
REMARK  status: ('A' for Active; 'I' for Inactive)
REMARK    1  A    between atoms: C_1  and  C_2
REMARK    2  A    between atoms: C_5  and  C_6
REMARK    3  A    between atoms: C_6  and  C_7
REMARK    4  A    between atoms: C_7  and  C_8
REMARK    5  A    between atoms: C_12  and  C_13
REMARK    6  A    between atoms: C_13  and  C_14
REMARK    7  A    between atoms: C_14  and  O_15
REMARK    8  A    between atoms: C_18  and  C_19
REMARK    9  A    between atoms: C_20  and  C_21
REMARK                            x       y       z     vdW  Elec       q    Type
REMARK                         _______ _______ _______ _____ _____    ______ ____
ROOT
ATOM      1  C   UNL     1      48.287   4.371  17.185  0.00  0.00    +0.000 C 
ENDROOT
BRANCH   1   6
ATOM      2  C   UNL     1      47.117   6.652  12.019  0.00  0.00    +0.000 C 
ATOM      3  C   UNL     1      47.303   5.960  13.334  0.00  0.00    +0.000 A 
ATOM      4  C   UNL     1      48.188   6.541  14.244  0.00  0.00    +0.000 A 
ATOM      5  N   UNL     1      48.497   6.035  15.453  0.00  0.00    +0.000 NA
ATOM      6  C   UNL     1      47.917   4.874  15.812  0.00  0.00    +0.000 A 
ATOM      7  C   UNL     1      47.001   4.229  14.979  0.00  0.00    +0.000 A 
ATOM      8  C   UNL     1      46.678   4.761  13.717  0.00  0.00    +0.000 A 
BRANCH   8   9
ATOM      9  C   UNL     1      45.750   3.940  12.902  0.00  0.00    +0.000 C 
ATOM     10  C   UNL     1      44.415   4.015  12.851  0.00  0.00    +0.000 C 
BRANCH  10  11
ATOM     11  C   UNL     1      43.631   3.134  12.053  0.00  0.00    +0.000 C 
ATOM     12  N   UNL     1      42.970   2.434  11.402  0.00  0.00    +0.000 NA
ENDBRANCH  10  11
ENDBRANCH   8   9
ENDBRANCH   1   6
BRANCH   1  13
ATOM     13  C   UNL     1      48.867   2.954  17.230  0.00  0.00    +0.000 C 
BRANCH  13  14
ATOM     14  C   UNL     1      50.350   2.950  17.498  0.00  0.00    +0.000 A 
ATOM     15  C   UNL     1      51.027   4.103  17.903  0.00  0.00    +0.000 A 
ATOM     16  C   UNL     1      52.397   4.057  18.170  0.00  0.00    +0.000 A 
ATOM     17  C   UNL     1      53.095   2.849  18.071  0.00  0.00    +0.000 A 
ATOM     18  C   UNL     1      52.428   1.681  17.691  0.00  0.00    +0.000 A 
ATOM     19  C   UNL     1      51.063   1.751  17.378  0.00  0.00    +0.000 A 
BRANCH  18  20
ATOM     20  C   UNL     1      53.113   0.334  17.686  0.00  0.00    +0.000 C 
BRANCH  20  21
ATOM     21  C   UNL     1      54.172   0.219  16.584  0.00  0.00    +0.000 C 
BRANCH  21  22
ATOM     22  O   UNL     1      54.043  -0.995  15.848  0.00  0.00    +0.000 OA
ATOM     23  H   UNL     1      54.931  -1.397  15.821  0.00  0.00    +0.000 HD
ENDBRANCH  21  22
ENDBRANCH  20  21
ENDBRANCH  18  20
ENDBRANCH  13  14
ENDBRANCH   1  13
TORSDOF 8
ENDMDL
MODEL 6
REMARK VINA RESULT:    -5.838      2.609      5.187
REMARK INTER + INTRA:          -9.110
REMARK INTER:                  -8.208
REMARK INTRA:                  -0.902
REMARK UNBOUND:                -0.712
REMARK  Name = 
REMARK  9 active torsions:
REMARK  status: ('A' for Active; 'I' for Inactive)
REMARK    1  A    between atoms: C_1  and  C_2
REMARK    2  A    between atoms: C_5  and  C_6
REMARK    3  A    between atoms: C_6  and  C_7
REMARK    4  A    between atoms: C_7  and  C_8
REMARK    5  A    between atoms: C_12  and  C_13
REMARK    6  A    between atoms: C_13  and  C_14
REMARK    7  A    between atoms: C_14  and  O_15
REMARK    8  A    between atoms: C_18  and  C_19
REMARK    9  A    between atoms: C_20  and  C_21
REMARK                            x       y       z     vdW  Elec       q    Type
REMARK                         _______ _______ _______ _____ _____    ______ ____
ROOT
ATOM      1  C   UNL     1      47.373   4.861  13.565  0.00  0.00    +0.000 C 
ENDROOT
BRANCH   1   6
ATOM      2  C   UNL     1      49.016  10.006  11.540  0.00  0.00    +0.000 C 
ATOM      3  C   UNL     1      48.445   8.729  12.076  0.00  0.00    +0.000 A 
ATOM      4  C   UNL     1      49.345   7.724  12.432  0.00  0.00    +0.000 A 
ATOM      5  N   UNL     1      49.004   6.507  12.896  0.00  0.00    +0.000 NA
ATOM      6  C   UNL     1      47.691   6.231  13.020  0.00  0.00    +0.000 A 
ATOM      7  C   UNL     1      46.715   7.180  12.710  0.00  0.00    +0.000 A 
ATOM      8  C   UNL     1      47.075   8.452  12.227  0.00  0.00    +0.000 A 
BRANCH   8   9
ATOM      9  C   UNL     1      45.941   9.337  11.866  0.00  0.00    +0.000 C 
ATOM     10  C   UNL     1      44.705   8.980  11.501  0.00  0.00    +0.000 C 
BRANCH  10  11
ATOM     11  C   UNL     1      43.711   9.932  11.136  0.00  0.00    +0.000 C 
ATOM     12  N   UNL     1      42.919  10.729  10.843  0.00  0.00    +0.000 NA
ENDBRANCH  10  11
ENDBRANCH   8   9
ENDBRANCH   1   6
BRANCH   1  13
ATOM     13  C   UNL     1      45.953   4.687  14.113  0.00  0.00    +0.000 C 
BRANCH  13  14
ATOM     14  C   UNL     1      44.922   4.599  13.016  0.00  0.00    +0.000 A 
ATOM     15  C   UNL     1      43.726   5.320  13.071  0.00  0.00    +0.000 A 
ATOM     16  C   UNL     1      42.807   5.235  12.024  0.00  0.00    +0.000 A 
ATOM     17  C   UNL     1      43.090   4.460  10.896  0.00  0.00    +0.000 A 
ATOM     18  C   UNL     1      44.293   3.752  10.813  0.00  0.00    +0.000 A 
ATOM     19  C   UNL     1      45.186   3.806  11.893  0.00  0.00    +0.000 A 
BRANCH  18  20
ATOM     20  C   UNL     1      44.694   2.999   9.566  0.00  0.00    +0.000 C 
BRANCH  20  21
ATOM     21  C   UNL     1      44.730   3.897   8.325  0.00  0.00    +0.000 C 
BRANCH  21  22
ATOM     22  O   UNL     1      45.593   5.017   8.505  0.00  0.00    +0.000 OA
ATOM     23  H   UNL     1      45.023   5.809   8.491  0.00  0.00    +0.000 HD
ENDBRANCH  21  22
ENDBRANCH  20  21
ENDBRANCH  18  20
ENDBRANCH  13  14
ENDBRANCH   1  13
TORSDOF 8
ENDMDL
MODEL 7
REMARK VINA RESULT:    -5.787      1.908      2.379
REMARK INTER + INTRA:          -9.036
REMARK INTER:                  -8.408
REMARK INTRA:                  -0.628
REMARK UNBOUND:                -0.712
REMARK  Name = 
REMARK  9 active torsions:
REMARK  status: ('A' for Active; 'I' for Inactive)
REMARK    1  A    between atoms: C_1  and  C_2
REMARK    2  A    between atoms: C_5  and  C_6
REMARK    3  A    between atoms: C_6  and  C_7
REMARK    4  A    between atoms: C_7  and  C_8
REMARK    5  A    between atoms: C_12  and  C_13
REMARK    6  A    between atoms: C_13  and  C_14
REMARK    7  A    between atoms: C_14  and  O_15
REMARK    8  A    between atoms: C_18  and  C_19
REMARK    9  A    between atoms: C_20  and  C_21
REMARK                            x       y       z     vdW  Elec       q    Type
REMARK                         _______ _______ _______ _____ _____    ______ ____
ROOT
ATOM      1  C   UNL     1      45.682   6.090  12.119  0.00  0.00    +0.000 C 
ENDROOT
BRANCH   1   6
ATOM      2  C   UNL     1      50.922   8.373  12.881  0.00  0.00    +0.000 C 
ATOM      3  C   UNL     1      49.579   7.715  12.824  0.00  0.00    +0.000 A 
ATOM      4  C   UNL     1      48.895   7.757  11.608  0.00  0.00    +0.000 A 
ATOM      5  N   UNL     1      47.667   7.248  11.392  0.00  0.00    +0.000 NA
ATOM      6  C   UNL     1      47.043   6.659  12.430  0.00  0.00    +0.000 A 
ATOM      7  C   UNL     1      47.655   6.547  13.680  0.00  0.00    +0.000 A 
ATOM      8  C   UNL     1      48.940   7.078  13.902  0.00  0.00    +0.000 A 
BRANCH   8   9
ATOM      9  C   UNL     1      49.442   6.958  15.292  0.00  0.00    +0.000 C 
ATOM     10  C   UNL     1      48.886   7.435  16.411  0.00  0.00    +0.000 C 
BRANCH  10  11
ATOM     11  C   UNL     1      49.494   7.287  17.690  0.00  0.00    +0.000 C 
ATOM     12  N   UNL     1      49.971   7.148  18.740  0.00  0.00    +0.000 NA
ENDBRANCH  10  11
ENDBRANCH   8   9
ENDBRANCH   1   6
BRANCH   1  13
ATOM     13  C   UNL     1      45.256   6.173  10.649  0.00  0.00    +0.000 C 
BRANCH  13  14
ATOM     14  C   UNL     1      45.191   4.816   9.994  0.00  0.00    +0.000 A 
ATOM     15  C   UNL     1      44.454   3.767  10.548  0.00  0.00    +0.000 A 
ATOM     16  C   UNL     1      44.393   2.532   9.898  0.00  0.00    +0.000 A 
ATOM     17  C   UNL     1      45.038   2.347   8.672  0.00  0.00    +0.000 A 
ATOM     18  C   UNL     1      45.759   3.394   8.091  0.00  0.00    +0.000 A 
ATOM     19  C   UNL     1      45.854   4.613   8.777  0.00  0.00    +0.000 A 
BRANCH  18  20
ATOM     20  C   UNL     1      46.371   3.277   6.715  0.00  0.00    +0.000 C 
BRANCH  20  21
ATOM     21  C   UNL     1      47.434   2.176   6.636  0.00  0.00    +0.000 C 
BRANCH  21  22
ATOM     22  O   UNL     1      48.732   2.709   6.383  0.00  0.00    +0.000 OA
ATOM     23  H   UNL     1      48.597   3.614   6.045  0.00  0.00    +0.000 HD
ENDBRANCH  21  22
ENDBRANCH  20  21
ENDBRANCH  18  20
ENDBRANCH  13  14
ENDBRANCH   1  13
TORSDOF 8
ENDMDL
MODEL 8
REMARK VINA RESULT:    -5.709      4.589      7.800
REMARK INTER + INTRA:          -8.924
REMARK INTER:                  -8.108
REMARK INTRA:                  -0.815
REMARK UNBOUND:                -0.712
REMARK  Name = 
REMARK  9 active torsions:
REMARK  status: ('A' for Active; 'I' for Inactive)
REMARK    1  A    between atoms: C_1  and  C_2
REMARK    2  A    between atoms: C_5  and  C_6
REMARK    3  A    between atoms: C_6  and  C_7
REMARK    4  A    between atoms: C_7  and  C_8
REMARK    5  A    between atoms: C_12  and  C_13
REMARK    6  A    between atoms: C_13  and  C_14
REMARK    7  A    between atoms: C_14  and  O_15
REMARK    8  A    between atoms: C_18  and  C_19
REMARK    9  A    between atoms: C_20  and  C_21
REMARK                            x       y       z     vdW  Elec       q    Type
REMARK                         _______ _______ _______ _____ _____    ______ ____
ROOT
ATOM      1  C   UNL     1      49.104   6.959  14.782  0.00  0.00    +0.000 C 
ENDROOT
BRANCH   1   6
ATOM      2  C   UNL     1      44.599   8.226  11.413  0.00  0.00    +0.000 C 
ATOM      3  C   UNL     1      45.713   7.751  12.293  0.00  0.00    +0.000 A 
ATOM      4  C   UNL     1      46.566   8.719  12.825  0.00  0.00    +0.000 A 
ATOM      5  N   UNL     1      47.635   8.465  13.604  0.00  0.00    +0.000 NA
ATOM      6  C   UNL     1      47.909   7.177  13.888  0.00  0.00    +0.000 A 
ATOM      7  C   UNL     1      47.101   6.139  13.421  0.00  0.00    +0.000 A 
ATOM      8  C   UNL     1      45.983   6.409  12.608  0.00  0.00    +0.000 A 
BRANCH   8   9
ATOM      9  C   UNL     1      45.254   5.214  12.118  0.00  0.00    +0.000 C 
ATOM     10  C   UNL     1      44.227   4.583  12.698  0.00  0.00    +0.000 C 
BRANCH  10  11
ATOM     11  C   UNL     1      43.637   3.412  12.143  0.00  0.00    +0.000 C 
ATOM     12  N   UNL     1      43.149   2.449  11.716  0.00  0.00    +0.000 NA
ENDBRANCH  10  11
ENDBRANCH   8   9
ENDBRANCH   1   6
BRANCH   1  13
ATOM     13  C   UNL     1      48.787   6.804  16.273  0.00  0.00    +0.000 C 
BRANCH  13  14
ATOM     14  C   UNL     1      48.741   5.359  16.702  0.00  0.00    +0.000 A 
ATOM     15  C   UNL     1      47.563   4.611  16.636  0.00  0.00    +0.000 A 
ATOM     16  C   UNL     1      47.563   3.267  17.016  0.00  0.00    +0.000 A 
ATOM     17  C   UNL     1      48.748   2.650  17.429  0.00  0.00    +0.000 A 
ATOM     18  C   UNL     1      49.940   3.378  17.476  0.00  0.00    +0.000 A 
ATOM     19  C   UNL     1      49.917   4.738  17.140  0.00  0.00    +0.000 A 
BRANCH  18  20
ATOM     20  C   UNL     1      51.264   2.725  17.800  0.00  0.00    +0.000 C 
BRANCH  20  21
ATOM     21  C   UNL     1      51.389   1.321  17.197  0.00  0.00    +0.000 C 
BRANCH  21  22
ATOM     22  O   UNL     1      51.659   0.338  18.193  0.00  0.00    +0.000 OA
ATOM     23  H   UNL     1      51.644   0.803  19.051  0.00  0.00    +0.000 HD
ENDBRANCH  21  22
ENDBRANCH  20  21
ENDBRANCH  18  20
ENDBRANCH  13  14
ENDBRANCH   1  13
TORSDOF 8
ENDMDL
MODEL 9
REMARK VINA RESULT:    -5.582      2.699      5.082
REMARK INTER + INTRA:          -8.742
REMARK INTER:                  -8.182
REMARK INTRA:                  -0.561
REMARK UNBOUND:                -0.712
REMARK  Name = 
REMARK  9 active torsions:
REMARK  status: ('A' for Active; 'I' for Inactive)
REMARK    1  A    between atoms: C_1  and  C_2
REMARK    2  A    between atoms: C_5  and  C_6
REMARK    3  A    between atoms: C_6  and  C_7
REMARK    4  A    between atoms: C_7  and  C_8
REMARK    5  A    between atoms: C_12  and  C_13
REMARK    6  A    between atoms: C_13  and  C_14
REMARK    7  A    between atoms: C_14  and  O_15
REMARK    8  A    between atoms: C_18  and  C_19
REMARK    9  A    between atoms: C_20  and  C_21
REMARK                            x       y       z     vdW  Elec       q    Type
REMARK                         _______ _______ _______ _____ _____    ______ ____
ROOT
ATOM      1  C   UNL     1      46.948   3.738  14.471  0.00  0.00    +0.000 C 
ENDROOT
BRANCH   1   6
ATOM      2  C   UNL     1      48.801   4.312  19.902  0.00  0.00    +0.000 C 
ATOM      3  C   UNL     1      48.463   4.110  18.457  0.00  0.00    +0.000 A 
ATOM      4  C   UNL     1      47.242   4.615  18.008  0.00  0.00    +0.000 A 
ATOM      5  N   UNL     1      46.767   4.492  16.754  0.00  0.00    +0.000 NA
ATOM      6  C   UNL     1      47.524   3.823  15.862  0.00  0.00    +0.000 A 
ATOM      7  C   UNL     1      48.771   3.301  16.211  0.00  0.00    +0.000 A 
ATOM      8  C   UNL     1      49.264   3.433  17.522  0.00  0.00    +0.000 A 
BRANCH   8   9
ATOM      9  C   UNL     1      50.566   2.769  17.779  0.00  0.00    +0.000 C 
ATOM     10  C   UNL     1      50.953   1.547  17.399  0.00  0.00    +0.000 C 
BRANCH  10  11
ATOM     11  C   UNL     1      52.223   1.005  17.746  0.00  0.00    +0.000 C 
ATOM     12  N   UNL     1      53.252   0.565  18.056  0.00  0.00    +0.000 NA
ENDBRANCH  10  11
ENDBRANCH   8   9
ENDBRANCH   1   6
BRANCH   1  13
ATOM     13  C   UNL     1      46.266   5.013  13.965  0.00  0.00    +0.000 C 
BRANCH  13  14
ATOM     14  C   UNL     1      45.151   4.719  12.992  0.00  0.00    +0.000 A 
ATOM     15  C   UNL     1      43.883   5.287  13.134  0.00  0.00    +0.000 A 
ATOM     16  C   UNL     1      42.883   5.015  12.198  0.00  0.00    +0.000 A 
ATOM     17  C   UNL     1      43.152   4.202  11.093  0.00  0.00    +0.000 A 
ATOM     18  C   UNL     1      44.424   3.646  10.923  0.00  0.00    +0.000 A 
ATOM     19  C   UNL     1      45.404   3.887  11.895  0.00  0.00    +0.000 A 
BRANCH  18  20
ATOM     20  C   UNL     1      44.794   2.861   9.686  0.00  0.00    +0.000 C 
BRANCH  20  21
ATOM     21  C   UNL     1      44.664   3.690   8.404  0.00  0.00    +0.000 C 
BRANCH  21  22
ATOM     22  O   UNL     1      45.399   4.910   8.484  0.00  0.00    +0.000 OA
ATOM     23  H   UNL     1      46.343   4.666   8.442  0.00  0.00    +0.000 HD
ENDBRANCH  21  22
ENDBRANCH  20  21
ENDBRANCH  18  20
ENDBRANCH  13  14
ENDBRANCH   1  13
TORSDOF 8
ENDMDL
