MODEL 1
REMARK VINA RESULT:    -7.706      0.000      0.000
REMARK INTER + INTRA:         -13.169
REMARK INTER:                 -12.211
REMARK INTRA:                  -0.958
REMARK UNBOUND:                -0.958
REMARK  Name = 
REMARK  12 active torsions:
REMARK  status: ('A' for Active; 'I' for Inactive)
REMARK    1  A    between atoms: C_1  and  C_2
REMARK    2  A    between atoms: C_2  and  C_3
REMARK    3  A    between atoms: C_3  and  C_4
REMARK    4  A    between atoms: C_4  and  N_5
REMARK    5  A    between atoms: C_4  and  C_23
REMARK    6  A    between atoms: N_5  and  C_6
REMARK    7  A    between atoms: C_6  and  C_7
REMARK    8  A    between atoms: C_10  and  C_11
REMARK    9  A    between atoms: C_11  and  N_12
REMARK   10  A    between atoms: N_12  and  C_13
REMARK   11  A    between atoms: N_12  and  C_14
REMARK   12  A    between atoms: C_14  and  C_15
REMARK                            x       y       z     vdW  Elec       q    Type
REMARK                         _______ _______ _______ _____ _____    ______ ____
ROOT
ATOM      1  N   UNL     1      48.907   5.385  16.009  0.00  0.00    +0.000 NA
ATOM      2  H   UNL     1      49.776   4.962  15.683  0.00  0.00    +0.000 HD
ENDROOT
BRANCH   1   3
ATOM      3  C   UNL     1      49.096   5.846  17.397  0.00  0.00    +0.000 C 
BRANCH   3   4
ATOM      4  C   UNL     1      50.312   5.128  17.960  0.00  0.00    +0.000 A 
ATOM      5  C   UNL     1      51.334   5.744  18.668  0.00  0.00    +0.000 A 
ATOM      6  S   UNL     1      52.655   4.710  18.988  0.00  0.00    +0.000 S 
ATOM      7  C   UNL     1      51.902   3.405  18.197  0.00  0.00    +0.000 A 
ATOM      8  N   UNL     1      52.544   2.221  18.013  0.00  0.00    +0.000 NA
ATOM      9  C   UNL     1      51.848   1.332  17.382  0.00  0.00    +0.000 A 
ATOM     10  N   UNL     1      50.554   1.508  16.956  0.00  0.00    +0.000 N 
ATOM     11  C   UNL     1      49.842   2.662  17.190  0.00  0.00    +0.000 A 
ATOM     12  O   UNL     1      48.644   2.739  16.917  0.00  0.00    +0.000 OA
ATOM     13  C   UNL     1      50.621   3.730  17.783  0.00  0.00    +0.000 A 
ATOM     14  H   UNL     1      50.046   0.746  16.530  0.00  0.00    +0.000 HD
ENDBRANCH   3   4
BRANCH   3  15
ATOM     15  C   UNL     1      47.831   5.563  18.244  0.00  0.00    +0.000 C 
BRANCH  15  17
ATOM     16  C   UNL     1      47.929   8.014  18.671  0.00  0.00    +0.000 C 
ATOM     17  C   UNL     1      47.401   6.681  19.194  0.00  0.00    +0.000 C 
ENDBRANCH  15  17
ENDBRANCH   3  15
ENDBRANCH   1   3
BRANCH   1  18
ATOM     18  C   UNL     1      48.579   6.489  15.104  0.00  0.00    +0.000 C 
BRANCH  18  19
ATOM     19  C   UNL     1      47.666   6.081  13.977  0.00  0.00    +0.000 A 
ATOM     20  C   UNL     1      46.797   4.991  14.133  0.00  0.00    +0.000 A 
ATOM     21  C   UNL     1      45.832   4.713  13.165  0.00  0.00    +0.000 A 
ATOM     22  C   UNL     1      45.707   5.529  12.034  0.00  0.00    +0.000 A 
ATOM     23  C   UNL     1      46.596   6.599  11.863  0.00  0.00    +0.000 A 
ATOM     24  C   UNL     1      47.564   6.875  12.829  0.00  0.00    +0.000 A 
BRANCH  22  25
ATOM     25  C   UNL     1      44.607   5.274  11.023  0.00  0.00    +0.000 C 
BRANCH  25  26
ATOM     26  N   UNL     1      44.526   3.859  10.596  0.00  0.00    +0.000 NA
ATOM     27  C   UNL     1      43.420   3.165  11.267  0.00  0.00    +0.000 C 
BRANCH  26  28
ATOM     28  C   UNL     1      44.320   3.781   9.132  0.00  0.00    +0.000 C 
BRANCH  28  29
ATOM     29  C   UNL     1      45.457   3.131   8.363  0.00  0.00    +0.000 A 
ATOM     30  C   UNL     1      45.718   1.769   8.506  0.00  0.00    +0.000 A 
ATOM     31  C   UNL     1      46.762   1.206   7.780  0.00  0.00    +0.000 A 
ATOM     32  C   UNL     1      47.518   2.011   6.936  0.00  0.00    +0.000 A 
ATOM     33  C   UNL     1      47.199   3.356   6.858  0.00  0.00    +0.000 A 
ATOM     34  N   UNL     1      46.191   3.932   7.548  0.00  0.00    +0.000 NA
ENDBRANCH  28  29
ENDBRANCH  26  28
ENDBRANCH  25  26
ENDBRANCH  22  25
ENDBRANCH  18  19
ENDBRANCH   1  18
TORSDOF 10
ENDMDL
MODEL 2
REMARK VINA RESULT:    -7.302      1.594      2.094
REMARK INTER + INTRA:         -12.529
REMARK INTER:                 -11.382
REMARK INTRA:                  -1.147
REMARK UNBOUND:                -0.958
REMARK  Name = 
REMARK  12 active torsions:
REMARK  status: ('A' for Active; 'I' for Inactive)
REMARK    1  A    between atoms: C_1  and  C_2
REMARK    2  A    between atoms: C_2  and  C_3
REMARK    3  A    between atoms: C_3  and  C_4
REMARK    4  A    between atoms: C_4  and  N_5
REMARK    5  A    between atoms: C_4  and  C_23
REMARK    6  A    between atoms: N_5  and  C_6
REMARK    7  A    between atoms: C_6  and  C_7
REMARK    8  A    between atoms: C_10  and  C_11
REMARK    9  A    between atoms: C_11  and  N_12
REMARK   10  A    between atoms: N_12  and  C_13
REMARK   11  A    between atoms: N_12  and  C_14
REMARK   12  A    between atoms: C_14  and  C_15
REMARK                            x       y       z     vdW  Elec       q    Type
REMARK                         _______ _______ _______ _____ _____    ______ ____
ROOT
ATOM      1  N   UNL     1      48.118   7.418  15.909  0.00  0.00    +0.000 NA
ATOM      2  H   UNL     1      47.172   7.037  15.907  0.00  0.00    +0.000 HD
ENDROOT
BRANCH   1   3
ATOM      3  C   UNL     1      48.792   7.008  17.154  0.00  0.00    +0.000 C 
BRANCH   3   4
ATOM      4  C   UNL     1      48.802   5.489  17.195  0.00  0.00    +0.000 A 
ATOM      5  C   UNL     1      47.666   4.693  17.223  0.00  0.00    +0.000 A 
ATOM      6  S   UNL     1      48.005   3.038  17.475  0.00  0.00    +0.000 S 
ATOM      7  C   UNL     1      49.679   3.330  17.549  0.00  0.00    +0.000 A 
ATOM      8  N   UNL     1      50.559   2.339  17.852  0.00  0.00    +0.000 NA
ATOM      9  C   UNL     1      51.795   2.719  17.886  0.00  0.00    +0.000 A 
ATOM     10  N   UNL     1      52.232   3.991  17.605  0.00  0.00    +0.000 N 
ATOM     11  C   UNL     1      51.383   5.003  17.220  0.00  0.00    +0.000 A 
ATOM     12  O   UNL     1      51.817   6.091  16.843  0.00  0.00    +0.000 OA
ATOM     13  C   UNL     1      49.977   4.657  17.288  0.00  0.00    +0.000 A 
ATOM     14  H   UNL     1      53.219   4.201  17.583  0.00  0.00    +0.000 HD
ENDBRANCH   3   4
BRANCH   3  15
ATOM     15  C   UNL     1      48.067   7.601  18.388  0.00  0.00    +0.000 C 
BRANCH  15  17
ATOM     16  C   UNL     1      47.842   7.894  20.850  0.00  0.00    +0.000 C 
ATOM     17  C   UNL     1      48.584   7.139  19.750  0.00  0.00    +0.000 C 
ENDBRANCH  15  17
ENDBRANCH   3  15
ENDBRANCH   1   3
BRANCH   1  18
ATOM     18  C   UNL     1      48.806   6.910  14.719  0.00  0.00    +0.000 C 
BRANCH  18  19
ATOM     19  C   UNL     1      47.863   6.406  13.658  0.00  0.00    +0.000 A 
ATOM     20  C   UNL     1      46.953   5.380  13.952  0.00  0.00    +0.000 A 
ATOM     21  C   UNL     1      45.966   5.027  13.033  0.00  0.00    +0.000 A 
ATOM     22  C   UNL     1      45.859   5.704  11.811  0.00  0.00    +0.000 A 
ATOM     23  C   UNL     1      46.788   6.707  11.504  0.00  0.00    +0.000 A 
ATOM     24  C   UNL     1      47.779   7.058  12.422  0.00  0.00    +0.000 A 
BRANCH  22  25
ATOM     25  C   UNL     1      44.738   5.373  10.847  0.00  0.00    +0.000 C 
BRANCH  25  26
ATOM     26  N   UNL     1      44.717   3.949  10.445  0.00  0.00    +0.000 NA
ATOM     27  C   UNL     1      43.627   3.226  11.112  0.00  0.00    +0.000 C 
BRANCH  26  28
ATOM     28  C   UNL     1      44.536   3.837   8.980  0.00  0.00    +0.000 C 
BRANCH  28  29
ATOM     29  C   UNL     1      45.593   3.011   8.270  0.00  0.00    +0.000 A 
ATOM     30  C   UNL     1      46.459   3.608   7.356  0.00  0.00    +0.000 A 
ATOM     31  C   UNL     1      47.422   2.822   6.730  0.00  0.00    +0.000 A 
ATOM     32  C   UNL     1      47.494   1.467   7.029  0.00  0.00    +0.000 A 
ATOM     33  C   UNL     1      46.592   0.950   7.943  0.00  0.00    +0.000 A 
ATOM     34  N   UNL     1      45.648   1.686   8.568  0.00  0.00    +0.000 NA
ENDBRANCH  28  29
ENDBRANCH  26  28
ENDBRANCH  25  26
ENDBRANCH  22  25
ENDBRANCH  18  19
ENDBRANCH   1  18
TORSDOF 10
ENDMDL
MODEL 3
REMARK VINA RESULT:    -7.216      2.076      2.875
REMARK INTER + INTRA:         -12.393
REMARK INTER:                 -11.052
REMARK INTRA:                  -1.340
REMARK UNBOUND:                -0.958
REMARK  Name = 
REMARK  12 active torsions:
REMARK  status: ('A' for Active; 'I' for Inactive)
REMARK    1  A    between atoms: C_1  and  C_2
REMARK    2  A    between atoms: C_2  and  C_3
REMARK    3  A    between atoms: C_3  and  C_4
REMARK    4  A    between atoms: C_4  and  N_5
REMARK    5  A    between atoms: C_4  and  C_23
REMARK    6  A    between atoms: N_5  and  C_6
REMARK    7  A    between atoms: C_6  and  C_7
REMARK    8  A    between atoms: C_10  and  C_11
REMARK    9  A    between atoms: C_11  and  N_12
REMARK   10  A    between atoms: N_12  and  C_13
REMARK   11  A    between atoms: N_12  and  C_14
REMARK   12  A    between atoms: C_14  and  C_15
REMARK                            x       y       z     vdW  Elec       q    Type
REMARK                         _______ _______ _______ _____ _____    ______ ____
ROOT
ATOM      1  N   UNL     1      49.112   5.963  15.672  0.00  0.00    +0.000 NA
ATOM      2  H   UNL     1      49.324   5.037  15.300  0.00  0.00    +0.000 HD
ENDROOT
BRANCH   1   3
ATOM      3  C   UNL     1      50.247   6.414  16.498  0.00  0.00    +0.000 C 
BRANCH   3   4
ATOM      4  C   UNL     1      49.699   6.808  17.860  0.00  0.00    +0.000 A 
ATOM      5  C   UNL     1      49.666   8.105  18.352  0.00  0.00    +0.000 A 
ATOM      6  S   UNL     1      49.183   8.197  19.988  0.00  0.00    +0.000 S 
ATOM      7  C   UNL     1      48.996   6.509  20.090  0.00  0.00    +0.000 A 
ATOM      8  N   UNL     1      48.696   5.898  21.267  0.00  0.00    +0.000 NA
ATOM      9  C   UNL     1      48.602   4.610  21.188  0.00  0.00    +0.000 A 
ATOM     10  N   UNL     1      48.742   3.884  20.031  0.00  0.00    +0.000 N 
ATOM     11  C   UNL     1      48.970   4.469  18.806  0.00  0.00    +0.000 A 
ATOM     12  O   UNL     1      48.955   3.805  17.769  0.00  0.00    +0.000 OA
ATOM     13  C   UNL     1      49.206   5.898  18.865  0.00  0.00    +0.000 A 
ATOM     14  H   UNL     1      48.588   2.886  20.029  0.00  0.00    +0.000 HD
ENDBRANCH   3   4
BRANCH   3  15
ATOM     15  C   UNL     1      50.978   7.599  15.820  0.00  0.00    +0.000 C 
BRANCH  15  17
ATOM     16  C   UNL     1      53.188   8.573  16.424  0.00  0.00    +0.000 C 
ATOM     17  C   UNL     1      52.491   7.447  15.665  0.00  0.00    +0.000 C 
ENDBRANCH  15  17
ENDBRANCH   3  15
ENDBRANCH   1   3
BRANCH   1  18
ATOM     18  C   UNL     1      48.870   6.857  14.536  0.00  0.00    +0.000 C 
BRANCH  18  19
ATOM     19  C   UNL     1      47.846   6.323  13.569  0.00  0.00    +0.000 A 
ATOM     20  C   UNL     1      46.957   5.313  13.968  0.00  0.00    +0.000 A 
ATOM     21  C   UNL     1      45.901   4.936  13.140  0.00  0.00    +0.000 A 
ATOM     22  C   UNL     1      45.702   5.572  11.908  0.00  0.00    +0.000 A 
ATOM     23  C   UNL     1      46.608   6.558  11.496  0.00  0.00    +0.000 A 
ATOM     24  C   UNL     1      47.668   6.934  12.322  0.00  0.00    +0.000 A 
BRANCH  22  25
ATOM     25  C   UNL     1      44.508   5.216  11.046  0.00  0.00    +0.000 C 
BRANCH  25  26
ATOM     26  N   UNL     1      44.524   3.811  10.580  0.00  0.00    +0.000 NA
ATOM     27  C   UNL     1      43.476   3.023  11.238  0.00  0.00    +0.000 C 
BRANCH  26  28
ATOM     28  C   UNL     1      44.312   3.759   9.116  0.00  0.00    +0.000 C 
BRANCH  28  29
ATOM     29  C   UNL     1      45.451   3.133   8.330  0.00  0.00    +0.000 A 
ATOM     30  C   UNL     1      45.781   1.791   8.513  0.00  0.00    +0.000 A 
ATOM     31  C   UNL     1      46.825   1.250   7.770  0.00  0.00    +0.000 A 
ATOM     32  C   UNL     1      47.511   2.056   6.870  0.00  0.00    +0.000 A 
ATOM     33  C   UNL     1      47.125   3.381   6.754  0.00  0.00    +0.000 A 
ATOM     34  N   UNL     1      46.116   3.936   7.459  0.00  0.00    +0.000 NA
ENDBRANCH  28  29
ENDBRANCH  26  28
ENDBRANCH  25  26
ENDBRANCH  22  25
ENDBRANCH  18  19
ENDBRANCH   1  18
TORSDOF 10
ENDMDL
MODEL 4
REMARK VINA RESULT:    -6.526      3.242      8.548
REMARK INTER + INTRA:         -11.299
REMARK INTER:                  -9.221
REMARK INTRA:                  -2.078
REMARK UNBOUND:                -0.958
REMARK  Name = 
REMARK  12 active torsions:
REMARK  status: ('A' for Active; 'I' for Inactive)
REMARK    1  A    between atoms: C_1  and  C_2
REMARK    2  A    between atoms: C_2  and  C_3
REMARK    3  A    between atoms: C_3  and  C_4
REMARK    4  A    between atoms: C_4  and  N_5
REMARK    5  A    between atoms: C_4  and  C_23
REMARK    6  A    between atoms: N_5  and  C_6
REMARK    7  A    between atoms: C_6  and  C_7
REMARK    8  A    between atoms: C_10  and  C_11
REMARK    9  A    between atoms: C_11  and  N_12
REMARK   10  A    between atoms: N_12  and  C_13
REMARK   11  A    between atoms: N_12  and  C_14
REMARK   12  A    between atoms: C_14  and  C_15
REMARK                            x       y       z     vdW  Elec       q    Type
REMARK                         _______ _______ _______ _____ _____    ______ ____
ROOT
ATOM      1  N   UNL     1      47.323   8.796  14.612  0.00  0.00    +0.000 NA
ATOM      2  H   UNL     1      46.637   9.440  15.005  0.00  0.00    +0.000 HD
ENDROOT
BRANCH   1   3
ATOM      3  C   UNL     1      46.917   8.453  13.236  0.00  0.00    +0.000 C 
BRANCH   3   4
ATOM      4  C   UNL     1      46.581   6.971  13.210  0.00  0.00    +0.000 A 
ATOM      5  C   UNL     1      47.224   6.003  13.968  0.00  0.00    +0.000 A 
ATOM      6  S   UNL     1      46.761   4.409  13.564  0.00  0.00    +0.000 S 
ATOM      7  C   UNL     1      45.684   4.961  12.369  0.00  0.00    +0.000 A 
ATOM      8  N   UNL     1      45.023   4.094  11.555  0.00  0.00    +0.000 NA
ATOM      9  C   UNL     1      44.252   4.665  10.687  0.00  0.00    +0.000 A 
ATOM     10  N   UNL     1      44.052   6.020  10.588  0.00  0.00    +0.000 N 
ATOM     11  C   UNL     1      44.641   6.925  11.440  0.00  0.00    +0.000 A 
ATOM     12  O   UNL     1      44.337   8.118  11.414  0.00  0.00    +0.000 OA
ATOM     13  C   UNL     1      45.609   6.343  12.348  0.00  0.00    +0.000 A 
ATOM     14  H   UNL     1      43.383   6.393   9.931  0.00  0.00    +0.000 HD
ENDBRANCH   3   4
BRANCH   3  15
ATOM     15  C   UNL     1      48.047   8.793  12.233  0.00  0.00    +0.000 C 
BRANCH  15  17
ATOM     16  C   UNL     1      50.157   7.739  11.437  0.00  0.00    +0.000 C 
ATOM     17  C   UNL     1      48.637   7.609  11.467  0.00  0.00    +0.000 C 
ENDBRANCH  15  17
ENDBRANCH   3  15
ENDBRANCH   1   3
BRANCH   1  18
ATOM     18  C   UNL     1      48.630   9.458  14.649  0.00  0.00    +0.000 C 
BRANCH  18  19
ATOM     19  C   UNL     1      49.628   8.747  15.526  0.00  0.00    +0.000 A 
ATOM     20  C   UNL     1      49.648   8.984  16.909  0.00  0.00    +0.000 A 
ATOM     21  C   UNL     1      50.449   8.209  17.746  0.00  0.00    +0.000 A 
ATOM     22  C   UNL     1      51.231   7.173  17.220  0.00  0.00    +0.000 A 
ATOM     23  C   UNL     1      51.236   6.957  15.835  0.00  0.00    +0.000 A 
ATOM     24  C   UNL     1      50.437   7.735  14.997  0.00  0.00    +0.000 A 
BRANCH  22  25
ATOM     25  C   UNL     1      52.040   6.280  18.140  0.00  0.00    +0.000 C 
BRANCH  25  26
ATOM     26  N   UNL     1      52.226   4.912  17.607  0.00  0.00    +0.000 NA
ATOM     27  C   UNL     1      53.643   4.530  17.611  0.00  0.00    +0.000 C 
BRANCH  26  28
ATOM     28  C   UNL     1      51.467   3.940  18.426  0.00  0.00    +0.000 C 
BRANCH  28  29
ATOM     29  C   UNL     1      50.043   3.690  17.961  0.00  0.00    +0.000 A 
ATOM     30  C   UNL     1      48.990   4.440  18.481  0.00  0.00    +0.000 A 
ATOM     31  C   UNL     1      47.699   4.190  18.025  0.00  0.00    +0.000 A 
ATOM     32  C   UNL     1      47.493   3.203  17.069  0.00  0.00    +0.000 A 
ATOM     33  C   UNL     1      48.593   2.498  16.610  0.00  0.00    +0.000 A 
ATOM     34  N   UNL     1      49.857   2.718  17.030  0.00  0.00    +0.000 NA
ENDBRANCH  28  29
ENDBRANCH  26  28
ENDBRANCH  25  26
ENDBRANCH  22  25
ENDBRANCH  18  19
ENDBRANCH   1  18
TORSDOF 10
ENDMDL
MODEL 5
REMARK VINA RESULT:    -6.400      2.368      3.663
REMARK INTER + INTRA:         -11.100
REMARK INTER:                  -9.680
REMARK INTRA:                  -1.420
REMARK UNBOUND:                -0.958
REMARK  Name = 
REMARK  12 active torsions:
REMARK  status: ('A' for Active; 'I' for Inactive)
REMARK    1  A    between atoms: C_1  and  C_2
REMARK    2  A    between atoms: C_2  and  C_3
REMARK    3  A    between atoms: C_3  and  C_4
REMARK    4  A    between atoms: C_4  and  N_5
REMARK    5  A    between atoms: C_4  and  C_23
REMARK    6  A    between atoms: N_5  and  C_6
REMARK    7  A    between atoms: C_6  and  C_7
REMARK    8  A    between atoms: C_10  and  C_11
REMARK    9  A    between atoms: C_11  and  N_12
REMARK   10  A    between atoms: N_12  and  C_13
REMARK   11  A    between atoms: N_12  and  C_14
REMARK   12  A    between atoms: C_14  and  C_15
REMARK                            x       y       z     vdW  Elec       q    Type
REMARK                         _______ _______ _______ _____ _____    ______ ____
ROOT
ATOM      1  N   UNL     1      48.162   7.349  18.494  0.00  0.00    +0.000 NA
ATOM      2  H   UNL     1      47.689   6.680  17.887  0.00  0.00    +0.000 HD
ENDROOT
BRANCH   1   3
ATOM      3  C   UNL     1      48.803   6.614  19.600  0.00  0.00    +0.000 C 
BRANCH   3   4
ATOM      4  C   UNL     1      49.449   5.370  19.015  0.00  0.00    +0.000 A 
ATOM      5  C   UNL     1      50.785   5.028  19.167  0.00  0.00    +0.000 A 
ATOM      6  S   UNL     1      51.252   3.684  18.222  0.00  0.00    +0.000 S 
ATOM      7  C   UNL     1      49.686   3.512  17.584  0.00  0.00    +0.000 A 
ATOM      8  N   UNL     1      49.411   2.599  16.614  0.00  0.00    +0.000 NA
ATOM      9  C   UNL     1      48.179   2.598  16.220  0.00  0.00    +0.000 A 
ATOM     10  N   UNL     1      47.190   3.399  16.736  0.00  0.00    +0.000 N 
ATOM     11  C   UNL     1      47.408   4.281  17.769  0.00  0.00    +0.000 A 
ATOM     12  O   UNL     1      46.477   4.885  18.301  0.00  0.00    +0.000 OA
ATOM     13  C   UNL     1      48.799   4.407  18.159  0.00  0.00    +0.000 A 
ATOM     14  H   UNL     1      46.234   3.297  16.428  0.00  0.00    +0.000 HD
ENDBRANCH   3   4
BRANCH   3  15
ATOM     15  C   UNL     1      47.763   6.251  20.689  0.00  0.00    +0.000 C 
BRANCH  15  17
ATOM     16  C   UNL     1      47.315   8.391  21.879  0.00  0.00    +0.000 C 
ATOM     17  C   UNL     1      47.904   6.990  22.019  0.00  0.00    +0.000 C 
ENDBRANCH  15  17
ENDBRANCH   3  15
ENDBRANCH   1   3
BRANCH   1  18
ATOM     18  C   UNL     1      49.140   8.077  17.680  0.00  0.00    +0.000 C 
BRANCH  18  19
ATOM     19  C   UNL     1      48.861   7.994  16.202  0.00  0.00    +0.000 A 
ATOM     20  C   UNL     1      49.023   6.778  15.521  0.00  0.00    +0.000 A 
ATOM     21  C   UNL     1      48.606   6.650  14.197  0.00  0.00    +0.000 A 
ATOM     22  C   UNL     1      48.003   7.727  13.535  0.00  0.00    +0.000 A 
ATOM     23  C   UNL     1      47.870   8.951  14.206  0.00  0.00    +0.000 A 
ATOM     24  C   UNL     1      48.291   9.081  15.529  0.00  0.00    +0.000 A 
BRANCH  22  25
ATOM     25  C   UNL     1      47.478   7.563  12.123  0.00  0.00    +0.000 C 
BRANCH  25  26
ATOM     26  N   UNL     1      46.069   7.112  12.075  0.00  0.00    +0.000 NA
ATOM     27  C   UNL     1      45.157   8.243  11.871  0.00  0.00    +0.000 C 
BRANCH  26  28
ATOM     28  C   UNL     1      45.883   6.143  10.971  0.00  0.00    +0.000 C 
BRANCH  28  29
ATOM     29  C   UNL     1      44.990   4.962  11.305  0.00  0.00    +0.000 A 
ATOM     30  C   UNL     1      44.424   4.841  12.573  0.00  0.00    +0.000 A 
ATOM     31  C   UNL     1      43.604   3.750  12.841  0.00  0.00    +0.000 A 
ATOM     32  C   UNL     1      43.371   2.811  11.843  0.00  0.00    +0.000 A 
ATOM     33  C   UNL     1      43.977   3.001  10.613  0.00  0.00    +0.000 A 
ATOM     34  N   UNL     1      44.777   4.050  10.321  0.00  0.00    +0.000 NA
ENDBRANCH  28  29
ENDBRANCH  26  28
ENDBRANCH  25  26
ENDBRANCH  22  25
ENDBRANCH  18  19
ENDBRANCH   1  18
TORSDOF 10
ENDMDL
MODEL 6
REMARK VINA RESULT:    -6.393      3.345      8.770
REMARK INTER + INTRA:         -11.089
REMARK INTER:                  -9.021
REMARK INTRA:                  -2.068
REMARK UNBOUND:                -0.958
REMARK  Name = 
REMARK  12 active torsions:
REMARK  status: ('A' for Active; 'I' for Inactive)
REMARK    1  A    between atoms: C_1  and  C_2
REMARK    2  A    between atoms: C_2  and  C_3
REMARK    3  A    between atoms: C_3  and  C_4
REMARK    4  A    between atoms: C_4  and  N_5
REMARK    5  A    between atoms: C_4  and  C_23
REMARK    6  A    between atoms: N_5  and  C_6
REMARK    7  A    between atoms: C_6  and  C_7
REMARK    8  A    between atoms: C_10  and  C_11
REMARK    9  A    between atoms: C_11  and  N_12
REMARK   10  A    between atoms: N_12  and  C_13
REMARK   11  A    between atoms: N_12  and  C_14
REMARK   12  A    between atoms: C_14  and  C_15
REMARK                            x       y       z     vdW  Elec       q    Type
REMARK                         _______ _______ _______ _____ _____    ______ ____
ROOT
ATOM      1  N   UNL     1      46.906   6.453  13.423  0.00  0.00    +0.000 NA
ATOM      2  H   UNL     1      46.564   6.545  14.379  0.00  0.00    +0.000 HD
ENDROOT
BRANCH   1   3
ATOM      3  C   UNL     1      45.861   6.926  12.497  0.00  0.00    +0.000 C 
BRANCH   3   4
ATOM      4  C   UNL     1      45.648   5.844  11.450  0.00  0.00    +0.000 A 
ATOM      5  C   UNL     1      46.006   5.959  10.114  0.00  0.00    +0.000 A 
ATOM      6  S   UNL     1      45.452   4.661   9.151  0.00  0.00    +0.000 S 
ATOM      7  C   UNL     1      44.722   3.903  10.487  0.00  0.00    +0.000 A 
ATOM      8  N   UNL     1      43.971   2.778  10.342  0.00  0.00    +0.000 NA
ATOM      9  C   UNL     1      43.470   2.329  11.446  0.00  0.00    +0.000 A 
ATOM     10  N   UNL     1      43.686   2.878  12.686  0.00  0.00    +0.000 N 
ATOM     11  C   UNL     1      44.499   3.970  12.887  0.00  0.00    +0.000 A 
ATOM     12  O   UNL     1      44.782   4.356  14.021  0.00  0.00    +0.000 OA
ATOM     13  C   UNL     1      44.983   4.582  11.665  0.00  0.00    +0.000 A 
ATOM     14  H   UNL     1      43.319   2.435  13.516  0.00  0.00    +0.000 HD
ENDBRANCH   3   4
BRANCH   3  15
ATOM     15  C   UNL     1      46.275   8.268  11.845  0.00  0.00    +0.000 C 
BRANCH  15  17
ATOM     16  C   UNL     1      46.130  10.753  11.852  0.00  0.00    +0.000 C 
ATOM     17  C   UNL     1      45.371   9.463  12.148  0.00  0.00    +0.000 C 
ENDBRANCH  15  17
ENDBRANCH   3  15
ENDBRANCH   1   3
BRANCH   1  18
ATOM     18  C   UNL     1      48.136   7.242  13.310  0.00  0.00    +0.000 C 
BRANCH  18  19
ATOM     19  C   UNL     1      48.728   7.610  14.646  0.00  0.00    +0.000 A 
ATOM     20  C   UNL     1      48.092   8.556  15.463  0.00  0.00    +0.000 A 
ATOM     21  C   UNL     1      48.537   8.776  16.766  0.00  0.00    +0.000 A 
ATOM     22  C   UNL     1      49.613   8.043  17.282  0.00  0.00    +0.000 A 
ATOM     23  C   UNL     1      50.269   7.121  16.454  0.00  0.00    +0.000 A 
ATOM     24  C   UNL     1      49.826   6.904  15.149  0.00  0.00    +0.000 A 
BRANCH  22  25
ATOM     25  C   UNL     1      50.045   8.226  18.723  0.00  0.00    +0.000 C 
BRANCH  25  26
ATOM     26  N   UNL     1      50.321   6.946  19.414  0.00  0.00    +0.000 NA
ATOM     27  C   UNL     1      51.063   7.166  20.661  0.00  0.00    +0.000 C 
BRANCH  26  28
ATOM     28  C   UNL     1      49.050   6.256  19.731  0.00  0.00    +0.000 C 
BRANCH  28  29
ATOM     29  C   UNL     1      48.686   5.126  18.784  0.00  0.00    +0.000 A 
ATOM     30  C   UNL     1      47.445   5.109  18.150  0.00  0.00    +0.000 A 
ATOM     31  C   UNL     1      47.149   4.062  17.283  0.00  0.00    +0.000 A 
ATOM     32  C   UNL     1      48.092   3.064  17.073  0.00  0.00    +0.000 A 
ATOM     33  C   UNL     1      49.298   3.151  17.747  0.00  0.00    +0.000 A 
ATOM     34  N   UNL     1      49.616   4.154  18.594  0.00  0.00    +0.000 NA
ENDBRANCH  28  29
ENDBRANCH  26  28
ENDBRANCH  25  26
ENDBRANCH  22  25
ENDBRANCH  18  19
ENDBRANCH   1  18
TORSDOF 10
ENDMDL
MODEL 7
REMARK VINA RESULT:    -5.883      1.702      2.352
REMARK INTER + INTRA:         -10.280
REMARK INTER:                 -10.499
REMARK INTRA:                   0.218
REMARK UNBOUND:                -0.958
REMARK  Name = 
REMARK  12 active torsions:
REMARK  status: ('A' for Active; 'I' for Inactive)
REMARK    1  A    between atoms: C_1  and  C_2
REMARK    2  A    between atoms: C_2  and  C_3
REMARK    3  A    between atoms: C_3  and  C_4
REMARK    4  A    between atoms: C_4  and  N_5
REMARK    5  A    between atoms: C_4  and  C_23
REMARK    6  A    between atoms: N_5  and  C_6
REMARK    7  A    between atoms: C_6  and  C_7
REMARK    8  A    between atoms: C_10  and  C_11
REMARK    9  A    between atoms: C_11  and  N_12
REMARK   10  A    between atoms: N_12  and  C_13
REMARK   11  A    between atoms: N_12  and  C_14
REMARK   12  A    between atoms: C_14  and  C_15
REMARK                            x       y       z     vdW  Elec       q    Type
REMARK                         _______ _______ _______ _____ _____    ______ ____
ROOT
ATOM      1  N   UNL     1      49.791   6.750  14.777  0.00  0.00    +0.000 NA
ATOM      2  H   UNL     1      50.578   6.400  14.231  0.00  0.00    +0.000 HD
ENDROOT
BRANCH   1   3
ATOM      3  C   UNL     1      50.296   7.708  15.778  0.00  0.00    +0.000 C 
BRANCH   3   4
ATOM      4  C   UNL     1      51.442   7.039  16.519  0.00  0.00    +0.000 A 
ATOM      5  C   UNL     1      52.707   7.587  16.676  0.00  0.00    +0.000 A 
ATOM      6  S   UNL     1      53.831   6.508  17.376  0.00  0.00    +0.000 S 
ATOM      7  C   UNL     1      52.663   5.277  17.497  0.00  0.00    +0.000 A 
ATOM      8  N   UNL     1      52.991   4.028  17.924  0.00  0.00    +0.000 NA
ATOM      9  C   UNL     1      52.000   3.198  17.948  0.00  0.00    +0.000 A 
ATOM     10  N   UNL     1      50.704   3.516  17.623  0.00  0.00    +0.000 N 
ATOM     11  C   UNL     1      50.316   4.785  17.260  0.00  0.00    +0.000 A 
ATOM     12  O   UNL     1      49.128   5.071  17.108  0.00  0.00    +0.000 OA
ATOM     13  C   UNL     1      51.413   5.718  17.099  0.00  0.00    +0.000 A 
ATOM     14  H   UNL     1      49.966   2.835  17.730  0.00  0.00    +0.000 HD
ENDBRANCH   3   4
BRANCH   3  15
ATOM     15  C   UNL     1      49.165   8.129  16.749  0.00  0.00    +0.000 C 
BRANCH  15  17
ATOM     16  C   UNL     1      47.890   9.874  17.984  0.00  0.00    +0.000 C 
ATOM     17  C   UNL     1      48.985   9.634  16.949  0.00  0.00    +0.000 C 
ENDBRANCH  15  17
ENDBRANCH   3  15
ENDBRANCH   1   3
BRANCH   1  18
ATOM     18  C   UNL     1      48.846   7.375  13.847  0.00  0.00    +0.000 C 
BRANCH  18  19
ATOM     19  C   UNL     1      47.697   6.475  13.476  0.00  0.00    +0.000 A 
ATOM     20  C   UNL     1      47.087   6.591  12.217  0.00  0.00    +0.000 A 
ATOM     21  C   UNL     1      46.142   5.654  11.801  0.00  0.00    +0.000 A 
ATOM     22  C   UNL     1      45.801   4.576  12.627  0.00  0.00    +0.000 A 
ATOM     23  C   UNL     1      46.387   4.477  13.897  0.00  0.00    +0.000 A 
ATOM     24  C   UNL     1      47.330   5.417  14.315  0.00  0.00    +0.000 A 
BRANCH  22  25
ATOM     25  C   UNL     1      44.834   3.515  12.143  0.00  0.00    +0.000 C 
BRANCH  25  26
ATOM     26  N   UNL     1      43.525   4.068  11.726  0.00  0.00    +0.000 NA
ATOM     27  C   UNL     1      43.120   5.180  12.593  0.00  0.00    +0.000 C 
BRANCH  26  28
ATOM     28  C   UNL     1      43.601   4.554  10.330  0.00  0.00    +0.000 C 
BRANCH  28  29
ATOM     29  C   UNL     1      44.509   3.744   9.422  0.00  0.00    +0.000 A 
ATOM     30  C   UNL     1      45.379   4.384   8.541  0.00  0.00    +0.000 A 
ATOM     31  C   UNL     1      46.203   3.610   7.730  0.00  0.00    +0.000 A 
ATOM     32  C   UNL     1      46.137   2.224   7.817  0.00  0.00    +0.000 A 
ATOM     33  C   UNL     1      45.240   1.667   8.712  0.00  0.00    +0.000 A 
ATOM     34  N   UNL     1      44.428   2.391   9.514  0.00  0.00    +0.000 NA
ENDBRANCH  28  29
ENDBRANCH  26  28
ENDBRANCH  25  26
ENDBRANCH  22  25
ENDBRANCH  18  19
ENDBRANCH   1  18
TORSDOF 10
ENDMDL
MODEL 8
REMARK VINA RESULT:    -5.771      4.129      8.589
REMARK INTER + INTRA:         -10.102
REMARK INTER:                  -8.353
REMARK INTRA:                  -1.750
REMARK UNBOUND:                -0.958
REMARK  Name = 
REMARK  12 active torsions:
REMARK  status: ('A' for Active; 'I' for Inactive)
REMARK    1  A    between atoms: C_1  and  C_2
REMARK    2  A    between atoms: C_2  and  C_3
REMARK    3  A    between atoms: C_3  and  C_4
REMARK    4  A    between atoms: C_4  and  N_5
REMARK    5  A    between atoms: C_4  and  C_23
REMARK    6  A    between atoms: N_5  and  C_6
REMARK    7  A    between atoms: C_6  and  C_7
REMARK    8  A    between atoms: C_10  and  C_11
REMARK    9  A    between atoms: C_11  and  N_12
REMARK   10  A    between atoms: N_12  and  C_13
REMARK   11  A    between atoms: N_12  and  C_14
REMARK   12  A    between atoms: C_14  and  C_15
REMARK                            x       y       z     vdW  Elec       q    Type
REMARK                         _______ _______ _______ _____ _____    ______ ____
ROOT
ATOM      1  N   UNL     1      48.926   8.325  14.198  0.00  0.00    +0.000 NA
ATOM      2  H   UNL     1      48.465   7.418  14.276  0.00  0.00    +0.000 HD
ENDROOT
BRANCH   1   3
ATOM      3  C   UNL     1      48.652   8.882  12.861  0.00  0.00    +0.000 C 
BRANCH   3   4
ATOM      4  C   UNL     1      47.236   8.486  12.477  0.00  0.00    +0.000 A 
ATOM      5  C   UNL     1      46.290   9.353  11.947  0.00  0.00    +0.000 A 
ATOM      6  S   UNL     1      44.736   8.658  11.813  0.00  0.00    +0.000 S 
ATOM      7  C   UNL     1      45.276   7.178  12.452  0.00  0.00    +0.000 A 
ATOM      8  N   UNL     1      44.413   6.158  12.709  0.00  0.00    +0.000 NA
ATOM      9  C   UNL     1      44.971   5.103  13.207  0.00  0.00    +0.000 A 
ATOM     10  N   UNL     1      46.318   4.962  13.433  0.00  0.00    +0.000 N 
ATOM     11  C   UNL     1      47.234   5.939  13.116  0.00  0.00    +0.000 A 
ATOM     12  O   UNL     1      48.445   5.731  13.203  0.00  0.00    +0.000 OA
ATOM     13  C   UNL     1      46.643   7.185  12.672  0.00  0.00    +0.000 A 
ATOM     14  H   UNL     1      46.695   4.084  13.760  0.00  0.00    +0.000 HD
ENDBRANCH   3   4
BRANCH   3  15
ATOM     15  C   UNL     1      49.683   8.360  11.830  0.00  0.00    +0.000 C 
BRANCH  15  17
ATOM     16  C   UNL     1      49.962  10.684  10.982  0.00  0.00    +0.000 C 
ATOM     17  C   UNL     1      50.693   9.388  11.319  0.00  0.00    +0.000 C 
ENDBRANCH  15  17
ENDBRANCH   3  15
ENDBRANCH   1   3
BRANCH   1  18
ATOM     18  C   UNL     1      48.408   9.183  15.267  0.00  0.00    +0.000 C 
BRANCH  18  19
ATOM     19  C   UNL     1      48.800   8.716  16.645  0.00  0.00    +0.000 A 
ATOM     20  C   UNL     1      47.970   8.982  17.744  0.00  0.00    +0.000 A 
ATOM     21  C   UNL     1      48.238   8.410  18.986  0.00  0.00    +0.000 A 
ATOM     22  C   UNL     1      49.331   7.549  19.150  0.00  0.00    +0.000 A 
ATOM     23  C   UNL     1      50.179   7.309  18.060  0.00  0.00    +0.000 A 
ATOM     24  C   UNL     1      49.912   7.884  16.817  0.00  0.00    +0.000 A 
BRANCH  22  25
ATOM     25  C   UNL     1      49.576   6.865  20.480  0.00  0.00    +0.000 C 
BRANCH  25  26
ATOM     26  N   UNL     1      49.940   5.437  20.341  0.00  0.00    +0.000 NA
ATOM     27  C   UNL     1      50.702   4.969  21.505  0.00  0.00    +0.000 C 
BRANCH  26  28
ATOM     28  C   UNL     1      48.718   4.612  20.209  0.00  0.00    +0.000 C 
BRANCH  28  29
ATOM     29  C   UNL     1      48.438   4.111  18.803  0.00  0.00    +0.000 A 
ATOM     30  C   UNL     1      49.222   3.103  18.244  0.00  0.00    +0.000 A 
ATOM     31  C   UNL     1      48.931   2.662  16.957  0.00  0.00    +0.000 A 
ATOM     32  C   UNL     1      47.874   3.237  16.262  0.00  0.00    +0.000 A 
ATOM     33  C   UNL     1      47.150   4.239  16.886  0.00  0.00    +0.000 A 
ATOM     34  N   UNL     1      47.405   4.687  18.134  0.00  0.00    +0.000 NA
ENDBRANCH  28  29
ENDBRANCH  26  28
ENDBRANCH  25  26
ENDBRANCH  22  25
ENDBRANCH  18  19
ENDBRANCH   1  18
TORSDOF 10
ENDMDL
MODEL 9
REMARK VINA RESULT:    -5.681      4.606      8.852
REMARK INTER + INTRA:          -9.961
REMARK INTER:                  -7.880
REMARK INTRA:                  -2.080
REMARK UNBOUND:                -0.958
REMARK  Name = 
REMARK  12 active torsions:
REMARK  status: ('A' for Active; 'I' for Inactive)
REMARK    1  A    between atoms: C_1  and  C_2
REMARK    2  A    between atoms: C_2  and  C_3
REMARK    3  A    between atoms: C_3  and  C_4
REMARK    4  A    between atoms: C_4  and  N_5
REMARK    5  A    between atoms: C_4  and  C_23
REMARK    6  A    between atoms: N_5  and  C_6
REMARK    7  A    between atoms: C_6  and  C_7
REMARK    8  A    between atoms: C_10  and  C_11
REMARK    9  A    between atoms: C_11  and  N_12
REMARK   10  A    between atoms: N_12  and  C_13
REMARK   11  A    between atoms: N_12  and  C_14
REMARK   12  A    between atoms: C_14  and  C_15
REMARK                            x       y       z     vdW  Elec       q    Type
REMARK                         _______ _______ _______ _____ _____    ______ ____
ROOT
ATOM      1  N   UNL     1      50.889   8.012  13.476  0.00  0.00    +0.000 NA
ATOM      2  H   UNL     1      50.482   7.179  13.900  0.00  0.00    +0.000 HD
ENDROOT
BRANCH   1   3
ATOM      3  C   UNL     1      50.132   8.339  12.253  0.00  0.00    +0.000 C 
BRANCH   3   4
ATOM      4  C   UNL     1      48.703   7.864  12.454  0.00  0.00    +0.000 A 
ATOM      5  C   UNL     1      48.324   6.535  12.587  0.00  0.00    +0.000 A 
ATOM      6  S   UNL     1      46.631   6.311  12.593  0.00  0.00    +0.000 S 
ATOM      7  C   UNL     1      46.349   7.979  12.422  0.00  0.00    +0.000 A 
ATOM      8  N   UNL     1      45.093   8.474  12.255  0.00  0.00    +0.000 NA
ATOM      9  C   UNL     1      45.042   9.759  12.124  0.00  0.00    +0.000 A 
ATOM     10  N   UNL     1      46.128  10.598  12.187  0.00  0.00    +0.000 N 
ATOM     11  C   UNL     1      47.404  10.147  12.431  0.00  0.00    +0.000 A 
ATOM     12  O   UNL     1      48.334  10.932  12.616  0.00  0.00    +0.000 OA
ATOM     13  C   UNL     1      47.529   8.703  12.460  0.00  0.00    +0.000 A 
ATOM     14  H   UNL     1      46.006  11.599  12.145  0.00  0.00    +0.000 HD
ENDBRANCH   3   4
BRANCH   3  15
ATOM     15  C   UNL     1      50.780   7.670  11.016  0.00  0.00    +0.000 C 
BRANCH  15  17
ATOM     16  C   UNL     1      52.766   7.140   9.610  0.00  0.00    +0.000 C 
ATOM     17  C   UNL     1      52.292   7.847  10.877  0.00  0.00    +0.000 C 
ENDBRANCH  15  17
ENDBRANCH   3  15
ENDBRANCH   1   3
BRANCH   1  18
ATOM     18  C   UNL     1      50.826   9.093  14.464  0.00  0.00    +0.000 C 
BRANCH  18  19
ATOM     19  C   UNL     1      50.071   8.712  15.711  0.00  0.00    +0.000 A 
ATOM     20  C   UNL     1      50.719   8.024  16.747  0.00  0.00    +0.000 A 
ATOM     21  C   UNL     1      50.079   7.820  17.968  0.00  0.00    +0.000 A 
ATOM     22  C   UNL     1      48.786   8.314  18.183  0.00  0.00    +0.000 A 
ATOM     23  C   UNL     1      48.126   8.974  17.137  0.00  0.00    +0.000 A 
ATOM     24  C   UNL     1      48.766   9.175  15.914  0.00  0.00    +0.000 A 
BRANCH  22  25
ATOM     25  C   UNL     1      48.122   8.161  19.536  0.00  0.00    +0.000 C 
BRANCH  25  26
ATOM     26  N   UNL     1      48.046   6.755  19.992  0.00  0.00    +0.000 NA
ATOM     27  C   UNL     1      47.608   6.674  21.390  0.00  0.00    +0.000 C 
BRANCH  26  28
ATOM     28  C   UNL     1      47.093   5.999  19.149  0.00  0.00    +0.000 C 
BRANCH  28  29
ATOM     29  C   UNL     1      47.705   4.841  18.379  0.00  0.00    +0.000 A 
ATOM     30  C   UNL     1      49.001   4.413  18.661  0.00  0.00    +0.000 A 
ATOM     31  C   UNL     1      49.527   3.344  17.942  0.00  0.00    +0.000 A 
ATOM     32  C   UNL     1      48.751   2.734  16.964  0.00  0.00    +0.000 A 
ATOM     33  C   UNL     1      47.476   3.225  16.740  0.00  0.00    +0.000 A 
ATOM     34  N   UNL     1      46.937   4.259  17.422  0.00  0.00    +0.000 NA
ENDBRANCH  28  29
ENDBRANCH  26  28
ENDBRANCH  25  26
ENDBRANCH  22  25
ENDBRANCH  18  19
ENDBRANCH   1  18
TORSDOF 10
ENDMDL
