MODEL 1
REMARK VINA RESULT:    -7.451      0.000      0.000
REMARK INTER + INTRA:         -10.151
REMARK INTER:                  -9.629
REMARK INTRA:                  -0.522
REMARK UNBOUND:                -0.522
REMARK  Name = 
REMARK  5 active torsions:
REMARK  status: ('A' for Active; 'I' for Inactive)
REMARK    1  A    between atoms: C_2  and  C_4
REMARK    2  A    between atoms: C_8  and  C_9
REMARK    3  A    between atoms: C_9  and  O_10
REMARK    4  A    between atoms: O_10  and  C_11
REMARK    5  A    between atoms: C_15  and  C_16
REMARK                            x       y       z     vdW  Elec       q    Type
REMARK                         _______ _______ _______ _____ _____    ______ ____
ROOT
ATOM      1  O   UNL     1      43.642   4.909   9.629  0.00  0.00    +0.000 OA
ENDROOT
BRANCH   1   2
ATOM      2  C   UNL     1      44.410   3.880   9.169  0.00  0.00    +0.000 A 
ATOM      3  C   UNL     1      44.143   2.610   9.649  0.00  0.00    +0.000 A 
ATOM      4  N   UNL     1      44.822   1.498   9.278  0.00  0.00    +0.000 NA
ATOM      5  C   UNL     1      45.831   1.671   8.392  0.00  0.00    +0.000 A 
ATOM      6  C   UNL     1      46.212   2.902   7.860  0.00  0.00    +0.000 A 
ATOM      7  C   UNL     1      45.476   4.012   8.287  0.00  0.00    +0.000 A 
BRANCH   6   8
ATOM      8  C   UNL     1      47.352   3.000   6.863  0.00  0.00    +0.000 C 
ATOM      9  C   UNL     1      46.927   3.444   5.453  0.00  0.00    +0.000 C 
ATOM     10  C   UNL     1      46.356   2.317   4.591  0.00  0.00    +0.000 C 
ATOM     11  N   UNL     1      47.200   1.124   4.566  0.00  0.00    +0.000 NA
ATOM     12  C   UNL     1      47.573   0.635   5.891  0.00  0.00    +0.000 C 
ATOM     13  C   UNL     1      48.194   1.717   6.776  0.00  0.00    +0.000 C 
ATOM     14  H   UNL     1      48.052   1.333   4.042  0.00  0.00    +0.000 HD
ENDBRANCH   6   8
ENDBRANCH   1   2
BRANCH   1  15
ATOM     15  C   UNL     1      43.437   4.948  11.048  0.00  0.00    +0.000 C 
BRANCH  15  20
ATOM     16  C   UNL     1      46.408   5.132  13.440  0.00  0.00    +0.000 A 
ATOM     17  C   UNL     1      47.006   6.335  13.046  0.00  0.00    +0.000 A 
ATOM     18  C   UNL     1      46.438   7.095  12.024  0.00  0.00    +0.000 A 
ATOM     19  C   UNL     1      45.285   6.649  11.380  0.00  0.00    +0.000 A 
ATOM     20  C   UNL     1      44.696   5.426  11.731  0.00  0.00    +0.000 A 
ATOM     21  C   UNL     1      45.255   4.683  12.783  0.00  0.00    +0.000 A 
BRANCH  16  23
ATOM     22  N   UNL     1      47.058   4.833  15.772  0.00  0.00    +0.000 N 
ATOM     23  C   UNL     1      46.979   4.285  14.521  0.00  0.00    +0.000 C 
ATOM     24  O   UNL     1      47.335   3.131  14.318  0.00  0.00    +0.000 OA
ATOM     25  H   UNL     1      47.363   4.214  16.514  0.00  0.00    +0.000 HD
ATOM     26  H   UNL     1      46.554   5.668  16.036  0.00  0.00    +0.000 HD
ENDBRANCH  16  23
ENDBRANCH  15  20
ENDBRANCH   1  15
TORSDOF 5
ENDMDL
MODEL 2
REMARK VINA RESULT:    -7.192      2.600      6.954
REMARK INTER + INTRA:          -9.815
REMARK INTER:                  -9.476
REMARK INTRA:                  -0.339
REMARK UNBOUND:                -0.522
REMARK  Name = 
REMARK  5 active torsions:
REMARK  status: ('A' for Active; 'I' for Inactive)
REMARK    1  A    between atoms: C_2  and  C_4
REMARK    2  A    between atoms: C_8  and  C_9
REMARK    3  A    between atoms: C_9  and  O_10
REMARK    4  A    between atoms: O_10  and  C_11
REMARK    5  A    between atoms: C_15  and  C_16
REMARK                            x       y       z     vdW  Elec       q    Type
REMARK                         _______ _______ _______ _____ _____    ______ ____
ROOT
ATOM      1  O   UNL     1      44.752   3.320  11.644  0.00  0.00    +0.000 OA
ENDROOT
BRANCH   1   2
ATOM      2  C   UNL     1      44.945   4.636  11.943  0.00  0.00    +0.000 A 
ATOM      3  C   UNL     1      43.934   5.526  11.626  0.00  0.00    +0.000 A 
ATOM      4  N   UNL     1      43.989   6.858  11.868  0.00  0.00    +0.000 NA
ATOM      5  C   UNL     1      45.122   7.323  12.444  0.00  0.00    +0.000 A 
ATOM      6  C   UNL     1      46.218   6.531  12.783  0.00  0.00    +0.000 A 
ATOM      7  C   UNL     1      46.102   5.165  12.503  0.00  0.00    +0.000 A 
BRANCH   6   8
ATOM      8  C   UNL     1      47.445   7.139  13.436  0.00  0.00    +0.000 C 
ATOM      9  C   UNL     1      47.348   8.653  13.689  0.00  0.00    +0.000 C 
ATOM     10  C   UNL     1      47.657   9.510  12.461  0.00  0.00    +0.000 C 
ATOM     11  N   UNL     1      48.903   9.139  11.795  0.00  0.00    +0.000 NA
ATOM     12  C   UNL     1      49.005   7.716  11.482  0.00  0.00    +0.000 C 
ATOM     13  C   UNL     1      48.751   6.816  12.692  0.00  0.00    +0.000 C 
ATOM     14  H   UNL     1      49.688   9.400  12.395  0.00  0.00    +0.000 HD
ENDBRANCH   6   8
ENDBRANCH   1   2
BRANCH   1  15
ATOM     15  C   UNL     1      44.036   3.055  10.429  0.00  0.00    +0.000 C 
BRANCH  15  20
ATOM     16  C   UNL     1      46.433   1.887   7.695  0.00  0.00    +0.000 A 
ATOM     17  C   UNL     1      46.812   3.106   7.121  0.00  0.00    +0.000 A 
ATOM     18  C   UNL     1      46.311   4.304   7.630  0.00  0.00    +0.000 A 
ATOM     19  C   UNL     1      45.416   4.288   8.699  0.00  0.00    +0.000 A 
ATOM     20  C   UNL     1      44.992   3.075   9.260  0.00  0.00    +0.000 A 
ATOM     21  C   UNL     1      45.526   1.876   8.763  0.00  0.00    +0.000 A 
BRANCH  16  23
ATOM     22  N   UNL     1      47.453   0.564   5.917  0.00  0.00    +0.000 N 
ATOM     23  C   UNL     1      46.938   0.585   7.185  0.00  0.00    +0.000 C 
ATOM     24  O   UNL     1      46.931  -0.427   7.875  0.00  0.00    +0.000 OA
ATOM     25  H   UNL     1      47.875  -0.307   5.619  0.00  0.00    +0.000 HD
ATOM     26  H   UNL     1      47.709   1.403   5.417  0.00  0.00    +0.000 HD
ENDBRANCH  16  23
ENDBRANCH  15  20
ENDBRANCH   1  15
TORSDOF 5
ENDMDL
MODEL 3
REMARK VINA RESULT:    -7.187      2.354      7.423
REMARK INTER + INTRA:          -9.809
REMARK INTER:                  -9.173
REMARK INTRA:                  -0.636
REMARK UNBOUND:                -0.522
REMARK  Name = 
REMARK  5 active torsions:
REMARK  status: ('A' for Active; 'I' for Inactive)
REMARK    1  A    between atoms: C_2  and  C_4
REMARK    2  A    between atoms: C_8  and  C_9
REMARK    3  A    between atoms: C_9  and  O_10
REMARK    4  A    between atoms: O_10  and  C_11
REMARK    5  A    between atoms: C_15  and  C_16
REMARK                            x       y       z     vdW  Elec       q    Type
REMARK                         _______ _______ _______ _____ _____    ______ ____
ROOT
ATOM      1  O   UNL     1      44.443   5.323  10.893  0.00  0.00    +0.000 OA
ENDROOT
BRANCH   1   2
ATOM      2  C   UNL     1      45.381   5.346  11.883  0.00  0.00    +0.000 A 
ATOM      3  C   UNL     1      45.207   4.493  12.958  0.00  0.00    +0.000 A 
ATOM      4  N   UNL     1      46.058   4.408  14.008  0.00  0.00    +0.000 NA
ATOM      5  C   UNL     1      47.133   5.231  13.985  0.00  0.00    +0.000 A 
ATOM      6  C   UNL     1      47.401   6.151  12.973  0.00  0.00    +0.000 A 
ATOM      7  C   UNL     1      46.481   6.195  11.920  0.00  0.00    +0.000 A 
BRANCH   6   8
ATOM      8  C   UNL     1      48.638   7.028  13.026  0.00  0.00    +0.000 C 
ATOM      9  C   UNL     1      49.065   7.442  14.445  0.00  0.00    +0.000 C 
ATOM     10  C   UNL     1      48.280   8.626  15.009  0.00  0.00    +0.000 C 
ATOM     11  N   UNL     1      48.214   9.765  14.097  0.00  0.00    +0.000 NA
ATOM     12  C   UNL     1      47.753   9.421  12.754  0.00  0.00    +0.000 C 
ATOM     13  C   UNL     1      48.541   8.271  12.126  0.00  0.00    +0.000 C 
ATOM     14  H   UNL     1      49.143  10.186  14.027  0.00  0.00    +0.000 HD
ENDBRANCH   6   8
ENDBRANCH   1   2
BRANCH   1  15
ATOM     15  C   UNL     1      44.949   5.402   9.554  0.00  0.00    +0.000 C 
BRANCH  15  20
ATOM     16  C   UNL     1      46.520   2.567   7.534  0.00  0.00    +0.000 A 
ATOM     17  C   UNL     1      45.876   1.450   8.078  0.00  0.00    +0.000 A 
ATOM     18  C   UNL     1      44.920   1.615   9.080  0.00  0.00    +0.000 A 
ATOM     19  C   UNL     1      44.619   2.890   9.556  0.00  0.00    +0.000 A 
ATOM     20  C   UNL     1      45.285   4.017   9.053  0.00  0.00    +0.000 A 
ATOM     21  C   UNL     1      46.222   3.846   8.022  0.00  0.00    +0.000 A 
BRANCH  16  23
ATOM     22  N   UNL     1      47.402   3.228   5.358  0.00  0.00    +0.000 N 
ATOM     23  C   UNL     1      47.549   2.441   6.467  0.00  0.00    +0.000 C 
ATOM     24  O   UNL     1      48.511   1.693   6.582  0.00  0.00    +0.000 OA
ATOM     25  H   UNL     1      48.158   3.198   4.684  0.00  0.00    +0.000 HD
ATOM     26  H   UNL     1      46.783   4.026   5.331  0.00  0.00    +0.000 HD
ENDBRANCH  16  23
ENDBRANCH  15  20
ENDBRANCH   1  15
TORSDOF 5
ENDMDL
MODEL 4
REMARK VINA RESULT:    -6.940      3.327      6.324
REMARK INTER + INTRA:          -9.490
REMARK INTER:                  -9.198
REMARK INTRA:                  -0.292
REMARK UNBOUND:                -0.522
REMARK  Name = 
REMARK  5 active torsions:
REMARK  status: ('A' for Active; 'I' for Inactive)
REMARK    1  A    between atoms: C_2  and  C_4
REMARK    2  A    between atoms: C_8  and  C_9
REMARK    3  A    between atoms: C_9  and  O_10
REMARK    4  A    between atoms: O_10  and  C_11
REMARK    5  A    between atoms: C_15  and  C_16
REMARK                            x       y       z     vdW  Elec       q    Type
REMARK                         _______ _______ _______ _____ _____    ______ ____
ROOT
ATOM      1  O   UNL     1      47.306   3.673  14.988  0.00  0.00    +0.000 OA
ENDROOT
BRANCH   1   2
ATOM      2  C   UNL     1      46.914   4.514  13.989  0.00  0.00    +0.000 A 
ATOM      3  C   UNL     1      47.637   5.679  13.804  0.00  0.00    +0.000 A 
ATOM      4  N   UNL     1      47.363   6.601  12.850  0.00  0.00    +0.000 NA
ATOM      5  C   UNL     1      46.301   6.349  12.050  0.00  0.00    +0.000 A 
ATOM      6  C   UNL     1      45.482   5.226  12.156  0.00  0.00    +0.000 A 
ATOM      7  C   UNL     1      45.813   4.315  13.164  0.00  0.00    +0.000 A 
BRANCH   6   8
ATOM      8  C   UNL     1      44.316   5.021  11.207  0.00  0.00    +0.000 C 
ATOM      9  C   UNL     1      43.149   4.211  11.798  0.00  0.00    +0.000 C 
ATOM     10  C   UNL     1      43.361   2.698  11.762  0.00  0.00    +0.000 C 
ATOM     11  N   UNL     1      43.770   2.201  10.450  0.00  0.00    +0.000 NA
ATOM     12  C   UNL     1      44.918   2.907   9.883  0.00  0.00    +0.000 C 
ATOM     13  C   UNL     1      44.733   4.424   9.853  0.00  0.00    +0.000 C 
ATOM     14  H   UNL     1      42.982   2.285   9.805  0.00  0.00    +0.000 HD
ENDBRANCH   6   8
ENDBRANCH   1   2
BRANCH   1  15
ATOM     15  C   UNL     1      47.178   4.188  16.321  0.00  0.00    +0.000 C 
BRANCH  15  20
ATOM     16  C   UNL     1      50.617   3.162  17.627  0.00  0.00    +0.000 A 
ATOM     17  C   UNL     1      51.046   4.347  18.235  0.00  0.00    +0.000 A 
ATOM     18  C   UNL     1      50.217   5.469  18.242  0.00  0.00    +0.000 A 
ATOM     19  C   UNL     1      48.968   5.418  17.626  0.00  0.00    +0.000 A 
ATOM     20  C   UNL     1      48.538   4.253  16.975  0.00  0.00    +0.000 A 
ATOM     21  C   UNL     1      49.365   3.118  17.001  0.00  0.00    +0.000 A 
BRANCH  16  23
ATOM     22  N   UNL     1      52.559   1.913  18.415  0.00  0.00    +0.000 N 
ATOM     23  C   UNL     1      51.467   1.942  17.591  0.00  0.00    +0.000 C 
ATOM     24  O   UNL     1      51.190   0.982  16.884  0.00  0.00    +0.000 OA
ATOM     25  H   UNL     1      53.073   1.041  18.446  0.00  0.00    +0.000 HD
ATOM     26  H   UNL     1      52.681   2.556  19.184  0.00  0.00    +0.000 HD
ENDBRANCH  16  23
ENDBRANCH  15  20
ENDBRANCH   1  15
TORSDOF 5
ENDMDL
MODEL 5
REMARK VINA RESULT:    -6.754      4.171      6.375
REMARK INTER + INTRA:          -9.250
REMARK INTER:                  -8.493
REMARK INTRA:                  -0.757
REMARK UNBOUND:                -0.522
REMARK  Name = 
REMARK  5 active torsions:
REMARK  status: ('A' for Active; 'I' for Inactive)
REMARK    1  A    between atoms: C_2  and  C_4
REMARK    2  A    between atoms: C_8  and  C_9
REMARK    3  A    between atoms: C_9  and  O_10
REMARK    4  A    between atoms: O_10  and  C_11
REMARK    5  A    between atoms: C_15  and  C_16
REMARK                            x       y       z     vdW  Elec       q    Type
REMARK                         _______ _______ _______ _____ _____    ______ ____
ROOT
ATOM      1  O   UNL     1      48.695   6.142  13.741  0.00  0.00    +0.000 OA
ENDROOT
BRANCH   1   2
ATOM      2  C   UNL     1      47.504   6.545  13.214  0.00  0.00    +0.000 A 
ATOM      3  C   UNL     1      47.450   7.788  12.609  0.00  0.00    +0.000 A 
ATOM      4  N   UNL     1      46.337   8.312  12.043  0.00  0.00    +0.000 NA
ATOM      5  C   UNL     1      45.215   7.557  12.100  0.00  0.00    +0.000 A 
ATOM      6  C   UNL     1      45.137   6.304  12.705  0.00  0.00    +0.000 A 
ATOM      7  C   UNL     1      46.319   5.820  13.277  0.00  0.00    +0.000 A 
BRANCH   6   8
ATOM      8  C   UNL     1      43.836   5.523  12.713  0.00  0.00    +0.000 C 
ATOM      9  C   UNL     1      43.986   4.039  13.088  0.00  0.00    +0.000 C 
ATOM     10  C   UNL     1      44.439   3.148  11.931  0.00  0.00    +0.000 C 
ATOM     11  N   UNL     1      43.652   3.334  10.715  0.00  0.00    +0.000 NA
ATOM     12  C   UNL     1      43.539   4.728  10.291  0.00  0.00    +0.000 C 
ATOM     13  C   UNL     1      43.042   5.653  11.402  0.00  0.00    +0.000 C 
ATOM     14  H   UNL     1      42.713   2.961  10.868  0.00  0.00    +0.000 HD
ENDBRANCH   6   8
ENDBRANCH   1   2
BRANCH   1  15
ATOM     15  C   UNL     1      49.298   7.044  14.679  0.00  0.00    +0.000 C 
BRANCH  15  20
ATOM     16  C   UNL     1      47.957   5.110  17.687  0.00  0.00    +0.000 A 
ATOM     17  C   UNL     1      47.883   6.119  18.653  0.00  0.00    +0.000 A 
ATOM     18  C   UNL     1      48.244   7.426  18.328  0.00  0.00    +0.000 A 
ATOM     19  C   UNL     1      48.700   7.726  17.045  0.00  0.00    +0.000 A 
ATOM     20  C   UNL     1      48.821   6.720  16.075  0.00  0.00    +0.000 A 
ATOM     21  C   UNL     1      48.425   5.413  16.401  0.00  0.00    +0.000 A 
BRANCH  16  23
ATOM     22  N   UNL     1      48.279   3.069  18.984  0.00  0.00    +0.000 N 
ATOM     23  C   UNL     1      47.587   3.701  17.988  0.00  0.00    +0.000 C 
ATOM     24  O   UNL     1      46.677   3.132  17.398  0.00  0.00    +0.000 OA
ATOM     25  H   UNL     1      47.954   2.144  19.238  0.00  0.00    +0.000 HD
ATOM     26  H   UNL     1      48.848   3.565  19.655  0.00  0.00    +0.000 HD
ENDBRANCH  16  23
ENDBRANCH  15  20
ENDBRANCH   1  15
TORSDOF 5
ENDMDL
MODEL 6
REMARK VINA RESULT:    -6.637      2.914      8.196
REMARK INTER + INTRA:          -9.099
REMARK INTER:                  -8.795
REMARK INTRA:                  -0.304
REMARK UNBOUND:                -0.522
REMARK  Name = 
REMARK  5 active torsions:
REMARK  status: ('A' for Active; 'I' for Inactive)
REMARK    1  A    between atoms: C_2  and  C_4
REMARK    2  A    between atoms: C_8  and  C_9
REMARK    3  A    between atoms: C_9  and  O_10
REMARK    4  A    between atoms: O_10  and  C_11
REMARK    5  A    between atoms: C_15  and  C_16
REMARK                            x       y       z     vdW  Elec       q    Type
REMARK                         _______ _______ _______ _____ _____    ______ ____
ROOT
ATOM      1  O   UNL     1      47.291   6.358  12.236  0.00  0.00    +0.000 OA
ENDROOT
BRANCH   1   2
ATOM      2  C   UNL     1      47.786   6.192  13.495  0.00  0.00    +0.000 A 
ATOM      3  C   UNL     1      48.863   6.972  13.875  0.00  0.00    +0.000 A 
ATOM      4  N   UNL     1      49.453   6.915  15.093  0.00  0.00    +0.000 NA
ATOM      5  C   UNL     1      48.946   6.018  15.971  0.00  0.00    +0.000 A 
ATOM      6  C   UNL     1      47.883   5.159  15.696  0.00  0.00    +0.000 A 
ATOM      7  C   UNL     1      47.321   5.263  14.419  0.00  0.00    +0.000 A 
BRANCH   6   8
ATOM      8  C   UNL     1      47.373   4.191  16.747  0.00  0.00    +0.000 C 
ATOM      9  C   UNL     1      47.425   4.729  18.187  0.00  0.00    +0.000 C 
ATOM     10  C   UNL     1      48.801   4.616  18.844  0.00  0.00    +0.000 C 
ATOM     11  N   UNL     1      49.390   3.284  18.729  0.00  0.00    +0.000 NA
ATOM     12  C   UNL     1      49.415   2.764  17.364  0.00  0.00    +0.000 C 
ATOM     13  C   UNL     1      48.048   2.811  16.680  0.00  0.00    +0.000 C 
ATOM     14  H   UNL     1      48.860   2.637  19.317  0.00  0.00    +0.000 HD
ENDBRANCH   6   8
ENDBRANCH   1   2
BRANCH   1  15
ATOM     15  C   UNL     1      45.912   6.743  12.155  0.00  0.00    +0.000 C 
BRANCH  15  20
ATOM     16  C   UNL     1      44.372   3.684  10.464  0.00  0.00    +0.000 A 
ATOM     17  C   UNL     1      43.430   3.285  11.419  0.00  0.00    +0.000 A 
ATOM     18  C   UNL     1      43.278   4.016  12.597  0.00  0.00    +0.000 A 
ATOM     19  C   UNL     1      44.077   5.133  12.835  0.00  0.00    +0.000 A 
ATOM     20  C   UNL     1      45.055   5.523  11.909  0.00  0.00    +0.000 A 
ATOM     21  C   UNL     1      45.180   4.802  10.711  0.00  0.00    +0.000 A 
BRANCH  16  23
ATOM     22  N   UNL     1      44.294   3.592   8.027  0.00  0.00    +0.000 N 
ATOM     23  C   UNL     1      44.573   2.935   9.195  0.00  0.00    +0.000 C 
ATOM     24  O   UNL     1      45.004   1.789   9.182  0.00  0.00    +0.000 OA
ATOM     25  H   UNL     1      44.523   3.101   7.172  0.00  0.00    +0.000 HD
ATOM     26  H   UNL     1      44.184   4.595   7.976  0.00  0.00    +0.000 HD
ENDBRANCH  16  23
ENDBRANCH  15  20
ENDBRANCH   1  15
TORSDOF 5
ENDMDL
MODEL 7
REMARK VINA RESULT:    -6.632      3.361      6.081
REMARK INTER + INTRA:          -9.092
REMARK INTER:                  -8.840
REMARK INTRA:                  -0.252
REMARK UNBOUND:                -0.522
REMARK  Name = 
REMARK  5 active torsions:
REMARK  status: ('A' for Active; 'I' for Inactive)
REMARK    1  A    between atoms: C_2  and  C_4
REMARK    2  A    between atoms: C_8  and  C_9
REMARK    3  A    between atoms: C_9  and  O_10
REMARK    4  A    between atoms: O_10  and  C_11
REMARK    5  A    between atoms: C_15  and  C_16
REMARK                            x       y       z     vdW  Elec       q    Type
REMARK                         _______ _______ _______ _____ _____    ______ ____
ROOT
ATOM      1  O   UNL     1      47.655   4.961  14.118  0.00  0.00    +0.000 OA
ENDROOT
BRANCH   1   2
ATOM      2  C   UNL     1      46.867   5.618  13.220  0.00  0.00    +0.000 A 
ATOM      3  C   UNL     1      47.102   6.966  13.017  0.00  0.00    +0.000 A 
ATOM      4  N   UNL     1      46.401   7.740  12.154  0.00  0.00    +0.000 NA
ATOM      5  C   UNL     1      45.402   7.134  11.470  0.00  0.00    +0.000 A 
ATOM      6  C   UNL     1      45.053   5.791  11.608  0.00  0.00    +0.000 A 
ATOM      7  C   UNL     1      45.811   5.047  12.519  0.00  0.00    +0.000 A 
BRANCH   6   8
ATOM      8  C   UNL     1      43.922   5.193  10.791  0.00  0.00    +0.000 C 
ATOM      9  C   UNL     1      42.905   4.381  11.611  0.00  0.00    +0.000 C 
ATOM     10  C   UNL     1      43.353   2.952  11.917  0.00  0.00    +0.000 C 
ATOM     11  N   UNL     1      43.820   2.226  10.738  0.00  0.00    +0.000 NA
ATOM     12  C   UNL     1      44.835   2.941   9.968  0.00  0.00    +0.000 C 
ATOM     13  C   UNL     1      44.412   4.362   9.594  0.00  0.00    +0.000 C 
ATOM     14  H   UNL     1      43.021   2.035  10.131  0.00  0.00    +0.000 HD
ENDBRANCH   6   8
ENDBRANCH   1   2
BRANCH   1  15
ATOM     15  C   UNL     1      47.000   3.954  14.901  0.00  0.00    +0.000 C 
BRANCH  15  20
ATOM     16  C   UNL     1      47.908   4.917  18.484  0.00  0.00    +0.000 A 
ATOM     17  C   UNL     1      48.765   3.870  18.843  0.00  0.00    +0.000 A 
ATOM     18  C   UNL     1      49.066   2.867  17.922  0.00  0.00    +0.000 A 
ATOM     19  C   UNL     1      48.498   2.894  16.649  0.00  0.00    +0.000 A 
ATOM     20  C   UNL     1      47.604   3.911  16.285  0.00  0.00    +0.000 A 
ATOM     21  C   UNL     1      47.332   4.935  17.207  0.00  0.00    +0.000 A 
BRANCH  16  23
ATOM     22  N   UNL     1      46.978   5.643  20.620  0.00  0.00    +0.000 N 
ATOM     23  C   UNL     1      47.554   6.006  19.432  0.00  0.00    +0.000 C 
ATOM     24  O   UNL     1      47.796   7.181  19.187  0.00  0.00    +0.000 OA
ATOM     25  H   UNL     1      46.829   6.387  21.290  0.00  0.00    +0.000 HD
ATOM     26  H   UNL     1      46.994   4.695  20.967  0.00  0.00    +0.000 HD
ENDBRANCH  16  23
ENDBRANCH  15  20
ENDBRANCH   1  15
TORSDOF 5
ENDMDL
MODEL 8
REMARK VINA RESULT:    -6.370      2.937      8.689
REMARK INTER + INTRA:          -8.753
REMARK INTER:                  -8.112
REMARK INTRA:                  -0.641
REMARK UNBOUND:                -0.522
REMARK  Name = 
REMARK  5 active torsions:
REMARK  status: ('A' for Active; 'I' for Inactive)
REMARK    1  A    between atoms: C_2  and  C_4
REMARK    2  A    between atoms: C_8  and  C_9
REMARK    3  A    between atoms: C_9  and  O_10
REMARK    4  A    between atoms: O_10  and  C_11
REMARK    5  A    between atoms: C_15  and  C_16
REMARK                            x       y       z     vdW  Elec       q    Type
REMARK                         _______ _______ _______ _____ _____    ______ ____
ROOT
ATOM      1  O   UNL     1      47.599   7.187  12.612  0.00  0.00    +0.000 OA
ENDROOT
BRANCH   1   2
ATOM      2  C   UNL     1      48.053   7.465  13.867  0.00  0.00    +0.000 A 
ATOM      3  C   UNL     1      48.235   8.794  14.208  0.00  0.00    +0.000 A 
ATOM      4  N   UNL     1      48.677   9.215  15.417  0.00  0.00    +0.000 NA
ATOM      5  C   UNL     1      48.966   8.255  16.326  0.00  0.00    +0.000 A 
ATOM      6  C   UNL     1      48.850   6.886  16.091  0.00  0.00    +0.000 A 
ATOM      7  C   UNL     1      48.394   6.514  14.821  0.00  0.00    +0.000 A 
BRANCH   6   8
ATOM      8  C   UNL     1      49.188   5.878  17.175  0.00  0.00    +0.000 C 
ATOM      9  C   UNL     1      48.650   4.461  16.916  0.00  0.00    +0.000 C 
ATOM     10  C   UNL     1      47.180   4.275  17.292  0.00  0.00    +0.000 C 
ATOM     11  N   UNL     1      46.861   4.750  18.636  0.00  0.00    +0.000 NA
ATOM     12  C   UNL     1      47.302   6.119  18.898  0.00  0.00    +0.000 C 
ATOM     13  C   UNL     1      48.782   6.342  18.583  0.00  0.00    +0.000 C 
ATOM     14  H   UNL     1      47.299   4.128  19.318  0.00  0.00    +0.000 HD
ENDBRANCH   6   8
ENDBRANCH   1   2
BRANCH   1  15
ATOM     15  C   UNL     1      46.246   7.575  12.339  0.00  0.00    +0.000 C 
BRANCH  15  20
ATOM     16  C   UNL     1      44.841   4.739  10.202  0.00  0.00    +0.000 A 
ATOM     17  C   UNL     1      43.922   4.158  11.083  0.00  0.00    +0.000 A 
ATOM     18  C   UNL     1      43.741   4.695  12.358  0.00  0.00    +0.000 A 
ATOM     19  C   UNL     1      44.489   5.799  12.763  0.00  0.00    +0.000 A 
ATOM     20  C   UNL     1      45.445   6.369  11.910  0.00  0.00    +0.000 A 
ATOM     21  C   UNL     1      45.598   5.842  10.617  0.00  0.00    +0.000 A 
BRANCH  16  23
ATOM     22  N   UNL     1      44.317   3.126   8.448  0.00  0.00    +0.000 N 
ATOM     23  C   UNL     1      45.072   4.199   8.835  0.00  0.00    +0.000 C 
ATOM     24  O   UNL     1      45.878   4.708   8.067  0.00  0.00    +0.000 OA
ATOM     25  H   UNL     1      44.420   2.830   7.485  0.00  0.00    +0.000 HD
ATOM     26  H   UNL     1      43.481   2.840   8.939  0.00  0.00    +0.000 HD
ENDBRANCH  16  23
ENDBRANCH  15  20
ENDBRANCH   1  15
TORSDOF 5
ENDMDL
MODEL 9
REMARK VINA RESULT:    -6.324      4.788      9.706
REMARK INTER + INTRA:          -8.695
REMARK INTER:                  -8.130
REMARK INTRA:                  -0.565
REMARK UNBOUND:                -0.522
REMARK  Name = 
REMARK  5 active torsions:
REMARK  status: ('A' for Active; 'I' for Inactive)
REMARK    1  A    between atoms: C_2  and  C_4
REMARK    2  A    between atoms: C_8  and  C_9
REMARK    3  A    between atoms: C_9  and  O_10
REMARK    4  A    between atoms: O_10  and  C_11
REMARK    5  A    between atoms: C_15  and  C_16
REMARK                            x       y       z     vdW  Elec       q    Type
REMARK                         _______ _______ _______ _____ _____    ______ ____
ROOT
ATOM      1  O   UNL     1      46.622   3.945  15.442  0.00  0.00    +0.000 OA
ENDROOT
BRANCH   1   2
ATOM      2  C   UNL     1      47.668   3.892  16.314  0.00  0.00    +0.000 A 
ATOM      3  C   UNL     1      48.463   2.759  16.303  0.00  0.00    +0.000 A 
ATOM      4  N   UNL     1      49.534   2.573  17.110  0.00  0.00    +0.000 NA
ATOM      5  C   UNL     1      49.815   3.567  17.984  0.00  0.00    +0.000 A 
ATOM      6  C   UNL     1      49.074   4.741  18.109  0.00  0.00    +0.000 A 
ATOM      7  C   UNL     1      47.976   4.871  17.251  0.00  0.00    +0.000 A 
BRANCH   6   8
ATOM      8  C   UNL     1      49.469   5.808  19.113  0.00  0.00    +0.000 C 
ATOM      9  C   UNL     1      50.126   5.265  20.394  0.00  0.00    +0.000 C 
ATOM     10  C   UNL     1      49.130   4.749  21.432  0.00  0.00    +0.000 C 
ATOM     11  N   UNL     1      48.052   5.692  21.720  0.00  0.00    +0.000 NA
ATOM     12  C   UNL     1      47.362   6.183  20.529  0.00  0.00    +0.000 C 
ATOM     13  C   UNL     1      48.314   6.755  19.479  0.00  0.00    +0.000 C 
ATOM     14  H   UNL     1      48.439   6.490  22.228  0.00  0.00    +0.000 HD
ENDBRANCH   6   8
ENDBRANCH   1   2
BRANCH   1  15
ATOM     15  C   UNL     1      46.967   3.889  14.051  0.00  0.00    +0.000 C 
BRANCH  15  20
ATOM     16  C   UNL     1      44.540   5.905  11.898  0.00  0.00    +0.000 A 
ATOM     17  C   UNL     1      45.144   7.167  11.909  0.00  0.00    +0.000 A 
ATOM     18  C   UNL     1      46.344   7.361  12.592  0.00  0.00    +0.000 A 
ATOM     19  C   UNL     1      46.934   6.303  13.283  0.00  0.00    +0.000 A 
ATOM     20  C   UNL     1      46.322   5.042  13.319  0.00  0.00    +0.000 A 
ATOM     21  C   UNL     1      45.131   4.846  12.601  0.00  0.00    +0.000 A 
BRANCH  16  23
ATOM     22  N   UNL     1      42.121   6.176  11.735  0.00  0.00    +0.000 N 
ATOM     23  C   UNL     1      43.259   5.650  11.187  0.00  0.00    +0.000 C 
ATOM     24  O   UNL     1      43.217   5.025  10.135  0.00  0.00    +0.000 OA
ATOM     25  H   UNL     1      41.273   6.073  11.192  0.00  0.00    +0.000 HD
ATOM     26  H   UNL     1      42.138   6.896  12.443  0.00  0.00    +0.000 HD
ENDBRANCH  16  23
ENDBRANCH  15  20
ENDBRANCH   1  15
TORSDOF 5
ENDMDL
