MODEL 1
REMARK VINA RESULT:    -7.421      0.000      0.000
REMARK INTER + INTRA:         -11.009
REMARK INTER:                 -10.024
REMARK INTRA:                  -0.985
REMARK UNBOUND:                -0.985
REMARK  Name = 
REMARK  6 active torsions:
REMARK  status: ('A' for Active; 'I' for Inactive)
REMARK    1  A    between atoms: C_2  and  C_3
REMARK    2  A    between atoms: C_8  and  C_9
REMARK    3  A    between atoms: C_9  and  C_10
REMARK    4  A    between atoms: C_10  and  N_11
REMARK    5  A    between atoms: N_11  and  C_12
REMARK    6  A    between atoms: C_16  and  C_17
REMARK                            x       y       z     vdW  Elec       q    Type
REMARK                         _______ _______ _______ _____ _____    ______ ____
ROOT
ATOM      1  N   UNL     1      43.971   2.700  10.858  0.00  0.00    +0.000 N 
ATOM      2  H   UNL     1      43.382   1.886  10.681  0.00  0.00    +0.000 HD
ENDROOT
BRANCH   1   3
ATOM      3  C   UNL     1      44.775   2.977   9.733  0.00  0.00    +0.000 A 
ATOM      4  C   UNL     1      44.994   4.281   9.273  0.00  0.00    +0.000 A 
ATOM      5  C   UNL     1      45.812   4.538   8.172  0.00  0.00    +0.000 A 
ATOM      6  C   UNL     1      46.458   3.491   7.521  0.00  0.00    +0.000 A 
ATOM      7  C   UNL     1      46.306   2.182   7.986  0.00  0.00    +0.000 A 
ATOM      8  C   UNL     1      45.488   1.941   9.108  0.00  0.00    +0.000 A 
BRANCH   7   9
ATOM      9  C   UNL     1      46.969   1.017   7.329  0.00  0.00    +0.000 C 
ATOM     10  N   UNL     1      47.770   1.244   6.242  0.00  0.00    +0.000 N 
ATOM     11  O   UNL     1      46.801  -0.130   7.731  0.00  0.00    +0.000 OA
ATOM     12  H   UNL     1      47.921   2.137   5.804  0.00  0.00    +0.000 HD
ATOM     13  H   UNL     1      48.171   0.429   5.795  0.00  0.00    +0.000 HD
ENDBRANCH   7   9
ENDBRANCH   1   3
BRANCH   1  14
ATOM     14  C   UNL     1      43.204   3.832  11.398  0.00  0.00    +0.000 C 
BRANCH  14  15
ATOM     15  C   UNL     1      43.682   4.210  12.804  0.00  0.00    +0.000 C 
BRANCH  15  21
ATOM     16  C   UNL     1      45.528   7.541  12.429  0.00  0.00    +0.000 A 
ATOM     17  C   UNL     1      46.855   7.165  12.642  0.00  0.00    +0.000 A 
ATOM     18  C   UNL     1      47.164   5.836  12.939  0.00  0.00    +0.000 A 
ATOM     19  C   UNL     1      46.151   4.872  13.009  0.00  0.00    +0.000 A 
ATOM     20 CL   UNL     1      46.617   3.255  13.394  0.00  0.00    +0.000 Cl
ATOM     21  C   UNL     1      44.811   5.223  12.773  0.00  0.00    +0.000 A 
ATOM     22  C   UNL     1      44.513   6.575  12.504  0.00  0.00    +0.000 A 
BRANCH  16  24
ATOM     23  N   UNL     1      44.950  10.012  11.880  0.00  0.00    +0.000 NA
ATOM     24  C   UNL     1      45.207   8.908  12.126  0.00  0.00    +0.000 C 
ENDBRANCH  16  24
ENDBRANCH  15  21
ENDBRANCH  14  15
ENDBRANCH   1  14
TORSDOF 6
ENDMDL
MODEL 2
REMARK VINA RESULT:    -7.195      1.860      2.274
REMARK INTER + INTRA:         -10.703
REMARK INTER:                  -9.775
REMARK INTRA:                  -0.928
REMARK UNBOUND:                -0.985
REMARK  Name = 
REMARK  6 active torsions:
REMARK  status: ('A' for Active; 'I' for Inactive)
REMARK    1  A    between atoms: C_2  and  C_3
REMARK    2  A    between atoms: C_8  and  C_9
REMARK    3  A    between atoms: C_9  and  C_10
REMARK    4  A    between atoms: C_10  and  N_11
REMARK    5  A    between atoms: N_11  and  C_12
REMARK    6  A    between atoms: C_16  and  C_17
REMARK                            x       y       z     vdW  Elec       q    Type
REMARK                         _______ _______ _______ _____ _____    ______ ____
ROOT
ATOM      1  N   UNL     1      43.919   2.766  10.642  0.00  0.00    +0.000 N 
ATOM      2  H   UNL     1      43.113   3.388  10.575  0.00  0.00    +0.000 HD
ENDROOT
BRANCH   1   3
ATOM      3  C   UNL     1      44.790   2.974   9.553  0.00  0.00    +0.000 A 
ATOM      4  C   UNL     1      45.111   4.255   9.085  0.00  0.00    +0.000 A 
ATOM      5  C   UNL     1      45.995   4.442   8.021  0.00  0.00    +0.000 A 
ATOM      6  C   UNL     1      46.605   3.347   7.418  0.00  0.00    +0.000 A 
ATOM      7  C   UNL     1      46.350   2.057   7.893  0.00  0.00    +0.000 A 
ATOM      8  C   UNL     1      45.467   1.886   8.978  0.00  0.00    +0.000 A 
BRANCH   7   9
ATOM      9  C   UNL     1      46.971   0.843   7.286  0.00  0.00    +0.000 C 
ATOM     10  N   UNL     1      47.662   0.976   6.112  0.00  0.00    +0.000 N 
ATOM     11  O   UNL     1      46.862  -0.263   7.805  0.00  0.00    +0.000 OA
ATOM     12  H   UNL     1      47.755   1.826   5.581  0.00  0.00    +0.000 HD
ATOM     13  H   UNL     1      48.035   0.128   5.705  0.00  0.00    +0.000 HD
ENDBRANCH   7   9
ENDBRANCH   1   3
BRANCH   1  14
ATOM     14  C   UNL     1      44.535   2.800  11.977  0.00  0.00    +0.000 C 
BRANCH  14  15
ATOM     15  C   UNL     1      43.963   3.940  12.826  0.00  0.00    +0.000 C 
BRANCH  15  21
ATOM     16  C   UNL     1      46.810   6.470  13.192  0.00  0.00    +0.000 A 
ATOM     17  C   UNL     1      46.306   7.578  12.509  0.00  0.00    +0.000 A 
ATOM     18  C   UNL     1      45.053   7.509  11.896  0.00  0.00    +0.000 A 
ATOM     19  C   UNL     1      44.290   6.338  11.977  0.00  0.00    +0.000 A 
ATOM     20 CL   UNL     1      42.758   6.331  11.181  0.00  0.00    +0.000 Cl
ATOM     21  C   UNL     1      44.765   5.220  12.682  0.00  0.00    +0.000 A 
ATOM     22  C   UNL     1      46.046   5.297  13.269  0.00  0.00    +0.000 A 
BRANCH  16  24
ATOM     23  N   UNL     1      49.141   6.593  14.330  0.00  0.00    +0.000 NA
ATOM     24  C   UNL     1      48.100   6.539  13.821  0.00  0.00    +0.000 C 
ENDBRANCH  16  24
ENDBRANCH  15  21
ENDBRANCH  14  15
ENDBRANCH   1  14
TORSDOF 6
ENDMDL
MODEL 3
REMARK VINA RESULT:    -7.066      2.291      3.266
REMARK INTER + INTRA:         -10.529
REMARK INTER:                  -9.768
REMARK INTRA:                  -0.761
REMARK UNBOUND:                -0.985
REMARK  Name = 
REMARK  6 active torsions:
REMARK  status: ('A' for Active; 'I' for Inactive)
REMARK    1  A    between atoms: C_2  and  C_3
REMARK    2  A    between atoms: C_8  and  C_9
REMARK    3  A    between atoms: C_9  and  C_10
REMARK    4  A    between atoms: C_10  and  N_11
REMARK    5  A    between atoms: N_11  and  C_12
REMARK    6  A    between atoms: C_16  and  C_17
REMARK                            x       y       z     vdW  Elec       q    Type
REMARK                         _______ _______ _______ _____ _____    ______ ____
ROOT
ATOM      1  N   UNL     1      43.967   4.956   9.740  0.00  0.00    +0.000 N 
ATOM      2  H   UNL     1      44.610   5.736   9.877  0.00  0.00    +0.000 HD
ENDROOT
BRANCH   1   3
ATOM      3  C   UNL     1      44.649   3.849   9.196  0.00  0.00    +0.000 A 
ATOM      4  C   UNL     1      44.408   2.537   9.622  0.00  0.00    +0.000 A 
ATOM      5  C   UNL     1      45.076   1.451   9.054  0.00  0.00    +0.000 A 
ATOM      6  C   UNL     1      45.983   1.652   8.019  0.00  0.00    +0.000 A 
ATOM      7  C   UNL     1      46.208   2.942   7.530  0.00  0.00    +0.000 A 
ATOM      8  C   UNL     1      45.515   4.026   8.105  0.00  0.00    +0.000 A 
BRANCH   7   9
ATOM      9  C   UNL     1      47.172   3.222   6.424  0.00  0.00    +0.000 C 
ATOM     10  N   UNL     1      48.443   2.723   6.518  0.00  0.00    +0.000 N 
ATOM     11  O   UNL     1      46.853   3.896   5.450  0.00  0.00    +0.000 OA
ATOM     12  H   UNL     1      48.814   2.213   7.302  0.00  0.00    +0.000 HD
ATOM     13  H   UNL     1      49.083   2.966   5.773  0.00  0.00    +0.000 HD
ENDBRANCH   7   9
ENDBRANCH   1   3
BRANCH   1  14
ATOM     14  C   UNL     1      43.157   4.689  10.939  0.00  0.00    +0.000 C 
BRANCH  14  15
ATOM     15  C   UNL     1      43.263   5.837  11.950  0.00  0.00    +0.000 C 
BRANCH  15  21
ATOM     16  C   UNL     1      46.581   5.051  13.686  0.00  0.00    +0.000 A 
ATOM     17  C   UNL     1      47.279   6.250  13.538  0.00  0.00    +0.000 A 
ATOM     18  C   UNL     1      46.697   7.316  12.850  0.00  0.00    +0.000 A 
ATOM     19  C   UNL     1      45.407   7.195  12.318  0.00  0.00    +0.000 A 
ATOM     20 CL   UNL     1      44.765   8.554  11.470  0.00  0.00    +0.000 Cl
ATOM     21  C   UNL     1      44.675   6.006  12.478  0.00  0.00    +0.000 A 
ATOM     22  C   UNL     1      45.291   4.929  13.150  0.00  0.00    +0.000 A 
BRANCH  16  24
ATOM     23  N   UNL     1      47.664   3.064  14.960  0.00  0.00    +0.000 NA
ATOM     24  C   UNL     1      47.181   3.952  14.392  0.00  0.00    +0.000 C 
ENDBRANCH  16  24
ENDBRANCH  15  21
ENDBRANCH  14  15
ENDBRANCH   1  14
TORSDOF 6
ENDMDL
MODEL 4
REMARK VINA RESULT:    -6.338      1.490      1.882
REMARK INTER + INTRA:          -9.546
REMARK INTER:                  -8.970
REMARK INTRA:                  -0.577
REMARK UNBOUND:                -0.985
REMARK  Name = 
REMARK  6 active torsions:
REMARK  status: ('A' for Active; 'I' for Inactive)
REMARK    1  A    between atoms: C_2  and  C_3
REMARK    2  A    between atoms: C_8  and  C_9
REMARK    3  A    between atoms: C_9  and  C_10
REMARK    4  A    between atoms: C_10  and  N_11
REMARK    5  A    between atoms: N_11  and  C_12
REMARK    6  A    between atoms: C_16  and  C_17
REMARK                            x       y       z     vdW  Elec       q    Type
REMARK                         _______ _______ _______ _____ _____    ______ ____
ROOT
ATOM      1  N   UNL     1      44.791   5.311   9.849  0.00  0.00    +0.000 N 
ATOM      2  H   UNL     1      45.580   5.697  10.366  0.00  0.00    +0.000 HD
ENDROOT
BRANCH   1   3
ATOM      3  C   UNL     1      45.137   4.067   9.283  0.00  0.00    +0.000 A 
ATOM      4  C   UNL     1      44.619   2.856   9.761  0.00  0.00    +0.000 A 
ATOM      5  C   UNL     1      44.956   1.637   9.172  0.00  0.00    +0.000 A 
ATOM      6  C   UNL     1      45.799   1.603   8.066  0.00  0.00    +0.000 A 
ATOM      7  C   UNL     1      46.292   2.795   7.529  0.00  0.00    +0.000 A 
ATOM      8  C   UNL     1      45.932   4.020   8.125  0.00  0.00    +0.000 A 
BRANCH   7   9
ATOM      9  C   UNL     1      47.204   2.823   6.346  0.00  0.00    +0.000 C 
ATOM     10  N   UNL     1      48.548   2.660   6.549  0.00  0.00    +0.000 N 
ATOM     11  O   UNL     1      46.777   3.004   5.210  0.00  0.00    +0.000 OA
ATOM     12  H   UNL     1      48.997   2.566   7.444  0.00  0.00    +0.000 HD
ATOM     13  H   UNL     1      49.142   2.726   5.732  0.00  0.00    +0.000 HD
ENDBRANCH   7   9
ENDBRANCH   1   3
BRANCH   1  14
ATOM     14  C   UNL     1      43.547   5.339  10.634  0.00  0.00    +0.000 C 
BRANCH  14  15
ATOM     15  C   UNL     1      43.835   5.528  12.127  0.00  0.00    +0.000 C 
BRANCH  15  21
ATOM     16  C   UNL     1      46.581   8.181  12.386  0.00  0.00    +0.000 A 
ATOM     17  C   UNL     1      47.690   7.418  12.757  0.00  0.00    +0.000 A 
ATOM     18  C   UNL     1      47.555   6.043  12.957  0.00  0.00    +0.000 A 
ATOM     19  C   UNL     1      46.315   5.419  12.771  0.00  0.00    +0.000 A 
ATOM     20 CL   UNL     1      46.231   3.718  13.052  0.00  0.00    +0.000 Cl
ATOM     21  C   UNL     1      45.192   6.162  12.373  0.00  0.00    +0.000 A 
ATOM     22  C   UNL     1      45.339   7.556  12.205  0.00  0.00    +0.000 A 
BRANCH  16  24
ATOM     23  N   UNL     1      46.825  10.739  12.019  0.00  0.00    +0.000 NA
ATOM     24  C   UNL     1      46.717   9.597  12.183  0.00  0.00    +0.000 C 
ENDBRANCH  16  24
ENDBRANCH  15  21
ENDBRANCH  14  15
ENDBRANCH   1  14
TORSDOF 6
ENDMDL
MODEL 5
REMARK VINA RESULT:    -6.210      2.213      2.970
REMARK INTER + INTRA:          -9.374
REMARK INTER:                  -8.704
REMARK INTRA:                  -0.670
REMARK UNBOUND:                -0.985
REMARK  Name = 
REMARK  6 active torsions:
REMARK  status: ('A' for Active; 'I' for Inactive)
REMARK    1  A    between atoms: C_2  and  C_3
REMARK    2  A    between atoms: C_8  and  C_9
REMARK    3  A    between atoms: C_9  and  C_10
REMARK    4  A    between atoms: C_10  and  N_11
REMARK    5  A    between atoms: N_11  and  C_12
REMARK    6  A    between atoms: C_16  and  C_17
REMARK                            x       y       z     vdW  Elec       q    Type
REMARK                         _______ _______ _______ _____ _____    ______ ____
ROOT
ATOM      1  N   UNL     1      44.791   5.328   9.536  0.00  0.00    +0.000 N 
ATOM      2  H   UNL     1      44.351   5.848   8.776  0.00  0.00    +0.000 HD
ENDROOT
BRANCH   1   3
ATOM      3  C   UNL     1      45.137   4.031   9.105  0.00  0.00    +0.000 A 
ATOM      4  C   UNL     1      44.502   2.884   9.598  0.00  0.00    +0.000 A 
ATOM      5  C   UNL     1      44.843   1.610   9.142  0.00  0.00    +0.000 A 
ATOM      6  C   UNL     1      45.810   1.456   8.154  0.00  0.00    +0.000 A 
ATOM      7  C   UNL     1      46.426   2.581   7.600  0.00  0.00    +0.000 A 
ATOM      8  C   UNL     1      46.061   3.862   8.061  0.00  0.00    +0.000 A 
BRANCH   7   9
ATOM      9  C   UNL     1      47.473   2.481   6.540  0.00  0.00    +0.000 C 
ATOM     10  N   UNL     1      47.299   3.181   5.377  0.00  0.00    +0.000 N 
ATOM     11  O   UNL     1      48.467   1.778   6.684  0.00  0.00    +0.000 OA
ATOM     12  H   UNL     1      46.491   3.734   5.142  0.00  0.00    +0.000 HD
ATOM     13  H   UNL     1      48.005   3.059   4.662  0.00  0.00    +0.000 HD
ENDBRANCH   7   9
ENDBRANCH   1   3
BRANCH   1  14
ATOM     14  C   UNL     1      45.861   6.099  10.187  0.00  0.00    +0.000 C 
BRANCH  14  15
ATOM     15  C   UNL     1      45.382   6.709  11.509  0.00  0.00    +0.000 C 
BRANCH  15  21
ATOM     16  C   UNL     1      48.073   6.374  14.209  0.00  0.00    +0.000 A 
ATOM     17  C   UNL     1      47.677   5.212  14.873  0.00  0.00    +0.000 A 
ATOM     18  C   UNL     1      46.519   4.541  14.475  0.00  0.00    +0.000 A 
ATOM     19  C   UNL     1      45.759   5.018  13.400  0.00  0.00    +0.000 A 
ATOM     20 CL   UNL     1      44.335   4.138  12.979  0.00  0.00    +0.000 Cl
ATOM     21  C   UNL     1      46.153   6.171  12.700  0.00  0.00    +0.000 A 
ATOM     22  C   UNL     1      47.308   6.854  13.136  0.00  0.00    +0.000 A 
BRANCH  16  24
ATOM     23  N   UNL     1      50.222   7.629  14.951  0.00  0.00    +0.000 NA
ATOM     24  C   UNL     1      49.262   7.067  14.620  0.00  0.00    +0.000 C 
ENDBRANCH  16  24
ENDBRANCH  15  21
ENDBRANCH  14  15
ENDBRANCH   1  14
TORSDOF 6
ENDMDL
MODEL 6
REMARK VINA RESULT:    -6.059      2.637      4.283
REMARK INTER + INTRA:          -9.170
REMARK INTER:                  -8.544
REMARK INTRA:                  -0.626
REMARK UNBOUND:                -0.985
REMARK  Name = 
REMARK  6 active torsions:
REMARK  status: ('A' for Active; 'I' for Inactive)
REMARK    1  A    between atoms: C_2  and  C_3
REMARK    2  A    between atoms: C_8  and  C_9
REMARK    3  A    between atoms: C_9  and  C_10
REMARK    4  A    between atoms: C_10  and  N_11
REMARK    5  A    between atoms: N_11  and  C_12
REMARK    6  A    between atoms: C_16  and  C_17
REMARK                            x       y       z     vdW  Elec       q    Type
REMARK                         _______ _______ _______ _____ _____    ______ ____
ROOT
ATOM      1  N   UNL     1      43.675   7.015  11.393  0.00  0.00    +0.000 N 
ATOM      2  H   UNL     1      43.256   7.333  10.519  0.00  0.00    +0.000 HD
ENDROOT
BRANCH   1   3
ATOM      3  C   UNL     1      43.714   5.607  11.434  0.00  0.00    +0.000 A 
ATOM      4  C   UNL     1      43.316   4.879  12.563  0.00  0.00    +0.000 A 
ATOM      5  C   UNL     1      43.340   3.484  12.577  0.00  0.00    +0.000 A 
ATOM      6  C   UNL     1      43.735   2.780  11.444  0.00  0.00    +0.000 A 
ATOM      7  C   UNL     1      44.088   3.471  10.281  0.00  0.00    +0.000 A 
ATOM      8  C   UNL     1      44.045   4.880  10.279  0.00  0.00    +0.000 A 
BRANCH   7   9
ATOM      9  C   UNL     1      44.524   2.773   9.036  0.00  0.00    +0.000 C 
ATOM     10  N   UNL     1      44.438   3.441   7.844  0.00  0.00    +0.000 N 
ATOM     11  O   UNL     1      44.939   1.619   9.058  0.00  0.00    +0.000 OA
ATOM     12  H   UNL     1      44.056   4.363   7.717  0.00  0.00    +0.000 HD
ATOM     13  H   UNL     1      44.702   2.925   7.014  0.00  0.00    +0.000 HD
ENDBRANCH   7   9
ENDBRANCH   1   3
BRANCH   1  14
ATOM     14  C   UNL     1      44.942   7.705  11.681  0.00  0.00    +0.000 C 
BRANCH  14  15
ATOM     15  C   UNL     1      46.144   6.782  11.449  0.00  0.00    +0.000 C 
BRANCH  15  21
ATOM     16  C   UNL     1      47.526   5.435  14.753  0.00  0.00    +0.000 A 
ATOM     17  C   UNL     1      48.538   6.351  15.042  0.00  0.00    +0.000 A 
ATOM     18  C   UNL     1      48.805   7.397  14.156  0.00  0.00    +0.000 A 
ATOM     19  C   UNL     1      48.052   7.542  12.985  0.00  0.00    +0.000 A 
ATOM     20 CL   UNL     1      48.455   8.854  11.938  0.00  0.00    +0.000 Cl
ATOM     21  C   UNL     1      47.010   6.647  12.688  0.00  0.00    +0.000 A 
ATOM     22  C   UNL     1      46.774   5.579  13.578  0.00  0.00    +0.000 A 
BRANCH  16  24
ATOM     23  N   UNL     1      47.031   3.484  16.394  0.00  0.00    +0.000 NA
ATOM     24  C   UNL     1      47.251   4.356  15.662  0.00  0.00    +0.000 C 
ENDBRANCH  16  24
ENDBRANCH  15  21
ENDBRANCH  14  15
ENDBRANCH   1  14
TORSDOF 6
ENDMDL
MODEL 7
REMARK VINA RESULT:    -5.973      4.972      6.577
REMARK INTER + INTRA:          -9.053
REMARK INTER:                  -8.586
REMARK INTRA:                  -0.467
REMARK UNBOUND:                -0.985
REMARK  Name = 
REMARK  6 active torsions:
REMARK  status: ('A' for Active; 'I' for Inactive)
REMARK    1  A    between atoms: C_2  and  C_3
REMARK    2  A    between atoms: C_8  and  C_9
REMARK    3  A    between atoms: C_9  and  C_10
REMARK    4  A    between atoms: C_10  and  N_11
REMARK    5  A    between atoms: N_11  and  C_12
REMARK    6  A    between atoms: C_16  and  C_17
REMARK                            x       y       z     vdW  Elec       q    Type
REMARK                         _______ _______ _______ _____ _____    ______ ____
ROOT
ATOM      1  N   UNL     1      46.772   5.144  14.668  0.00  0.00    +0.000 N 
ATOM      2  H   UNL     1      47.545   5.796  14.802  0.00  0.00    +0.000 HD
ENDROOT
BRANCH   1   3
ATOM      3  C   UNL     1      46.284   5.226  13.348  0.00  0.00    +0.000 A 
ATOM      4  C   UNL     1      46.628   6.276  12.486  0.00  0.00    +0.000 A 
ATOM      5  C   UNL     1      46.154   6.327  11.175  0.00  0.00    +0.000 A 
ATOM      6  C   UNL     1      45.345   5.308  10.683  0.00  0.00    +0.000 A 
ATOM      7  C   UNL     1      45.025   4.217  11.497  0.00  0.00    +0.000 A 
ATOM      8  C   UNL     1      45.524   4.173  12.814  0.00  0.00    +0.000 A 
BRANCH   7   9
ATOM      9  C   UNL     1      44.159   3.095  11.028  0.00  0.00    +0.000 C 
ATOM     10  N   UNL     1      44.630   2.270  10.042  0.00  0.00    +0.000 N 
ATOM     11  O   UNL     1      43.040   2.909  11.493  0.00  0.00    +0.000 OA
ATOM     12  H   UNL     1      45.506   2.377   9.559  0.00  0.00    +0.000 HD
ATOM     13  H   UNL     1      44.003   1.545   9.718  0.00  0.00    +0.000 HD
ENDBRANCH   7   9
ENDBRANCH   1   3
BRANCH   1  14
ATOM     14  C   UNL     1      47.097   3.794  15.153  0.00  0.00    +0.000 C 
BRANCH  14  15
ATOM     15  C   UNL     1      47.305   3.782  16.672  0.00  0.00    +0.000 C 
BRANCH  15  21
ATOM     16  C   UNL     1      50.882   2.667  17.446  0.00  0.00    +0.000 A 
ATOM     17  C   UNL     1      51.495   3.872  17.792  0.00  0.00    +0.000 A 
ATOM     18  C   UNL     1      50.767   5.063  17.749  0.00  0.00    +0.000 A 
ATOM     19  C   UNL     1      49.417   5.054  17.376  0.00  0.00    +0.000 A 
ATOM     20 CL   UNL     1      48.592   6.569  17.337  0.00  0.00    +0.000 Cl
ATOM     21  C   UNL     1      48.772   3.849  17.050  0.00  0.00    +0.000 A 
ATOM     22  C   UNL     1      49.532   2.660  17.069  0.00  0.00    +0.000 A 
BRANCH  16  24
ATOM     23  N   UNL     1      52.235   0.452  17.522  0.00  0.00    +0.000 NA
ATOM     24  C   UNL     1      51.631   1.442  17.487  0.00  0.00    +0.000 C 
ENDBRANCH  16  24
ENDBRANCH  15  21
ENDBRANCH  14  15
ENDBRANCH   1  14
TORSDOF 6
ENDMDL
MODEL 8
REMARK VINA RESULT:    -5.622      5.017      6.133
REMARK INTER + INTRA:          -8.579
REMARK INTER:                  -8.199
REMARK INTRA:                  -0.379
REMARK UNBOUND:                -0.985
REMARK  Name = 
REMARK  6 active torsions:
REMARK  status: ('A' for Active; 'I' for Inactive)
REMARK    1  A    between atoms: C_2  and  C_3
REMARK    2  A    between atoms: C_8  and  C_9
REMARK    3  A    between atoms: C_9  and  C_10
REMARK    4  A    between atoms: C_10  and  N_11
REMARK    5  A    between atoms: N_11  and  C_12
REMARK    6  A    between atoms: C_16  and  C_17
REMARK                            x       y       z     vdW  Elec       q    Type
REMARK                         _______ _______ _______ _____ _____    ______ ____
ROOT
ATOM      1  N   UNL     1      46.643   3.696  14.498  0.00  0.00    +0.000 N 
ATOM      2  H   UNL     1      45.822   3.189  14.828  0.00  0.00    +0.000 HD
ENDROOT
BRANCH   1   3
ATOM      3  C   UNL     1      46.329   4.433  13.338  0.00  0.00    +0.000 A 
ATOM      4  C   UNL     1      46.984   5.627  13.008  0.00  0.00    +0.000 A 
ATOM      5  C   UNL     1      46.676   6.330  11.843  0.00  0.00    +0.000 A 
ATOM      6  C   UNL     1      45.721   5.836  10.960  0.00  0.00    +0.000 A 
ATOM      7  C   UNL     1      45.085   4.621  11.229  0.00  0.00    +0.000 A 
ATOM      8  C   UNL     1      45.418   3.915  12.402  0.00  0.00    +0.000 A 
BRANCH   7   9
ATOM      9  C   UNL     1      44.049   4.041  10.323  0.00  0.00    +0.000 C 
ATOM     10  N   UNL     1      44.018   4.449   9.016  0.00  0.00    +0.000 N 
ATOM     11  O   UNL     1      43.226   3.227  10.726  0.00  0.00    +0.000 OA
ATOM     12  H   UNL     1      44.609   5.154   8.609  0.00  0.00    +0.000 HD
ATOM     13  H   UNL     1      43.278   4.069   8.439  0.00  0.00    +0.000 HD
ENDBRANCH   7   9
ENDBRANCH   1   3
BRANCH   1  14
ATOM     14  C   UNL     1      47.304   4.444  15.578  0.00  0.00    +0.000 C 
BRANCH  14  15
ATOM     15  C   UNL     1      47.513   3.565  16.817  0.00  0.00    +0.000 C 
BRANCH  15  21
ATOM     16  C   UNL     1      48.540   6.002  19.583  0.00  0.00    +0.000 A 
ATOM     17  C   UNL     1      49.865   5.632  19.820  0.00  0.00    +0.000 A 
ATOM     18  C   UNL     1      50.431   4.571  19.111  0.00  0.00    +0.000 A 
ATOM     19  C   UNL     1      49.682   3.884  18.148  0.00  0.00    +0.000 A 
ATOM     20 CL   UNL     1      50.452   2.577  17.324  0.00  0.00    +0.000 Cl
ATOM     21  C   UNL     1      48.355   4.256  17.873  0.00  0.00    +0.000 A 
ATOM     22  C   UNL     1      47.789   5.310  18.621  0.00  0.00    +0.000 A 
BRANCH  16  24
ATOM     23  N   UNL     1      47.486   7.972  20.904  0.00  0.00    +0.000 NA
ATOM     24  C   UNL     1      47.956   7.091  20.314  0.00  0.00    +0.000 C 
ENDBRANCH  16  24
ENDBRANCH  15  21
ENDBRANCH  14  15
ENDBRANCH   1  14
TORSDOF 6
ENDMDL
MODEL 9
REMARK VINA RESULT:    -5.576      2.363      3.649
REMARK INTER + INTRA:          -8.516
REMARK INTER:                  -7.556
REMARK INTRA:                  -0.961
REMARK UNBOUND:                -0.985
REMARK  Name = 
REMARK  6 active torsions:
REMARK  status: ('A' for Active; 'I' for Inactive)
REMARK    1  A    between atoms: C_2  and  C_3
REMARK    2  A    between atoms: C_8  and  C_9
REMARK    3  A    between atoms: C_9  and  C_10
REMARK    4  A    between atoms: C_10  and  N_11
REMARK    5  A    between atoms: N_11  and  C_12
REMARK    6  A    between atoms: C_16  and  C_17
REMARK                            x       y       z     vdW  Elec       q    Type
REMARK                         _______ _______ _______ _____ _____    ______ ____
ROOT
ATOM      1  N   UNL     1      46.167   3.914  13.732  0.00  0.00    +0.000 N 
ATOM      2  H   UNL     1      45.797   3.388  14.524  0.00  0.00    +0.000 HD
ENDROOT
BRANCH   1   3
ATOM      3  C   UNL     1      45.167   4.097  12.755  0.00  0.00    +0.000 A 
ATOM      4  C   UNL     1      44.087   4.969  12.943  0.00  0.00    +0.000 A 
ATOM      5  C   UNL     1      43.119   5.155  11.955  0.00  0.00    +0.000 A 
ATOM      6  C   UNL     1      43.228   4.492  10.736  0.00  0.00    +0.000 A 
ATOM      7  C   UNL     1      44.321   3.655  10.493  0.00  0.00    +0.000 A 
ATOM      8  C   UNL     1      45.297   3.489  11.496  0.00  0.00    +0.000 A 
BRANCH   7   9
ATOM      9  C   UNL     1      44.491   2.914   9.208  0.00  0.00    +0.000 C 
ATOM     10  N   UNL     1      44.365   3.601   8.031  0.00  0.00    +0.000 N 
ATOM     11  O   UNL     1      44.725   1.710   9.187  0.00  0.00    +0.000 OA
ATOM     12  H   UNL     1      44.116   4.573   7.946  0.00  0.00    +0.000 HD
ATOM     13  H   UNL     1      44.444   3.062   7.179  0.00  0.00    +0.000 HD
ENDBRANCH   7   9
ENDBRANCH   1   3
BRANCH   1  14
ATOM     14  C   UNL     1      46.881   5.127  14.159  0.00  0.00    +0.000 C 
BRANCH  14  15
ATOM     15  C   UNL     1      47.717   5.712  13.016  0.00  0.00    +0.000 C 
BRANCH  15  21
ATOM     16  C   UNL     1      45.982   8.987  12.065  0.00  0.00    +0.000 A 
ATOM     17  C   UNL     1      46.949   9.937  12.398  0.00  0.00    +0.000 A 
ATOM     18  C   UNL     1      48.160   9.532  12.962  0.00  0.00    +0.000 A 
ATOM     19  C   UNL     1      48.419   8.173  13.181  0.00  0.00    +0.000 A 
ATOM     20 CL   UNL     1      49.935   7.757  13.894  0.00  0.00    +0.000 Cl
ATOM     21  C   UNL     1      47.471   7.198  12.829  0.00  0.00    +0.000 A 
ATOM     22  C   UNL     1      46.241   7.627  12.289  0.00  0.00    +0.000 A 
BRANCH  16  24
ATOM     23  N   UNL     1      43.727   9.741  11.023  0.00  0.00    +0.000 NA
ATOM     24  C   UNL     1      44.735   9.404  11.487  0.00  0.00    +0.000 C 
ENDBRANCH  16  24
ENDBRANCH  15  21
ENDBRANCH  14  15
ENDBRANCH   1  14
TORSDOF 6
ENDMDL
