MODEL 1
REMARK VINA RESULT:    -9.430      0.000      0.000
REMARK INTER + INTRA:         -12.370
REMARK INTER:                 -12.186
REMARK INTRA:                  -0.184
REMARK UNBOUND:                -0.184
REMARK  Name = 
REMARK  6 active torsions:
REMARK  status: ('A' for Active; 'I' for Inactive)
REMARK    1  A    between atoms: C_1  and  C_2
REMARK    2  A    between atoms: C_2  and  N_3
REMARK    3  A    between atoms: C_2  and  C_16
REMARK    4  A    between atoms: C_4  and  C_6
REMARK    5  A    between atoms: C_19  and  O_20
REMARK    6  A    between atoms: O_20  and  C_21
REMARK                            x       y       z     vdW  Elec       q    Type
REMARK                         _______ _______ _______ _____ _____    ______ ____
ROOT
ATOM      1  C   UNL     1      42.888   5.042  13.198  0.00  0.00    +0.000 C 
ATOM      2  C   UNL     1      44.247   4.384  12.939  0.00  0.00    +0.000 C 
ENDROOT
BRANCH   2   3
ATOM      3  C   UNL     1      44.648   4.374  11.474  0.00  0.00    +0.000 A 
ATOM      4  C   UNL     1      45.501   5.382  10.999  0.00  0.00    +0.000 A 
ATOM      5  C   UNL     1      45.903   5.404   9.662  0.00  0.00    +0.000 A 
ATOM      6  C   UNL     1      45.509   4.386   8.793  0.00  0.00    +0.000 A 
ATOM      7  C   UNL     1      44.605   3.421   9.235  0.00  0.00    +0.000 A 
ATOM      8  C   UNL     1      44.167   3.423  10.562  0.00  0.00    +0.000 A 
BRANCH   6   9
ATOM      9  O   UNL     1      45.914   4.278   7.482  0.00  0.00    +0.000 OA
BRANCH   9  10
ATOM     10  C   UNL     1      46.406   3.079   7.018  0.00  0.00    +0.000 A 
ATOM     11  C   UNL     1      46.447   1.900   7.771  0.00  0.00    +0.000 A 
ATOM     12  C   UNL     1      47.041   0.751   7.247  0.00  0.00    +0.000 A 
ATOM     13  C   UNL     1      47.527   0.749   5.940  0.00  0.00    +0.000 A 
ATOM     14  C   UNL     1      47.407   1.894   5.153  0.00  0.00    +0.000 A 
ATOM     15  C   UNL     1      46.849   3.050   5.695  0.00  0.00    +0.000 A 
ATOM     16  F   UNL     1      46.751   4.142   4.923  0.00  0.00    +0.000 F 
ENDBRANCH   9  10
ENDBRANCH   6   9
ENDBRANCH   2   3
BRANCH   2  17
ATOM     17  N   UNL     1      45.289   5.018  13.722  0.00  0.00    +0.000 N 
ATOM     18  C   UNL     1      46.408   4.345  14.135  0.00  0.00    +0.000 C 
ATOM     19  O   UNL     1      46.596   3.170  13.832  0.00  0.00    +0.000 OA
ATOM     20  H   UNL     1      45.129   5.981  14.004  0.00  0.00    +0.000 HD
BRANCH  18  21
ATOM     21  C   UNL     1      47.383   5.083  14.956  0.00  0.00    +0.000 A 
ATOM     22  C   UNL     1      48.084   6.138  14.381  0.00  0.00    +0.000 A 
ATOM     23  S   UNL     1      49.186   6.893  15.436  0.00  0.00    +0.000 S 
ATOM     24  C   UNL     1      48.777   5.836  16.703  0.00  0.00    +0.000 A 
ATOM     25  N   UNL     1      49.394   5.933  17.910  0.00  0.00    +0.000 NA
ATOM     26  C   UNL     1      48.997   5.073  18.786  0.00  0.00    +0.000 A 
ATOM     27  N   UNL     1      48.026   4.130  18.567  0.00  0.00    +0.000 N 
ATOM     28  C   UNL     1      47.374   3.995  17.366  0.00  0.00    +0.000 A 
ATOM     29  O   UNL     1      46.513   3.133  17.206  0.00  0.00    +0.000 OA
ATOM     30  C   UNL     1      47.797   4.929  16.336  0.00  0.00    +0.000 A 
ATOM     31  H   UNL     1      47.752   3.491  19.299  0.00  0.00    +0.000 HD
ENDBRANCH  18  21
ENDBRANCH   2  17
TORSDOF 5
ENDMDL
MODEL 2
REMARK VINA RESULT:    -8.607      1.605      2.501
REMARK INTER + INTRA:         -11.307
REMARK INTER:                 -10.940
REMARK INTRA:                  -0.368
REMARK UNBOUND:                -0.184
REMARK  Name = 
REMARK  6 active torsions:
REMARK  status: ('A' for Active; 'I' for Inactive)
REMARK    1  A    between atoms: C_1  and  C_2
REMARK    2  A    between atoms: C_2  and  N_3
REMARK    3  A    between atoms: C_2  and  C_16
REMARK    4  A    between atoms: C_4  and  C_6
REMARK    5  A    between atoms: C_19  and  O_20
REMARK    6  A    between atoms: O_20  and  C_21
REMARK                            x       y       z     vdW  Elec       q    Type
REMARK                         _______ _______ _______ _____ _____    ______ ____
ROOT
ATOM      1  C   UNL     1      42.995   5.162  13.235  0.00  0.00    +0.000 C 
ATOM      2  C   UNL     1      44.341   4.500  12.924  0.00  0.00    +0.000 C 
ENDROOT
BRANCH   2   3
ATOM      3  C   UNL     1      44.648   4.419  11.439  0.00  0.00    +0.000 A 
ATOM      4  C   UNL     1      45.455   5.409  10.860  0.00  0.00    +0.000 A 
ATOM      5  C   UNL     1      45.772   5.367   9.500  0.00  0.00    +0.000 A 
ATOM      6  C   UNL     1      45.337   4.301   8.711  0.00  0.00    +0.000 A 
ATOM      7  C   UNL     1      44.477   3.351   9.259  0.00  0.00    +0.000 A 
ATOM      8  C   UNL     1      44.123   3.417  10.609  0.00  0.00    +0.000 A 
BRANCH   6   9
ATOM      9  O   UNL     1      45.660   4.130   7.384  0.00  0.00    +0.000 OA
BRANCH   9  10
ATOM     10  C   UNL     1      46.266   2.963   6.976  0.00  0.00    +0.000 A 
ATOM     11  C   UNL     1      46.324   1.795   7.744  0.00  0.00    +0.000 A 
ATOM     12  C   UNL     1      47.033   0.685   7.284  0.00  0.00    +0.000 A 
ATOM     13  C   UNL     1      47.622   0.706   6.020  0.00  0.00    +0.000 A 
ATOM     14  C   UNL     1      47.491   1.835   5.212  0.00  0.00    +0.000 A 
ATOM     15  C   UNL     1      46.815   2.954   5.693  0.00  0.00    +0.000 A 
ATOM     16  F   UNL     1      46.708   4.032   4.902  0.00  0.00    +0.000 F 
ENDBRANCH   9  10
ENDBRANCH   6   9
ENDBRANCH   2   3
BRANCH   2  17
ATOM     17  N   UNL     1      45.424   5.180  13.607  0.00  0.00    +0.000 N 
ATOM     18  C   UNL     1      46.522   4.514  14.085  0.00  0.00    +0.000 C 
ATOM     19  O   UNL     1      46.652   3.303  13.930  0.00  0.00    +0.000 OA
ATOM     20  H   UNL     1      45.312   6.176  13.767  0.00  0.00    +0.000 HD
BRANCH  18  21
ATOM     21  C   UNL     1      47.543   5.304  14.793  0.00  0.00    +0.000 A 
ATOM     22  C   UNL     1      47.818   5.008  16.123  0.00  0.00    +0.000 A 
ATOM     23  S   UNL     1      49.006   6.006  16.823  0.00  0.00    +0.000 S 
ATOM     24  C   UNL     1      49.197   6.880  15.378  0.00  0.00    +0.000 A 
ATOM     25  N   UNL     1      50.071   7.919  15.308  0.00  0.00    +0.000 NA
ATOM     26  C   UNL     1      50.122   8.502  14.158  0.00  0.00    +0.000 A 
ATOM     27  N   UNL     1      49.383   8.130  13.064  0.00  0.00    +0.000 N 
ATOM     28  C   UNL     1      48.490   7.088  13.086  0.00  0.00    +0.000 A 
ATOM     29  O   UNL     1      47.842   6.789  12.085  0.00  0.00    +0.000 OA
ATOM     30  C   UNL     1      48.379   6.407  14.365  0.00  0.00    +0.000 A 
ATOM     31  H   UNL     1      49.477   8.621  12.187  0.00  0.00    +0.000 HD
ENDBRANCH  18  21
ENDBRANCH   2  17
TORSDOF 5
ENDMDL
MODEL 3
REMARK VINA RESULT:    -8.251      2.683      3.837
REMARK INTER + INTRA:         -10.847
REMARK INTER:                  -9.528
REMARK INTRA:                  -1.319
REMARK UNBOUND:                -0.184
REMARK  Name = 
REMARK  6 active torsions:
REMARK  status: ('A' for Active; 'I' for Inactive)
REMARK    1  A    between atoms: C_1  and  C_2
REMARK    2  A    between atoms: C_2  and  N_3
REMARK    3  A    between atoms: C_2  and  C_16
REMARK    4  A    between atoms: C_4  and  C_6
REMARK    5  A    between atoms: C_19  and  O_20
REMARK    6  A    between atoms: O_20  and  C_21
REMARK                            x       y       z     vdW  Elec       q    Type
REMARK                         _______ _______ _______ _____ _____    ______ ____
ROOT
ATOM      1  C   UNL     1      48.174   9.283  13.001  0.00  0.00    +0.000 C 
ATOM      2  C   UNL     1      47.366   8.268  13.815  0.00  0.00    +0.000 C 
ENDROOT
BRANCH   2   3
ATOM      3  C   UNL     1      46.463   7.390  12.966  0.00  0.00    +0.000 A 
ATOM      4  C   UNL     1      45.462   7.997  12.192  0.00  0.00    +0.000 A 
ATOM      5  C   UNL     1      44.617   7.229  11.389  0.00  0.00    +0.000 A 
ATOM      6  C   UNL     1      44.799   5.848  11.298  0.00  0.00    +0.000 A 
ATOM      7  C   UNL     1      45.742   5.227  12.116  0.00  0.00    +0.000 A 
ATOM      8  C   UNL     1      46.559   5.991  12.953  0.00  0.00    +0.000 A 
BRANCH   6   9
ATOM      9  O   UNL     1      44.070   5.017  10.478  0.00  0.00    +0.000 OA
BRANCH   9  10
ATOM     10  C   UNL     1      44.724   4.173   9.609  0.00  0.00    +0.000 A 
ATOM     11  C   UNL     1      45.627   4.598   8.628  0.00  0.00    +0.000 A 
ATOM     12  C   UNL     1      46.181   3.680   7.736  0.00  0.00    +0.000 A 
ATOM     13  C   UNL     1      45.896   2.321   7.865  0.00  0.00    +0.000 A 
ATOM     14  C   UNL     1      45.068   1.880   8.897  0.00  0.00    +0.000 A 
ATOM     15  C   UNL     1      44.488   2.806   9.761  0.00  0.00    +0.000 A 
ATOM     16  F   UNL     1      43.688   2.361  10.741  0.00  0.00    +0.000 F 
ENDBRANCH   9  10
ENDBRANCH   6   9
ENDBRANCH   2   3
BRANCH   2  17
ATOM     17  N   UNL     1      48.239   7.433  14.617  0.00  0.00    +0.000 N 
ATOM     18  C   UNL     1      48.609   7.773  15.891  0.00  0.00    +0.000 C 
ATOM     19  O   UNL     1      48.192   8.796  16.428  0.00  0.00    +0.000 OA
ATOM     20  H   UNL     1      48.614   6.601  14.172  0.00  0.00    +0.000 HD
BRANCH  18  21
ATOM     21  C   UNL     1      49.528   6.865  16.598  0.00  0.00    +0.000 A 
ATOM     22  C   UNL     1      50.736   7.366  17.071  0.00  0.00    +0.000 A 
ATOM     23  S   UNL     1      51.707   6.208  17.854  0.00  0.00    +0.000 S 
ATOM     24  C   UNL     1      50.556   4.986  17.586  0.00  0.00    +0.000 A 
ATOM     25  N   UNL     1      50.791   3.713  18.000  0.00  0.00    +0.000 NA
ATOM     26  C   UNL     1      49.843   2.879  17.735  0.00  0.00    +0.000 A 
ATOM     27  N   UNL     1      48.671   3.209  17.102  0.00  0.00    +0.000 N 
ATOM     28  C   UNL     1      48.389   4.480  16.667  0.00  0.00    +0.000 A 
ATOM     29  O   UNL     1      47.330   4.734  16.098  0.00  0.00    +0.000 OA
ATOM     30  C   UNL     1      49.434   5.457  16.924  0.00  0.00    +0.000 A 
ATOM     31  H   UNL     1      47.962   2.510  16.934  0.00  0.00    +0.000 HD
ENDBRANCH  18  21
ENDBRANCH   2  17
TORSDOF 5
ENDMDL
MODEL 4
REMARK VINA RESULT:    -8.106      2.056      2.675
REMARK INTER + INTRA:         -10.659
REMARK INTER:                 -10.361
REMARK INTRA:                  -0.298
REMARK UNBOUND:                -0.184
REMARK  Name = 
REMARK  6 active torsions:
REMARK  status: ('A' for Active; 'I' for Inactive)
REMARK    1  A    between atoms: C_1  and  C_2
REMARK    2  A    between atoms: C_2  and  N_3
REMARK    3  A    between atoms: C_2  and  C_16
REMARK    4  A    between atoms: C_4  and  C_6
REMARK    5  A    between atoms: C_19  and  O_20
REMARK    6  A    between atoms: O_20  and  C_21
REMARK                            x       y       z     vdW  Elec       q    Type
REMARK                         _______ _______ _______ _____ _____    ______ ____
ROOT
ATOM      1  C   UNL     1      46.110   8.126  12.490  0.00  0.00    +0.000 C 
ATOM      2  C   UNL     1      45.288   6.857  12.734  0.00  0.00    +0.000 C 
ENDROOT
BRANCH   2   3
ATOM      3  C   UNL     1      45.140   5.984  11.500  0.00  0.00    +0.000 A 
ATOM      4  C   UNL     1      44.099   5.043  11.458  0.00  0.00    +0.000 A 
ATOM      5  C   UNL     1      43.920   4.227  10.339  0.00  0.00    +0.000 A 
ATOM      6  C   UNL     1      44.740   4.381   9.220  0.00  0.00    +0.000 A 
ATOM      7  C   UNL     1      45.819   5.261   9.278  0.00  0.00    +0.000 A 
ATOM      8  C   UNL     1      46.026   6.046  10.414  0.00  0.00    +0.000 A 
BRANCH   6   9
ATOM      9  O   UNL     1      44.594   3.680   8.044  0.00  0.00    +0.000 OA
BRANCH   9  10
ATOM     10  C   UNL     1      45.652   2.949   7.551  0.00  0.00    +0.000 A 
ATOM     11  C   UNL     1      46.511   3.393   6.539  0.00  0.00    +0.000 A 
ATOM     12  C   UNL     1      47.507   2.550   6.043  0.00  0.00    +0.000 A 
ATOM     13  C   UNL     1      47.701   1.290   6.607  0.00  0.00    +0.000 A 
ATOM     14  C   UNL     1      46.907   0.878   7.676  0.00  0.00    +0.000 A 
ATOM     15  C   UNL     1      45.889   1.708   8.141  0.00  0.00    +0.000 A 
ATOM     16  F   UNL     1      45.132   1.288   9.166  0.00  0.00    +0.000 F 
ENDBRANCH   9  10
ENDBRANCH   6   9
ENDBRANCH   2   3
BRANCH   2  17
ATOM     17  N   UNL     1      45.849   6.074  13.817  0.00  0.00    +0.000 N 
ATOM     18  C   UNL     1      47.196   5.859  13.944  0.00  0.00    +0.000 C 
ATOM     19  O   UNL     1      48.000   6.349  13.154  0.00  0.00    +0.000 OA
ATOM     20  H   UNL     1      45.192   5.639  14.457  0.00  0.00    +0.000 HD
BRANCH  18  21
ATOM     21  C   UNL     1      47.649   5.018  15.064  0.00  0.00    +0.000 A 
ATOM     22  C   UNL     1      47.354   3.659  15.045  0.00  0.00    +0.000 A 
ATOM     23  S   UNL     1      47.922   2.808  16.406  0.00  0.00    +0.000 S 
ATOM     24  C   UNL     1      48.580   4.223  17.081  0.00  0.00    +0.000 A 
ATOM     25  N   UNL     1      49.203   4.189  18.288  0.00  0.00    +0.000 NA
ATOM     26  C   UNL     1      49.656   5.327  18.691  0.00  0.00    +0.000 A 
ATOM     27  N   UNL     1      49.552   6.500  17.987  0.00  0.00    +0.000 N 
ATOM     28  C   UNL     1      48.933   6.584  16.764  0.00  0.00    +0.000 A 
ATOM     29  O   UNL     1      48.854   7.655  16.167  0.00  0.00    +0.000 OA
ATOM     30  C   UNL     1      48.387   5.331  16.271  0.00  0.00    +0.000 A 
ATOM     31  H   UNL     1      49.938   7.358  18.353  0.00  0.00    +0.000 HD
ENDBRANCH  18  21
ENDBRANCH   2  17
TORSDOF 5
ENDMDL
MODEL 5
REMARK VINA RESULT:    -7.917      2.883      4.249
REMARK INTER + INTRA:         -10.416
REMARK INTER:                  -9.275
REMARK INTRA:                  -1.141
REMARK UNBOUND:                -0.184
REMARK  Name = 
REMARK  6 active torsions:
REMARK  status: ('A' for Active; 'I' for Inactive)
REMARK    1  A    between atoms: C_1  and  C_2
REMARK    2  A    between atoms: C_2  and  N_3
REMARK    3  A    between atoms: C_2  and  C_16
REMARK    4  A    between atoms: C_4  and  C_6
REMARK    5  A    between atoms: C_19  and  O_20
REMARK    6  A    between atoms: O_20  and  C_21
REMARK                            x       y       z     vdW  Elec       q    Type
REMARK                         _______ _______ _______ _____ _____    ______ ____
ROOT
ATOM      1  C   UNL     1      49.651   7.542  13.518  0.00  0.00    +0.000 C 
ATOM      2  C   UNL     1      48.226   7.849  13.988  0.00  0.00    +0.000 C 
ENDROOT
BRANCH   2   3
ATOM      3  C   UNL     1      47.153   7.140  13.179  0.00  0.00    +0.000 A 
ATOM      4  C   UNL     1      46.262   7.910  12.416  0.00  0.00    +0.000 A 
ATOM      5  C   UNL     1      45.268   7.299  11.648  0.00  0.00    +0.000 A 
ATOM      6  C   UNL     1      45.188   5.907  11.583  0.00  0.00    +0.000 A 
ATOM      7  C   UNL     1      46.021   5.135  12.392  0.00  0.00    +0.000 A 
ATOM      8  C   UNL     1      46.987   5.747  13.194  0.00  0.00    +0.000 A 
BRANCH   6   9
ATOM      9  O   UNL     1      44.296   5.213  10.798  0.00  0.00    +0.000 OA
BRANCH   9  10
ATOM     10  C   UNL     1      44.766   4.325   9.856  0.00  0.00    +0.000 A 
ATOM     11  C   UNL     1      45.593   4.679   8.784  0.00  0.00    +0.000 A 
ATOM     12  C   UNL     1      45.953   3.728   7.829  0.00  0.00    +0.000 A 
ATOM     13  C   UNL     1      45.553   2.401   7.979  0.00  0.00    +0.000 A 
ATOM     14  C   UNL     1      44.803   2.023   9.093  0.00  0.00    +0.000 A 
ATOM     15  C   UNL     1      44.414   2.985  10.022  0.00  0.00    +0.000 A 
ATOM     16  F   UNL     1      43.686   2.601  11.081  0.00  0.00    +0.000 F 
ENDBRANCH   9  10
ENDBRANCH   6   9
ENDBRANCH   2   3
BRANCH   2  17
ATOM     17  N   UNL     1      48.062   7.530  15.393  0.00  0.00    +0.000 N 
ATOM     18  C   UNL     1      48.549   8.335  16.389  0.00  0.00    +0.000 C 
ATOM     19  O   UNL     1      49.126   9.389  16.134  0.00  0.00    +0.000 OA
ATOM     20  H   UNL     1      47.614   6.646  15.614  0.00  0.00    +0.000 HD
BRANCH  18  21
ATOM     21  C   UNL     1      48.355   7.891  17.779  0.00  0.00    +0.000 A 
ATOM     22  C   UNL     1      47.913   8.813  18.722  0.00  0.00    +0.000 A 
ATOM     23  S   UNL     1      47.745   8.171  20.290  0.00  0.00    +0.000 S 
ATOM     24  C   UNL     1      48.264   6.637  19.774  0.00  0.00    +0.000 A 
ATOM     25  N   UNL     1      48.371   5.610  20.658  0.00  0.00    +0.000 NA
ATOM     26  C   UNL     1      48.777   4.499  20.143  0.00  0.00    +0.000 A 
ATOM     27  N   UNL     1      49.073   4.318  18.816  0.00  0.00    +0.000 N 
ATOM     28  C   UNL     1      48.979   5.325  17.887  0.00  0.00    +0.000 A 
ATOM     29  O   UNL     1      49.260   5.125  16.708  0.00  0.00    +0.000 OA
ATOM     30  C   UNL     1      48.543   6.605  18.418  0.00  0.00    +0.000 A 
ATOM     31  H   UNL     1      49.377   3.418  18.473  0.00  0.00    +0.000 HD
ENDBRANCH  18  21
ENDBRANCH   2  17
TORSDOF 5
ENDMDL
MODEL 6
REMARK VINA RESULT:    -7.762      4.688      8.811
REMARK INTER + INTRA:         -10.215
REMARK INTER:                  -9.060
REMARK INTRA:                  -1.155
REMARK UNBOUND:                -0.184
REMARK  Name = 
REMARK  6 active torsions:
REMARK  status: ('A' for Active; 'I' for Inactive)
REMARK    1  A    between atoms: C_1  and  C_2
REMARK    2  A    between atoms: C_2  and  N_3
REMARK    3  A    between atoms: C_2  and  C_16
REMARK    4  A    between atoms: C_4  and  C_6
REMARK    5  A    between atoms: C_19  and  O_20
REMARK    6  A    between atoms: O_20  and  C_21
REMARK                            x       y       z     vdW  Elec       q    Type
REMARK                         _______ _______ _______ _____ _____    ______ ____
ROOT
ATOM      1  C   UNL     1      48.578   9.587  15.695  0.00  0.00    +0.000 C 
ATOM      2  C   UNL     1      48.869   8.233  15.041  0.00  0.00    +0.000 C 
ENDROOT
BRANCH   2   3
ATOM      3  C   UNL     1      49.407   7.194  16.010  0.00  0.00    +0.000 A 
ATOM      4  C   UNL     1      50.773   6.876  15.971  0.00  0.00    +0.000 A 
ATOM      5  C   UNL     1      51.312   5.936  16.851  0.00  0.00    +0.000 A 
ATOM      6  C   UNL     1      50.507   5.342  17.823  0.00  0.00    +0.000 A 
ATOM      7  C   UNL     1      49.136   5.595  17.825  0.00  0.00    +0.000 A 
ATOM      8  C   UNL     1      48.588   6.504  16.916  0.00  0.00    +0.000 A 
BRANCH   6   9
ATOM      9  O   UNL     1      50.959   4.464  18.782  0.00  0.00    +0.000 OA
BRANCH   9  10
ATOM     10  C   UNL     1      51.736   3.390  18.410  0.00  0.00    +0.000 A 
ATOM     11  C   UNL     1      53.105   3.278  18.679  0.00  0.00    +0.000 A 
ATOM     12  C   UNL     1      53.832   2.191  18.190  0.00  0.00    +0.000 A 
ATOM     13  C   UNL     1      53.182   1.171  17.497  0.00  0.00    +0.000 A 
ATOM     14  C   UNL     1      51.802   1.232  17.304  0.00  0.00    +0.000 A 
ATOM     15  C   UNL     1      51.089   2.339  17.760  0.00  0.00    +0.000 A 
ATOM     16  F   UNL     1      49.764   2.380  17.557  0.00  0.00    +0.000 F 
ENDBRANCH   9  10
ENDBRANCH   6   9
ENDBRANCH   2   3
BRANCH   2  17
ATOM     17  N   UNL     1      47.689   7.712  14.378  0.00  0.00    +0.000 N 
ATOM     18  C   UNL     1      47.764   6.820  13.341  0.00  0.00    +0.000 C 
ATOM     19  O   UNL     1      48.845   6.395  12.940  0.00  0.00    +0.000 OA
ATOM     20  H   UNL     1      46.792   8.080  14.681  0.00  0.00    +0.000 HD
BRANCH  18  21
ATOM     21  C   UNL     1      46.501   6.388  12.722  0.00  0.00    +0.000 A 
ATOM     22  C   UNL     1      45.692   7.339  12.111  0.00  0.00    +0.000 A 
ATOM     23  S   UNL     1      44.257   6.706  11.449  0.00  0.00    +0.000 S 
ATOM     24  C   UNL     1      44.654   5.134  11.958  0.00  0.00    +0.000 A 
ATOM     25  N   UNL     1      43.809   4.096  11.721  0.00  0.00    +0.000 NA
ATOM     26  C   UNL     1      44.224   2.956  12.158  0.00  0.00    +0.000 A 
ATOM     27  N   UNL     1      45.418   2.757  12.804  0.00  0.00    +0.000 N 
ATOM     28  C   UNL     1      46.303   3.773  13.065  0.00  0.00    +0.000 A 
ATOM     29  O   UNL     1      47.361   3.556  13.652  0.00  0.00    +0.000 OA
ATOM     30  C   UNL     1      45.876   5.085  12.609  0.00  0.00    +0.000 A 
ATOM     31  H   UNL     1      45.690   1.835  13.113  0.00  0.00    +0.000 HD
ENDBRANCH  18  21
ENDBRANCH   2  17
TORSDOF 5
ENDMDL
MODEL 7
REMARK VINA RESULT:    -7.391      3.094      4.783
REMARK INTER + INTRA:          -9.735
REMARK INTER:                  -8.412
REMARK INTRA:                  -1.323
REMARK UNBOUND:                -0.184
REMARK  Name = 
REMARK  6 active torsions:
REMARK  status: ('A' for Active; 'I' for Inactive)
REMARK    1  A    between atoms: C_1  and  C_2
REMARK    2  A    between atoms: C_2  and  N_3
REMARK    3  A    between atoms: C_2  and  C_16
REMARK    4  A    between atoms: C_4  and  C_6
REMARK    5  A    between atoms: C_19  and  O_20
REMARK    6  A    between atoms: O_20  and  C_21
REMARK                            x       y       z     vdW  Elec       q    Type
REMARK                         _______ _______ _______ _____ _____    ______ ____
ROOT
ATOM      1  C   UNL     1      50.205   8.657  13.015  0.00  0.00    +0.000 C 
ATOM      2  C   UNL     1      48.908   8.603  13.829  0.00  0.00    +0.000 C 
ENDROOT
BRANCH   2   3
ATOM      3  C   UNL     1      47.724   8.061  13.047  0.00  0.00    +0.000 A 
ATOM      4  C   UNL     1      47.942   7.040  12.110  0.00  0.00    +0.000 A 
ATOM      5  C   UNL     1      46.881   6.504  11.377  0.00  0.00    +0.000 A 
ATOM      6  C   UNL     1      45.575   6.939  11.614  0.00  0.00    +0.000 A 
ATOM      7  C   UNL     1      45.356   8.001  12.489  0.00  0.00    +0.000 A 
ATOM      8  C   UNL     1      46.423   8.567  13.190  0.00  0.00    +0.000 A 
BRANCH   6   9
ATOM      9  O   UNL     1      44.457   6.421  11.001  0.00  0.00    +0.000 OA
BRANCH   9  10
ATOM     10  C   UNL     1      44.476   5.127  10.530  0.00  0.00    +0.000 A 
ATOM     11  C   UNL     1      45.000   4.749   9.288  0.00  0.00    +0.000 A 
ATOM     12  C   UNL     1      44.902   3.425   8.857  0.00  0.00    +0.000 A 
ATOM     13  C   UNL     1      44.350   2.457   9.694  0.00  0.00    +0.000 A 
ATOM     14  C   UNL     1      43.908   2.810  10.968  0.00  0.00    +0.000 A 
ATOM     15  C   UNL     1      43.973   4.140  11.378  0.00  0.00    +0.000 A 
ATOM     16  F   UNL     1      43.535   4.459  12.605  0.00  0.00    +0.000 F 
ENDBRANCH   9  10
ENDBRANCH   6   9
ENDBRANCH   2   3
BRANCH   2  17
ATOM     17  N   UNL     1      49.086   7.826  15.040  0.00  0.00    +0.000 N 
ATOM     18  C   UNL     1      48.605   8.241  16.253  0.00  0.00    +0.000 C 
ATOM     19  O   UNL     1      47.970   9.286  16.367  0.00  0.00    +0.000 OA
ATOM     20  H   UNL     1      49.636   6.976  14.963  0.00  0.00    +0.000 HD
BRANCH  18  21
ATOM     21  C   UNL     1      48.877   7.386  17.421  0.00  0.00    +0.000 A 
ATOM     22  C   UNL     1      49.340   7.976  18.592  0.00  0.00    +0.000 A 
ATOM     23  S   UNL     1      49.627   6.874  19.857  0.00  0.00    +0.000 S 
ATOM     24  C   UNL     1      49.151   5.560  18.889  0.00  0.00    +0.000 A 
ATOM     25  N   UNL     1      49.188   4.292  19.377  0.00  0.00    +0.000 NA
ATOM     26  C   UNL     1      48.804   3.385  18.544  0.00  0.00    +0.000 A 
ATOM     27  N   UNL     1      48.374   3.634  17.266  0.00  0.00    +0.000 N 
ATOM     28  C   UNL     1      48.319   4.896  16.729  0.00  0.00    +0.000 A 
ATOM     29  O   UNL     1      47.934   5.077  15.577  0.00  0.00    +0.000 OA
ATOM     30  C   UNL     1      48.759   5.956  17.621  0.00  0.00    +0.000 A 
ATOM     31  H   UNL     1      48.077   2.878  16.665  0.00  0.00    +0.000 HD
ENDBRANCH  18  21
ENDBRANCH   2  17
TORSDOF 5
ENDMDL
MODEL 8
REMARK VINA RESULT:    -7.352      4.476      6.108
REMARK INTER + INTRA:          -9.685
REMARK INTER:                  -8.517
REMARK INTRA:                  -1.168
REMARK UNBOUND:                -0.184
REMARK  Name = 
REMARK  6 active torsions:
REMARK  status: ('A' for Active; 'I' for Inactive)
REMARK    1  A    between atoms: C_1  and  C_2
REMARK    2  A    between atoms: C_2  and  N_3
REMARK    3  A    between atoms: C_2  and  C_16
REMARK    4  A    between atoms: C_4  and  C_6
REMARK    5  A    between atoms: C_19  and  O_20
REMARK    6  A    between atoms: O_20  and  C_21
REMARK                            x       y       z     vdW  Elec       q    Type
REMARK                         _______ _______ _______ _____ _____    ______ ____
ROOT
ATOM      1  C   UNL     1      44.577   4.489  13.074  0.00  0.00    +0.000 C 
ATOM      2  C   UNL     1      45.868   5.313  13.098  0.00  0.00    +0.000 C 
ENDROOT
BRANCH   2   3
ATOM      3  C   UNL     1      45.668   6.767  12.709  0.00  0.00    +0.000 A 
ATOM      4  C   UNL     1      44.689   7.084  11.755  0.00  0.00    +0.000 A 
ATOM      5  C   UNL     1      44.464   8.409  11.376  0.00  0.00    +0.000 A 
ATOM      6  C   UNL     1      45.172   9.444  11.989  0.00  0.00    +0.000 A 
ATOM      7  C   UNL     1      46.196   9.136  12.884  0.00  0.00    +0.000 A 
ATOM      8  C   UNL     1      46.451   7.807  13.231  0.00  0.00    +0.000 A 
BRANCH   6   9
ATOM      9  O   UNL     1      44.969  10.782  11.740  0.00  0.00    +0.000 OA
BRANCH   9  10
ATOM     10  C   UNL     1      45.529  11.361  10.623  0.00  0.00    +0.000 A 
ATOM     11  C   UNL     1      46.866  11.762  10.531  0.00  0.00    +0.000 A 
ATOM     12  C   UNL     1      47.327  12.416   9.388  0.00  0.00    +0.000 A 
ATOM     13  C   UNL     1      46.477  12.605   8.300  0.00  0.00    +0.000 A 
ATOM     14  C   UNL     1      45.168  12.127   8.351  0.00  0.00    +0.000 A 
ATOM     15  C   UNL     1      44.702  11.509   9.509  0.00  0.00    +0.000 A 
ATOM     16  F   UNL     1      43.437  11.064   9.539  0.00  0.00    +0.000 F 
ENDBRANCH   9  10
ENDBRANCH   6   9
ENDBRANCH   2   3
BRANCH   2  17
ATOM     17  N   UNL     1      46.505   5.242  14.399  0.00  0.00    +0.000 N 
ATOM     18  C   UNL     1      47.193   4.135  14.819  0.00  0.00    +0.000 C 
ATOM     19  O   UNL     1      47.327   3.152  14.095  0.00  0.00    +0.000 OA
ATOM     20  H   UNL     1      46.374   6.037  15.017  0.00  0.00    +0.000 HD
BRANCH  18  21
ATOM     21  C   UNL     1      47.767   4.164  16.175  0.00  0.00    +0.000 A 
ATOM     22  C   UNL     1      47.385   3.188  17.088  0.00  0.00    +0.000 A 
ATOM     23  S   UNL     1      48.112   3.348  18.618  0.00  0.00    +0.000 S 
ATOM     24  C   UNL     1      48.964   4.734  18.126  0.00  0.00    +0.000 A 
ATOM     25  N   UNL     1      49.774   5.393  18.996  0.00  0.00    +0.000 NA
ATOM     26  C   UNL     1      50.361   6.430  18.502  0.00  0.00    +0.000 A 
ATOM     27  N   UNL     1      50.220   6.862  17.207  0.00  0.00    +0.000 N 
ATOM     28  C   UNL     1      49.415   6.229  16.293  0.00  0.00    +0.000 A 
ATOM     29  O   UNL     1      49.310   6.651  15.144  0.00  0.00    +0.000 OA
ATOM     30  C   UNL     1      48.714   5.063  16.804  0.00  0.00    +0.000 A 
ATOM     31  H   UNL     1      50.717   7.677  16.878  0.00  0.00    +0.000 HD
ENDBRANCH  18  21
ENDBRANCH   2  17
TORSDOF 5
ENDMDL
MODEL 9
REMARK VINA RESULT:    -7.343      2.947      4.139
REMARK INTER + INTRA:          -9.674
REMARK INTER:                  -9.613
REMARK INTRA:                  -0.061
REMARK UNBOUND:                -0.184
REMARK  Name = 
REMARK  6 active torsions:
REMARK  status: ('A' for Active; 'I' for Inactive)
REMARK    1  A    between atoms: C_1  and  C_2
REMARK    2  A    between atoms: C_2  and  N_3
REMARK    3  A    between atoms: C_2  and  C_16
REMARK    4  A    between atoms: C_4  and  C_6
REMARK    5  A    between atoms: C_19  and  O_20
REMARK    6  A    between atoms: O_20  and  C_21
REMARK                            x       y       z     vdW  Elec       q    Type
REMARK                         _______ _______ _______ _____ _____    ______ ____
ROOT
ATOM      1  C   UNL     1      49.045   8.509  13.020  0.00  0.00    +0.000 C 
ATOM      2  C   UNL     1      47.665   8.348  13.663  0.00  0.00    +0.000 C 
ENDROOT
BRANCH   2   3
ATOM      3  C   UNL     1      46.718   7.474  12.859  0.00  0.00    +0.000 A 
ATOM      4  C   UNL     1      45.663   8.082  12.162  0.00  0.00    +0.000 A 
ATOM      5  C   UNL     1      44.776   7.317  11.401  0.00  0.00    +0.000 A 
ATOM      6  C   UNL     1      44.965   5.940  11.277  0.00  0.00    +0.000 A 
ATOM      7  C   UNL     1      45.965   5.317  12.021  0.00  0.00    +0.000 A 
ATOM      8  C   UNL     1      46.826   6.076  12.818  0.00  0.00    +0.000 A 
BRANCH   6   9
ATOM      9  O   UNL     1      44.194   5.114  10.491  0.00  0.00    +0.000 OA
BRANCH   9  10
ATOM     10  C   UNL     1      44.803   4.234   9.625  0.00  0.00    +0.000 A 
ATOM     11  C   UNL     1      45.688   4.614   8.610  0.00  0.00    +0.000 A 
ATOM     12  C   UNL     1      46.194   3.661   7.725  0.00  0.00    +0.000 A 
ATOM     13  C   UNL     1      45.880   2.313   7.894  0.00  0.00    +0.000 A 
ATOM     14  C   UNL     1      45.070   1.917   8.958  0.00  0.00    +0.000 A 
ATOM     15  C   UNL     1      44.537   2.878   9.815  0.00  0.00    +0.000 A 
ATOM     16  F   UNL     1      43.754   2.475  10.827  0.00  0.00    +0.000 F 
ENDBRANCH   9  10
ENDBRANCH   6   9
ENDBRANCH   2   3
BRANCH   2  17
ATOM     17  N   UNL     1      47.777   7.827  15.012  0.00  0.00    +0.000 N 
ATOM     18  C   UNL     1      48.831   7.048  15.411  0.00  0.00    +0.000 C 
ATOM     19  O   UNL     1      49.751   6.775  14.645  0.00  0.00    +0.000 OA
ATOM     20  H   UNL     1      47.007   8.021  15.644  0.00  0.00    +0.000 HD
BRANCH  18  21
ATOM     21  C   UNL     1      48.820   6.546  16.795  0.00  0.00    +0.000 A 
ATOM     22  C   UNL     1      49.223   5.237  17.038  0.00  0.00    +0.000 A 
ATOM     23  S   UNL     1      49.149   4.783  18.677  0.00  0.00    +0.000 S 
ATOM     24  C   UNL     1      48.568   6.315  19.129  0.00  0.00    +0.000 A 
ATOM     25  N   UNL     1      48.270   6.587  20.427  0.00  0.00    +0.000 NA
ATOM     26  C   UNL     1      47.837   7.783  20.639  0.00  0.00    +0.000 A 
ATOM     27  N   UNL     1      47.685   8.740  19.669  0.00  0.00    +0.000 N 
ATOM     28  C   UNL     1      47.973   8.513  18.345  0.00  0.00    +0.000 A 
ATOM     29  O   UNL     1      47.818   9.395  17.504  0.00  0.00    +0.000 OA
ATOM     30  C   UNL     1      48.449   7.173  18.047  0.00  0.00    +0.000 A 
ATOM     31  H   UNL     1      47.350   9.663  19.902  0.00  0.00    +0.000 HD
ENDBRANCH  18  21
ENDBRANCH   2  17
TORSDOF 5
ENDMDL
