MODEL 1
REMARK VINA RESULT:    -7.397      0.000      0.000
REMARK INTER + INTRA:          -9.773
REMARK INTER:                  -9.127
REMARK INTRA:                  -0.646
REMARK UNBOUND:                -0.646
REMARK  Name = 
REMARK  4 active torsions:
REMARK  status: ('A' for Active; 'I' for Inactive)
REMARK    1  A    between atoms: C_8  and  N_9
REMARK    2  A    between atoms: N_9  and  C_10
REMARK    3  A    between atoms: C_10  and  C_11
REMARK    4  A    between atoms: C_15  and  C_16
REMARK                            x       y       z     vdW  Elec       q    Type
REMARK                         _______ _______ _______ _____ _____    ______ ____
ROOT
ATOM      1  C   UNL     1      44.969   5.697  11.405  0.00  0.00    +0.000 C 
ATOM      2  C   UNL     1      43.987   6.826  11.095  0.00  0.00    +0.000 C 
ATOM      3  C   UNL     1      43.899   6.110  12.399  0.00  0.00    +0.000 C 
ENDROOT
BRANCH   1   4
ATOM      4  C   UNL     1      44.766   4.416  10.606  0.00  0.00    +0.000 A 
ATOM      5  C   UNL     1      43.864   3.431  11.011  0.00  0.00    +0.000 A 
ATOM      6  N   UNL     1      43.691   2.238  10.398  0.00  0.00    +0.000 NA
ATOM      7  C   UNL     1      44.463   1.999   9.314  0.00  0.00    +0.000 A 
ATOM      8  C   UNL     1      45.397   2.891   8.787  0.00  0.00    +0.000 A 
ATOM      9  C   UNL     1      45.510   4.124   9.453  0.00  0.00    +0.000 A 
BRANCH   8  10
ATOM     10  C   UNL     1      46.254   2.551   7.637  0.00  0.00    +0.000 A 
ATOM     11  C   UNL     1      46.402   3.403   6.540  0.00  0.00    +0.000 A 
ATOM     12  C   UNL     1      47.257   3.041   5.515  0.00  0.00    +0.000 A 
ATOM     13  N   UNL     1      47.952   1.887   5.521  0.00  0.00    +0.000 NA
ATOM     14  N   UNL     1      47.820   1.041   6.569  0.00  0.00    +0.000 NA
ATOM     15  C   UNL     1      46.998   1.375   7.590  0.00  0.00    +0.000 A 
ENDBRANCH   8  10
ENDBRANCH   1   4
BRANCH   1  16
ATOM     16  N   UNL     1      46.385   6.107  11.533  0.00  0.00    +0.000 N 
ATOM     17  H   UNL     1      46.971   5.795  10.753  0.00  0.00    +0.000 HD
BRANCH  16  25
ATOM     18 CL   UNL     1      47.267   3.975  16.156  0.00  0.00    +0.000 Cl
ATOM     19  C   UNL     1      47.589   5.160  14.948  0.00  0.00    +0.000 A 
ATOM     20  C   UNL     1      48.483   6.189  15.225  0.00  0.00    +0.000 A 
ATOM     21  C   UNL     1      48.724   7.162  14.256  0.00  0.00    +0.000 A 
ATOM     22 CL   UNL     1      49.848   8.416  14.654  0.00  0.00    +0.000 Cl
ATOM     23  C   UNL     1      48.057   7.109  13.023  0.00  0.00    +0.000 A 
ATOM     24 CL   UNL     1      48.352   8.313  11.801  0.00  0.00    +0.000 Cl
ATOM     25  C   UNL     1      47.142   6.063  12.737  0.00  0.00    +0.000 A 
ATOM     26  C   UNL     1      46.929   5.091  13.720  0.00  0.00    +0.000 A 
ENDBRANCH  16  25
ENDBRANCH   1  16
TORSDOF 4
ENDMDL
MODEL 2
REMARK VINA RESULT:    -7.393      1.714      2.905
REMARK INTER + INTRA:          -9.768
REMARK INTER:                  -8.893
REMARK INTRA:                  -0.876
REMARK UNBOUND:                -0.646
REMARK  Name = 
REMARK  4 active torsions:
REMARK  status: ('A' for Active; 'I' for Inactive)
REMARK    1  A    between atoms: C_8  and  N_9
REMARK    2  A    between atoms: N_9  and  C_10
REMARK    3  A    between atoms: C_10  and  C_11
REMARK    4  A    between atoms: C_15  and  C_16
REMARK                            x       y       z     vdW  Elec       q    Type
REMARK                         _______ _______ _______ _____ _____    ______ ____
ROOT
ATOM      1  C   UNL     1      46.177   7.286  12.285  0.00  0.00    +0.000 C 
ATOM      2  C   UNL     1      46.321   8.709  11.748  0.00  0.00    +0.000 C 
ATOM      3  C   UNL     1      45.535   8.466  12.992  0.00  0.00    +0.000 C 
ENDROOT
BRANCH   1   4
ATOM      4  C   UNL     1      45.290   6.362  11.459  0.00  0.00    +0.000 A 
ATOM      5  C   UNL     1      43.909   6.305  11.646  0.00  0.00    +0.000 A 
ATOM      6  N   UNL     1      43.073   5.455  11.008  0.00  0.00    +0.000 NA
ATOM      7  C   UNL     1      43.640   4.599  10.129  0.00  0.00    +0.000 A 
ATOM      8  C   UNL     1      45.001   4.547   9.829  0.00  0.00    +0.000 A 
ATOM      9  C   UNL     1      45.813   5.476  10.505  0.00  0.00    +0.000 A 
BRANCH   8  10
ATOM     10  C   UNL     1      45.570   3.551   8.903  0.00  0.00    +0.000 A 
ATOM     11  C   UNL     1      46.274   3.918   7.754  0.00  0.00    +0.000 A 
ATOM     12  C   UNL     1      46.819   2.931   6.953  0.00  0.00    +0.000 A 
ATOM     13  N   UNL     1      46.692   1.620   7.227  0.00  0.00    +0.000 NA
ATOM     14  N   UNL     1      46.009   1.237   8.331  0.00  0.00    +0.000 NA
ATOM     15  C   UNL     1      45.474   2.182   9.139  0.00  0.00    +0.000 A 
ENDBRANCH   8  10
ENDBRANCH   1   4
BRANCH   1  16
ATOM     16  N   UNL     1      47.431   6.655  12.752  0.00  0.00    +0.000 N 
ATOM     17  H   UNL     1      47.737   5.874  12.164  0.00  0.00    +0.000 HD
BRANCH  16  25
ATOM     18 CL   UNL     1      49.837   7.991  17.125  0.00  0.00    +0.000 Cl
ATOM     19  C   UNL     1      48.893   6.896  16.189  0.00  0.00    +0.000 A 
ATOM     20  C   UNL     1      48.580   5.646  16.715  0.00  0.00    +0.000 A 
ATOM     21  C   UNL     1      47.837   4.750  15.947  0.00  0.00    +0.000 A 
ATOM     22 CL   UNL     1      47.473   3.213  16.653  0.00  0.00    +0.000 Cl
ATOM     23  C   UNL     1      47.427   5.103  14.652  0.00  0.00    +0.000 A 
ATOM     24 CL   UNL     1      46.493   3.997  13.684  0.00  0.00    +0.000 Cl
ATOM     25  C   UNL     1      47.747   6.375  14.111  0.00  0.00    +0.000 A 
ATOM     26  C   UNL     1      48.480   7.261  14.907  0.00  0.00    +0.000 A 
ENDBRANCH  16  25
ENDBRANCH   1  16
TORSDOF 4
ENDMDL
MODEL 3
REMARK VINA RESULT:    -7.260      2.974      4.556
REMARK INTER + INTRA:          -9.604
REMARK INTER:                  -8.839
REMARK INTRA:                  -0.765
REMARK UNBOUND:                -0.646
REMARK  Name = 
REMARK  4 active torsions:
REMARK  status: ('A' for Active; 'I' for Inactive)
REMARK    1  A    between atoms: C_8  and  N_9
REMARK    2  A    between atoms: N_9  and  C_10
REMARK    3  A    between atoms: C_10  and  C_11
REMARK    4  A    between atoms: C_15  and  C_16
REMARK                            x       y       z     vdW  Elec       q    Type
REMARK                         _______ _______ _______ _____ _____    ______ ____
ROOT
ATOM      1  C   UNL     1      46.024   7.222  12.241  0.00  0.00    +0.000 C 
ATOM      2  C   UNL     1      46.896   6.593  13.327  0.00  0.00    +0.000 C 
ATOM      3  C   UNL     1      47.532   7.142  12.095  0.00  0.00    +0.000 C 
ENDROOT
BRANCH   1   4
ATOM      4  C   UNL     1      45.163   6.247  11.447  0.00  0.00    +0.000 A 
ATOM      5  C   UNL     1      43.794   6.112  11.683  0.00  0.00    +0.000 A 
ATOM      6  N   UNL     1      42.986   5.215  11.076  0.00  0.00    +0.000 NA
ATOM      7  C   UNL     1      43.570   4.390  10.177  0.00  0.00    +0.000 A 
ATOM      8  C   UNL     1      44.920   4.415   9.829  0.00  0.00    +0.000 A 
ATOM      9  C   UNL     1      45.701   5.390  10.475  0.00  0.00    +0.000 A 
BRANCH   8  10
ATOM     10  C   UNL     1      45.512   3.452   8.884  0.00  0.00    +0.000 A 
ATOM     11  C   UNL     1      46.172   3.856   7.722  0.00  0.00    +0.000 A 
ATOM     12  C   UNL     1      46.742   2.899   6.902  0.00  0.00    +0.000 A 
ATOM     13  N   UNL     1      46.679   1.582   7.169  0.00  0.00    +0.000 NA
ATOM     14  N   UNL     1      46.039   1.163   8.286  0.00  0.00    +0.000 NA
ATOM     15  C   UNL     1      45.481   2.078   9.112  0.00  0.00    +0.000 A 
ENDBRANCH   8  10
ENDBRANCH   1   4
BRANCH   1  16
ATOM     16  N   UNL     1      45.320   8.462  12.634  0.00  0.00    +0.000 N 
ATOM     17  H   UNL     1      44.466   8.292  13.173  0.00  0.00    +0.000 HD
BRANCH  16  25
ATOM     18 CL   UNL     1      42.581  10.874   8.976  0.00  0.00    +0.000 Cl
ATOM     19  C   UNL     1      43.935  10.774  10.036  0.00  0.00    +0.000 A 
ATOM     20  C   UNL     1      44.942  11.730   9.946  0.00  0.00    +0.000 A 
ATOM     21  C   UNL     1      46.050  11.634  10.787  0.00  0.00    +0.000 A 
ATOM     22 CL   UNL     1      47.269  12.852  10.634  0.00  0.00    +0.000 Cl
ATOM     23  C   UNL     1      46.152  10.573  11.701  0.00  0.00    +0.000 A 
ATOM     24 CL   UNL     1      47.527  10.444  12.761  0.00  0.00    +0.000 Cl
ATOM     25  C   UNL     1      45.130   9.594  11.793  0.00  0.00    +0.000 A 
ATOM     26  C   UNL     1      44.021   9.722  10.950  0.00  0.00    +0.000 A 
ENDBRANCH  16  25
ENDBRANCH   1  16
TORSDOF 4
ENDMDL
MODEL 4
REMARK VINA RESULT:    -7.162      1.559      2.088
REMARK INTER + INTRA:          -9.483
REMARK INTER:                  -8.602
REMARK INTRA:                  -0.881
REMARK UNBOUND:                -0.646
REMARK  Name = 
REMARK  4 active torsions:
REMARK  status: ('A' for Active; 'I' for Inactive)
REMARK    1  A    between atoms: C_8  and  N_9
REMARK    2  A    between atoms: N_9  and  C_10
REMARK    3  A    between atoms: C_10  and  C_11
REMARK    4  A    between atoms: C_15  and  C_16
REMARK                            x       y       z     vdW  Elec       q    Type
REMARK                         _______ _______ _______ _____ _____    ______ ____
ROOT
ATOM      1  C   UNL     1      46.179   7.220  12.260  0.00  0.00    +0.000 C 
ATOM      2  C   UNL     1      46.224   8.673  11.790  0.00  0.00    +0.000 C 
ATOM      3  C   UNL     1      45.537   8.332  13.068  0.00  0.00    +0.000 C 
ENDROOT
BRANCH   1   4
ATOM      4  C   UNL     1      45.279   6.297  11.447  0.00  0.00    +0.000 A 
ATOM      5  C   UNL     1      43.902   6.236  11.660  0.00  0.00    +0.000 A 
ATOM      6  N   UNL     1      43.056   5.387  11.035  0.00  0.00    +0.000 NA
ATOM      7  C   UNL     1      43.608   4.535  10.141  0.00  0.00    +0.000 A 
ATOM      8  C   UNL     1      44.964   4.488   9.816  0.00  0.00    +0.000 A 
ATOM      9  C   UNL     1      45.785   5.416  10.480  0.00  0.00    +0.000 A 
BRANCH   8  10
ATOM     10  C   UNL     1      45.517   3.497   8.876  0.00  0.00    +0.000 A 
ATOM     11  C   UNL     1      46.151   3.869   7.688  0.00  0.00    +0.000 A 
ATOM     12  C   UNL     1      46.686   2.888   6.874  0.00  0.00    +0.000 A 
ATOM     13  N   UNL     1      46.615   1.576   7.171  0.00  0.00    +0.000 NA
ATOM     14  N   UNL     1      46.000   1.190   8.313  0.00  0.00    +0.000 NA
ATOM     15  C   UNL     1      45.476   2.129   9.134  0.00  0.00    +0.000 A 
ENDBRANCH   8  10
ENDBRANCH   1   4
BRANCH   1  16
ATOM     16  N   UNL     1      47.488   6.627  12.609  0.00  0.00    +0.000 N 
ATOM     17  H   UNL     1      47.799   5.908  11.949  0.00  0.00    +0.000 HD
BRANCH  16  25
ATOM     18 CL   UNL     1      46.986   3.558  16.736  0.00  0.00    +0.000 Cl
ATOM     19  C   UNL     1      47.687   4.908  15.928  0.00  0.00    +0.000 A 
ATOM     20  C   UNL     1      48.538   5.755  16.632  0.00  0.00    +0.000 A 
ATOM     21  C   UNL     1      49.086   6.862  15.985  0.00  0.00    +0.000 A 
ATOM     22 CL   UNL     1      50.140   7.878  16.907  0.00  0.00    +0.000 Cl
ATOM     23  C   UNL     1      48.766   7.124  14.644  0.00  0.00    +0.000 A 
ATOM     24 CL   UNL     1      49.447   8.499  13.821  0.00  0.00    +0.000 Cl
ATOM     25  C   UNL     1      47.896   6.265  13.924  0.00  0.00    +0.000 A 
ATOM     26  C   UNL     1      47.372   5.153  14.591  0.00  0.00    +0.000 A 
ENDBRANCH  16  25
ENDBRANCH   1  16
TORSDOF 4
ENDMDL
MODEL 5
REMARK VINA RESULT:    -6.445      2.581      4.705
REMARK INTER + INTRA:          -8.599
REMARK INTER:                  -7.745
REMARK INTRA:                  -0.854
REMARK UNBOUND:                -0.646
REMARK  Name = 
REMARK  4 active torsions:
REMARK  status: ('A' for Active; 'I' for Inactive)
REMARK    1  A    between atoms: C_8  and  N_9
REMARK    2  A    between atoms: N_9  and  C_10
REMARK    3  A    between atoms: C_10  and  C_11
REMARK    4  A    between atoms: C_15  and  C_16
REMARK                            x       y       z     vdW  Elec       q    Type
REMARK                         _______ _______ _______ _____ _____    ______ ____
ROOT
ATOM      1  C   UNL     1      48.310   7.929  12.820  0.00  0.00    +0.000 C 
ATOM      2  C   UNL     1      49.315   8.654  11.924  0.00  0.00    +0.000 C 
ATOM      3  C   UNL     1      48.763   9.345  13.124  0.00  0.00    +0.000 C 
ENDROOT
BRANCH   1   4
ATOM      4  C   UNL     1      46.927   7.721  12.216  0.00  0.00    +0.000 A 
ATOM      5  C   UNL     1      45.949   8.715  12.253  0.00  0.00    +0.000 A 
ATOM      6  N   UNL     1      44.679   8.573  11.810  0.00  0.00    +0.000 NA
ATOM      7  C   UNL     1      44.351   7.365  11.300  0.00  0.00    +0.000 A 
ATOM      8  C   UNL     1      45.223   6.282  11.187  0.00  0.00    +0.000 A 
ATOM      9  C   UNL     1      46.536   6.503  11.639  0.00  0.00    +0.000 A 
BRANCH   8  10
ATOM     10  C   UNL     1      44.791   4.969  10.676  0.00  0.00    +0.000 A 
ATOM     11  C   UNL     1      45.180   4.492   9.422  0.00  0.00    +0.000 A 
ATOM     12  C   UNL     1      44.774   3.232   9.024  0.00  0.00    +0.000 A 
ATOM     13  N   UNL     1      44.003   2.439   9.792  0.00  0.00    +0.000 NA
ATOM     14  N   UNL     1      43.606   2.881  11.008  0.00  0.00    +0.000 NA
ATOM     15  C   UNL     1      43.997   4.106  11.428  0.00  0.00    +0.000 A 
ENDBRANCH   8  10
ENDBRANCH   1   4
BRANCH   1  16
ATOM     16  N   UNL     1      48.838   6.746  13.534  0.00  0.00    +0.000 N 
ATOM     17  H   UNL     1      48.708   5.869  13.021  0.00  0.00    +0.000 HD
BRANCH  16  25
ATOM     18 CL   UNL     1      50.187   7.827  18.403  0.00  0.00    +0.000 Cl
ATOM     19  C   UNL     1      49.308   6.905  17.244  0.00  0.00    +0.000 A 
ATOM     20  C   UNL     1      48.578   5.799  17.667  0.00  0.00    +0.000 A 
ATOM     21  C   UNL     1      47.887   5.038  16.725  0.00  0.00    +0.000 A 
ATOM     22 CL   UNL     1      46.992   3.676  17.307  0.00  0.00    +0.000 Cl
ATOM     23  C   UNL     1      47.945   5.378  15.364  0.00  0.00    +0.000 A 
ATOM     24 CL   UNL     1      47.083   4.441  14.177  0.00  0.00    +0.000 Cl
ATOM     25  C   UNL     1      48.692   6.503  14.928  0.00  0.00    +0.000 A 
ATOM     26  C   UNL     1      49.363   7.259  15.895  0.00  0.00    +0.000 A 
ENDBRANCH  16  25
ENDBRANCH   1  16
TORSDOF 4
ENDMDL
MODEL 6
REMARK VINA RESULT:    -6.202      3.906      6.871
REMARK INTER + INTRA:          -8.299
REMARK INTER:                  -7.716
REMARK INTRA:                  -0.583
REMARK UNBOUND:                -0.646
REMARK  Name = 
REMARK  4 active torsions:
REMARK  status: ('A' for Active; 'I' for Inactive)
REMARK    1  A    between atoms: C_8  and  N_9
REMARK    2  A    between atoms: N_9  and  C_10
REMARK    3  A    between atoms: C_10  and  C_11
REMARK    4  A    between atoms: C_15  and  C_16
REMARK                            x       y       z     vdW  Elec       q    Type
REMARK                         _______ _______ _______ _____ _____    ______ ____
ROOT
ATOM      1  C   UNL     1      47.796   4.307  17.270  0.00  0.00    +0.000 C 
ATOM      2  C   UNL     1      47.690   2.790  17.421  0.00  0.00    +0.000 C 
ATOM      3  C   UNL     1      49.015   3.456  17.574  0.00  0.00    +0.000 C 
ENDROOT
BRANCH   1   4
ATOM      4  C   UNL     1      47.613   4.838  15.854  0.00  0.00    +0.000 A 
ATOM      5  C   UNL     1      48.429   5.841  15.332  0.00  0.00    +0.000 A 
ATOM      6  N   UNL     1      48.274   6.415  14.117  0.00  0.00    +0.000 NA
ATOM      7  C   UNL     1      47.240   5.970  13.368  0.00  0.00    +0.000 A 
ATOM      8  C   UNL     1      46.350   4.967  13.751  0.00  0.00    +0.000 A 
ATOM      9  C   UNL     1      46.582   4.392  15.013  0.00  0.00    +0.000 A 
BRANCH   8  10
ATOM     10  C   UNL     1      45.205   4.565  12.915  0.00  0.00    +0.000 A 
ATOM     11  C   UNL     1      45.248   3.447  12.079  0.00  0.00    +0.000 A 
ATOM     12  C   UNL     1      44.121   3.102  11.356  0.00  0.00    +0.000 A 
ATOM     13  N   UNL     1      42.976   3.808  11.412  0.00  0.00    +0.000 NA
ATOM     14  N   UNL     1      42.910   4.900  12.210  0.00  0.00    +0.000 NA
ATOM     15  C   UNL     1      43.994   5.254  12.937  0.00  0.00    +0.000 A 
ENDBRANCH   8  10
ENDBRANCH   1   4
BRANCH   1  16
ATOM     16  N   UNL     1      47.090   5.096  18.303  0.00  0.00    +0.000 N 
ATOM     17  H   UNL     1      46.116   5.303  18.063  0.00  0.00    +0.000 HD
BRANCH  16  25
ATOM     18 CL   UNL     1      48.207  10.137  18.503  0.00  0.00    +0.000 Cl
ATOM     19  C   UNL     1      48.260   8.546  19.162  0.00  0.00    +0.000 A 
ATOM     20  C   UNL     1      49.003   8.312  20.314  0.00  0.00    +0.000 A 
ATOM     21  C   UNL     1      49.067   7.019  20.833  0.00  0.00    +0.000 A 
ATOM     22 CL   UNL     1      50.002   6.786  22.270  0.00  0.00    +0.000 Cl
ATOM     23  C   UNL     1      48.401   5.966  20.186  0.00  0.00    +0.000 A 
ATOM     24 CL   UNL     1      48.466   4.348  20.825  0.00  0.00    +0.000 Cl
ATOM     25  C   UNL     1      47.645   6.200  19.008  0.00  0.00    +0.000 A 
ATOM     26  C   UNL     1      47.584   7.509  18.517  0.00  0.00    +0.000 A 
ENDBRANCH  16  25
ENDBRANCH   1  16
TORSDOF 4
ENDMDL
MODEL 7
REMARK VINA RESULT:    -6.078      4.007      5.692
REMARK INTER + INTRA:          -8.146
REMARK INTER:                  -7.374
REMARK INTRA:                  -0.772
REMARK UNBOUND:                -0.646
REMARK  Name = 
REMARK  4 active torsions:
REMARK  status: ('A' for Active; 'I' for Inactive)
REMARK    1  A    between atoms: C_8  and  N_9
REMARK    2  A    between atoms: N_9  and  C_10
REMARK    3  A    between atoms: C_10  and  C_11
REMARK    4  A    between atoms: C_15  and  C_16
REMARK                            x       y       z     vdW  Elec       q    Type
REMARK                         _______ _______ _______ _____ _____    ______ ____
ROOT
ATOM      1  C   UNL     1      49.753   8.063  12.453  0.00  0.00    +0.000 C 
ATOM      2  C   UNL     1      50.394   7.573  11.155  0.00  0.00    +0.000 C 
ATOM      3  C   UNL     1      50.450   9.021  11.506  0.00  0.00    +0.000 C 
ENDROOT
BRANCH   1   4
ATOM      4  C   UNL     1      48.229   8.043  12.477  0.00  0.00    +0.000 A 
ATOM      5  C   UNL     1      47.478   9.217  12.523  0.00  0.00    +0.000 A 
ATOM      6  N   UNL     1      46.131   9.274  12.627  0.00  0.00    +0.000 NA
ATOM      7  C   UNL     1      45.481   8.090  12.696  0.00  0.00    +0.000 A 
ATOM      8  C   UNL     1      46.095   6.838  12.650  0.00  0.00    +0.000 A 
ATOM      9  C   UNL     1      47.495   6.848  12.513  0.00  0.00    +0.000 A 
BRANCH   8  10
ATOM     10  C   UNL     1      45.339   5.581  12.789  0.00  0.00    +0.000 A 
ATOM     11  C   UNL     1      43.947   5.557  12.899  0.00  0.00    +0.000 A 
ATOM     12  C   UNL     1      43.298   4.338  12.982  0.00  0.00    +0.000 A 
ATOM     13  N   UNL     1      43.954   3.163  12.972  0.00  0.00    +0.000 NA
ATOM     14  N   UNL     1      45.304   3.159  12.873  0.00  0.00    +0.000 NA
ATOM     15  C   UNL     1      45.964   4.337  12.780  0.00  0.00    +0.000 A 
ENDBRANCH   8  10
ENDBRANCH   1   4
BRANCH   1  16
ATOM     16  N   UNL     1      50.380   7.563  13.696  0.00  0.00    +0.000 N 
ATOM     17  H   UNL     1      50.783   6.626  13.601  0.00  0.00    +0.000 HD
BRANCH  16  25
ATOM     18 CL   UNL     1      48.003   5.479  17.783  0.00  0.00    +0.000 Cl
ATOM     19  C   UNL     1      48.667   6.827  16.942  0.00  0.00    +0.000 A 
ATOM     20  C   UNL     1      48.513   8.104  17.473  0.00  0.00    +0.000 A 
ATOM     21  C   UNL     1      49.029   9.198  16.779  0.00  0.00    +0.000 A 
ATOM     22 CL   UNL     1      48.813  10.761  17.489  0.00  0.00    +0.000 Cl
ATOM     23  C   UNL     1      49.679   9.010  15.549  0.00  0.00    +0.000 A 
ATOM     24 CL   UNL     1      50.332  10.365  14.674  0.00  0.00    +0.000 Cl
ATOM     25  C   UNL     1      49.834   7.710  15.001  0.00  0.00    +0.000 A 
ATOM     26  C   UNL     1      49.322   6.628  15.725  0.00  0.00    +0.000 A 
ENDBRANCH  16  25
ENDBRANCH   1  16
TORSDOF 4
ENDMDL
MODEL 8
REMARK VINA RESULT:    -6.064      3.965      6.803
REMARK INTER + INTRA:          -8.129
REMARK INTER:                  -7.750
REMARK INTRA:                  -0.378
REMARK UNBOUND:                -0.646
REMARK  Name = 
REMARK  4 active torsions:
REMARK  status: ('A' for Active; 'I' for Inactive)
REMARK    1  A    between atoms: C_8  and  N_9
REMARK    2  A    between atoms: N_9  and  C_10
REMARK    3  A    between atoms: C_10  and  C_11
REMARK    4  A    between atoms: C_15  and  C_16
REMARK                            x       y       z     vdW  Elec       q    Type
REMARK                         _______ _______ _______ _____ _____    ______ ____
ROOT
ATOM      1  C   UNL     1      48.150   4.255  16.841  0.00  0.00    +0.000 C 
ATOM      2  C   UNL     1      47.190   3.189  17.368  0.00  0.00    +0.000 C 
ATOM      3  C   UNL     1      48.514   2.782  16.817  0.00  0.00    +0.000 C 
ENDROOT
BRANCH   1   4
ATOM      4  C   UNL     1      47.733   4.923  15.536  0.00  0.00    +0.000 A 
ATOM      5  C   UNL     1      48.338   6.095  15.082  0.00  0.00    +0.000 A 
ATOM      6  N   UNL     1      47.967   6.784  13.980  0.00  0.00    +0.000 NA
ATOM      7  C   UNL     1      46.924   6.285  13.280  0.00  0.00    +0.000 A 
ATOM      8  C   UNL     1      46.229   5.119  13.603  0.00  0.00    +0.000 A 
ATOM      9  C   UNL     1      46.682   4.434  14.745  0.00  0.00    +0.000 A 
BRANCH   8  10
ATOM     10  C   UNL     1      45.060   4.656  12.835  0.00  0.00    +0.000 A 
ATOM     11  C   UNL     1      43.865   5.377  12.788  0.00  0.00    +0.000 A 
ATOM     12  C   UNL     1      42.823   4.905  12.011  0.00  0.00    +0.000 A 
ATOM     13  N   UNL     1      42.904   3.766  11.299  0.00  0.00    +0.000 NA
ATOM     14  N   UNL     1      44.049   3.044  11.334  0.00  0.00    +0.000 NA
ATOM     15  C   UNL     1      45.089   3.488  12.077  0.00  0.00    +0.000 A 
ENDBRANCH   8  10
ENDBRANCH   1   4
BRANCH   1  16
ATOM     16  N   UNL     1      48.671   5.195  17.857  0.00  0.00    +0.000 N 
ATOM     17  H   UNL     1      48.307   6.147  17.756  0.00  0.00    +0.000 HD
BRANCH  16  25
ATOM     18 CL   UNL     1      53.696   5.655  16.746  0.00  0.00    +0.000 Cl
ATOM     19  C   UNL     1      52.409   5.403  17.861  0.00  0.00    +0.000 A 
ATOM     20  C   UNL     1      52.705   5.083  19.183  0.00  0.00    +0.000 A 
ATOM     21  C   UNL     1      51.662   4.854  20.080  0.00  0.00    +0.000 A 
ATOM     22 CL   UNL     1      52.090   4.464  21.710  0.00  0.00    +0.000 Cl
ATOM     23  C   UNL     1      50.330   4.930  19.645  0.00  0.00    +0.000 A 
ATOM     24 CL   UNL     1      49.017   4.653  20.755  0.00  0.00    +0.000 Cl
ATOM     25  C   UNL     1      50.023   5.252  18.298  0.00  0.00    +0.000 A 
ATOM     26  C   UNL     1      51.087   5.493  17.422  0.00  0.00    +0.000 A 
ENDBRANCH  16  25
ENDBRANCH   1  16
TORSDOF 4
ENDMDL
MODEL 9
REMARK VINA RESULT:    -5.911      3.300      5.295
REMARK INTER + INTRA:          -7.940
REMARK INTER:                  -7.622
REMARK INTRA:                  -0.318
REMARK UNBOUND:                -0.646
REMARK  Name = 
REMARK  4 active torsions:
REMARK  status: ('A' for Active; 'I' for Inactive)
REMARK    1  A    between atoms: C_8  and  N_9
REMARK    2  A    between atoms: N_9  and  C_10
REMARK    3  A    between atoms: C_10  and  C_11
REMARK    4  A    between atoms: C_15  and  C_16
REMARK                            x       y       z     vdW  Elec       q    Type
REMARK                         _______ _______ _______ _____ _____    ______ ____
ROOT
ATOM      1  C   UNL     1      48.511   7.935  13.875  0.00  0.00    +0.000 C 
ATOM      2  C   UNL     1      49.727   7.294  13.208  0.00  0.00    +0.000 C 
ATOM      3  C   UNL     1      49.628   8.780  13.291  0.00  0.00    +0.000 C 
ENDROOT
BRANCH   1   4
ATOM      4  C   UNL     1      47.204   7.819  13.100  0.00  0.00    +0.000 A 
ATOM      5  C   UNL     1      46.489   8.944  12.689  0.00  0.00    +0.000 A 
ATOM      6  N   UNL     1      45.287   8.917  12.071  0.00  0.00    +0.000 NA
ATOM      7  C   UNL     1      44.751   7.696  11.847  0.00  0.00    +0.000 A 
ATOM      8  C   UNL     1      45.353   6.485  12.189  0.00  0.00    +0.000 A 
ATOM      9  C   UNL     1      46.614   6.581  12.804  0.00  0.00    +0.000 A 
BRANCH   8  10
ATOM     10  C   UNL     1      44.694   5.185  11.973  0.00  0.00    +0.000 A 
ATOM     11  C   UNL     1      44.562   4.618  10.703  0.00  0.00    +0.000 A 
ATOM     12  C   UNL     1      43.971   3.374  10.577  0.00  0.00    +0.000 A 
ATOM     13  N   UNL     1      43.502   2.682  11.632  0.00  0.00    +0.000 NA
ATOM     14  N   UNL     1      43.611   3.213  12.873  0.00  0.00    +0.000 NA
ATOM     15  C   UNL     1      44.194   4.424  13.026  0.00  0.00    +0.000 A 
ENDBRANCH   8  10
ENDBRANCH   1   4
BRANCH   1  16
ATOM     16  N   UNL     1      48.374   7.676  15.325  0.00  0.00    +0.000 N 
ATOM     17  H   UNL     1      48.560   8.499  15.905  0.00  0.00    +0.000 HD
BRANCH  16  25
ATOM     18 CL   UNL     1      47.480   2.923  17.145  0.00  0.00    +0.000 Cl
ATOM     19  C   UNL     1      48.496   4.297  16.931  0.00  0.00    +0.000 A 
ATOM     20  C   UNL     1      49.733   4.334  17.567  0.00  0.00    +0.000 A 
ATOM     21  C   UNL     1      50.545   5.457  17.414  0.00  0.00    +0.000 A 
ATOM     22 CL   UNL     1      52.075   5.446  18.224  0.00  0.00    +0.000 Cl
ATOM     23  C   UNL     1      50.108   6.543  16.641  0.00  0.00    +0.000 A 
ATOM     24 CL   UNL     1      51.113   7.950  16.436  0.00  0.00    +0.000 Cl
ATOM     25  C   UNL     1      48.846   6.512  15.994  0.00  0.00    +0.000 A 
ATOM     26  C   UNL     1      48.057   5.367  16.150  0.00  0.00    +0.000 A 
ENDBRANCH  16  25
ENDBRANCH   1  16
TORSDOF 4
ENDMDL
