MODEL 1
REMARK VINA RESULT:    -8.135      0.000      0.000
REMARK INTER + INTRA:         -12.179
REMARK INTER:                 -10.988
REMARK INTRA:                  -1.191
REMARK UNBOUND:                -1.191
REMARK  Name = 
REMARK  7 active torsions:
REMARK  status: ('A' for Active; 'I' for Inactive)
REMARK    1  A    between atoms: C_1  and  C_2
REMARK    2  A    between atoms: C_2  and  N_3
REMARK    3  A    between atoms: C_2  and  C_16
REMARK    4  A    between atoms: C_4  and  C_6
REMARK    5  A    between atoms: C_19  and  C_20
REMARK    6  A    between atoms: C_20  and  N_21
REMARK    7  A    between atoms: C_22  and  C_24
REMARK                            x       y       z     vdW  Elec       q    Type
REMARK                         _______ _______ _______ _____ _____    ______ ____
ROOT
ATOM      1  C   UNL     1      47.675   8.565  13.832  0.00  0.00    +0.000 C 
ATOM      2  C   UNL     1      48.049   7.105  14.117  0.00  0.00    +0.000 C 
ENDROOT
BRANCH   2   3
ATOM      3  C   UNL     1      47.101   6.166  13.377  0.00  0.00    +0.000 A 
ATOM      4  C   UNL     1      46.514   6.545  12.163  0.00  0.00    +0.000 A 
ATOM      5  C   UNL     1      45.676   5.662  11.471  0.00  0.00    +0.000 A 
ATOM      6  C   UNL     1      45.403   4.384  11.980  0.00  0.00    +0.000 A 
ATOM      7  C   UNL     1      45.990   4.003  13.191  0.00  0.00    +0.000 A 
ATOM      8  C   UNL     1      46.823   4.884  13.883  0.00  0.00    +0.000 A 
BRANCH   6   9
ATOM      9  C   UNL     1      44.528   3.420  11.221  0.00  0.00    +0.000 C 
BRANCH   9  10
ATOM     10  N   UNL     1      45.250   2.797  10.136  0.00  0.00    +0.000 N 
ATOM     11  C   UNL     1      45.149   3.295   8.854  0.00  0.00    +0.000 C 
ATOM     12  O   UNL     1      44.463   4.266   8.561  0.00  0.00    +0.000 OA
ATOM     13  H   UNL     1      45.986   2.146  10.373  0.00  0.00    +0.000 HD
BRANCH  11  14
ATOM     14  C   UNL     1      45.941   2.604   7.810  0.00  0.00    +0.000 A 
ATOM     15  C   UNL     1      46.356   3.226   6.630  0.00  0.00    +0.000 A 
ATOM     16  C   UNL     1      47.126   2.511   5.714  0.00  0.00    +0.000 A 
ATOM     17  C   UNL     1      47.457   1.198   6.010  0.00  0.00    +0.000 A 
ATOM     18  N   UNL     1      47.078   0.568   7.143  0.00  0.00    +0.000 NA
ATOM     19  C   UNL     1      46.339   1.289   8.025  0.00  0.00    +0.000 A 
ENDBRANCH  11  14
ENDBRANCH   9  10
ENDBRANCH   6   9
ENDBRANCH   2   3
BRANCH   2  20
ATOM     20  N   UNL     1      48.019   6.778  15.536  0.00  0.00    +0.000 N 
ATOM     21  C   UNL     1      49.133   6.457  16.267  0.00  0.00    +0.000 C 
ATOM     22  O   UNL     1      50.265   6.464  15.793  0.00  0.00    +0.000 OA
ATOM     23  H   UNL     1      47.121   6.459  15.889  0.00  0.00    +0.000 HD
BRANCH  21  24
ATOM     24  C   UNL     1      48.911   6.167  17.690  0.00  0.00    +0.000 A 
ATOM     25  C   UNL     1      49.241   4.916  18.194  0.00  0.00    +0.000 A 
ATOM     26  S   UNL     1      48.935   4.749  19.863  0.00  0.00    +0.000 S 
ATOM     27  C   UNL     1      48.312   6.329  19.963  0.00  0.00    +0.000 A 
ATOM     28  N   UNL     1      47.825   6.816  21.135  0.00  0.00    +0.000 NA
ATOM     29  C   UNL     1      47.353   8.014  21.059  0.00  0.00    +0.000 A 
ATOM     30  N   UNL     1      47.337   8.778  19.920  0.00  0.00    +0.000 N 
ATOM     31  C   UNL     1      47.858   8.344  18.724  0.00  0.00    +0.000 A 
ATOM     32  O   UNL     1      47.898   9.077  17.742  0.00  0.00    +0.000 OA
ATOM     33  C   UNL     1      48.368   6.987  18.747  0.00  0.00    +0.000 A 
ATOM     34  H   UNL     1      46.968   9.717  19.934  0.00  0.00    +0.000 HD
ENDBRANCH  21  24
ENDBRANCH   2  20
TORSDOF 6
ENDMDL
MODEL 2
REMARK VINA RESULT:    -7.997      1.501      2.112
REMARK INTER + INTRA:         -11.993
REMARK INTER:                 -10.921
REMARK INTRA:                  -1.072
REMARK UNBOUND:                -1.191
REMARK  Name = 
REMARK  7 active torsions:
REMARK  status: ('A' for Active; 'I' for Inactive)
REMARK    1  A    between atoms: C_1  and  C_2
REMARK    2  A    between atoms: C_2  and  N_3
REMARK    3  A    between atoms: C_2  and  C_16
REMARK    4  A    between atoms: C_4  and  C_6
REMARK    5  A    between atoms: C_19  and  C_20
REMARK    6  A    between atoms: C_20  and  N_21
REMARK    7  A    between atoms: C_22  and  C_24
REMARK                            x       y       z     vdW  Elec       q    Type
REMARK                         _______ _______ _______ _____ _____    ______ ____
ROOT
ATOM      1  C   UNL     1      47.324   9.028  13.374  0.00  0.00    +0.000 C 
ATOM      2  C   UNL     1      47.871   7.623  13.658  0.00  0.00    +0.000 C 
ENDROOT
BRANCH   2   3
ATOM      3  C   UNL     1      46.970   6.570  13.022  0.00  0.00    +0.000 A 
ATOM      4  C   UNL     1      46.248   6.850  11.855  0.00  0.00    +0.000 A 
ATOM      5  C   UNL     1      45.454   5.864  11.255  0.00  0.00    +0.000 A 
ATOM      6  C   UNL     1      45.361   4.581  11.811  0.00  0.00    +0.000 A 
ATOM      7  C   UNL     1      46.083   4.299  12.976  0.00  0.00    +0.000 A 
ATOM      8  C   UNL     1      46.872   5.282  13.576  0.00  0.00    +0.000 A 
BRANCH   6   9
ATOM      9  C   UNL     1      44.532   3.509  11.151  0.00  0.00    +0.000 C 
BRANCH   9  10
ATOM     10  N   UNL     1      45.264   2.862  10.085  0.00  0.00    +0.000 N 
ATOM     11  C   UNL     1      45.141   3.305   8.785  0.00  0.00    +0.000 C 
ATOM     12  O   UNL     1      44.428   4.246   8.460  0.00  0.00    +0.000 OA
ATOM     13  H   UNL     1      46.018   2.241  10.343  0.00  0.00    +0.000 HD
BRANCH  11  14
ATOM     14  C   UNL     1      45.944   2.594   7.764  0.00  0.00    +0.000 A 
ATOM     15  C   UNL     1      46.376   3.195   6.579  0.00  0.00    +0.000 A 
ATOM     16  C   UNL     1      47.156   2.461   5.686  0.00  0.00    +0.000 A 
ATOM     17  C   UNL     1      47.478   1.152   6.008  0.00  0.00    +0.000 A 
ATOM     18  N   UNL     1      47.082   0.543   7.147  0.00  0.00    +0.000 NA
ATOM     19  C   UNL     1      46.334   1.282   8.007  0.00  0.00    +0.000 A 
ENDBRANCH  11  14
ENDBRANCH   9  10
ENDBRANCH   6   9
ENDBRANCH   2   3
BRANCH   2  20
ATOM     20  N   UNL     1      47.992   7.338  15.082  0.00  0.00    +0.000 N 
ATOM     21  C   UNL     1      49.174   7.020  15.697  0.00  0.00    +0.000 C 
ATOM     22  O   UNL     1      50.248   6.994  15.103  0.00  0.00    +0.000 OA
ATOM     23  H   UNL     1      47.134   7.045  15.540  0.00  0.00    +0.000 HD
BRANCH  21  24
ATOM     24  C   UNL     1      49.105   6.776  17.144  0.00  0.00    +0.000 A 
ATOM     25  C   UNL     1      49.237   7.840  18.026  0.00  0.00    +0.000 A 
ATOM     26  S   UNL     1      49.119   7.388  19.665  0.00  0.00    +0.000 S 
ATOM     27  C   UNL     1      48.929   5.747  19.256  0.00  0.00    +0.000 A 
ATOM     28  N   UNL     1      48.813   4.796  20.220  0.00  0.00    +0.000 NA
ATOM     29  C   UNL     1      48.710   3.591  19.769  0.00  0.00    +0.000 A 
ATOM     30  N   UNL     1      48.697   3.252  18.441  0.00  0.00    +0.000 N 
ATOM     31  C   UNL     1      48.766   4.184  17.432  0.00  0.00    +0.000 A 
ATOM     32  O   UNL     1      48.676   3.857  16.253  0.00  0.00    +0.000 OA
ATOM     33  C   UNL     1      48.921   5.552  17.887  0.00  0.00    +0.000 A 
ATOM     34  H   UNL     1      48.595   2.290  18.155  0.00  0.00    +0.000 HD
ENDBRANCH  21  24
ENDBRANCH   2  20
TORSDOF 6
ENDMDL
MODEL 3
REMARK VINA RESULT:    -7.770      2.978      4.397
REMARK INTER + INTRA:         -11.686
REMARK INTER:                 -10.390
REMARK INTRA:                  -1.296
REMARK UNBOUND:                -1.191
REMARK  Name = 
REMARK  7 active torsions:
REMARK  status: ('A' for Active; 'I' for Inactive)
REMARK    1  A    between atoms: C_1  and  C_2
REMARK    2  A    between atoms: C_2  and  N_3
REMARK    3  A    between atoms: C_2  and  C_16
REMARK    4  A    between atoms: C_4  and  C_6
REMARK    5  A    between atoms: C_19  and  C_20
REMARK    6  A    between atoms: C_20  and  N_21
REMARK    7  A    between atoms: C_22  and  C_24
REMARK                            x       y       z     vdW  Elec       q    Type
REMARK                         _______ _______ _______ _____ _____    ______ ____
ROOT
ATOM      1  C   UNL     1      47.546   3.832  15.579  0.00  0.00    +0.000 C 
ATOM      2  C   UNL     1      47.183   5.174  14.932  0.00  0.00    +0.000 C 
ENDROOT
BRANCH   2   3
ATOM      3  C   UNL     1      46.280   4.948  13.724  0.00  0.00    +0.000 A 
ATOM      4  C   UNL     1      45.685   6.026  13.057  0.00  0.00    +0.000 A 
ATOM      5  C   UNL     1      44.890   5.812  11.924  0.00  0.00    +0.000 A 
ATOM      6  C   UNL     1      44.669   4.516  11.437  0.00  0.00    +0.000 A 
ATOM      7  C   UNL     1      45.265   3.438  12.100  0.00  0.00    +0.000 A 
ATOM      8  C   UNL     1      46.055   3.651  13.231  0.00  0.00    +0.000 A 
BRANCH   6   9
ATOM      9  C   UNL     1      43.840   4.286  10.200  0.00  0.00    +0.000 C 
BRANCH   9  10
ATOM     10  N   UNL     1      44.512   3.403   9.274  0.00  0.00    +0.000 N 
ATOM     11  C   UNL     1      45.502   3.885   8.444  0.00  0.00    +0.000 C 
ATOM     12  O   UNL     1      45.864   5.055   8.437  0.00  0.00    +0.000 OA
ATOM     13  H   UNL     1      44.399   2.407   9.407  0.00  0.00    +0.000 HD
BRANCH  11  14
ATOM     14  C   UNL     1      46.148   2.903   7.543  0.00  0.00    +0.000 A 
ATOM     15  C   UNL     1      46.585   3.221   6.255  0.00  0.00    +0.000 A 
ATOM     16  C   UNL     1      47.213   2.242   5.485  0.00  0.00    +0.000 A 
ATOM     17  C   UNL     1      47.384   0.979   6.030  0.00  0.00    +0.000 A 
ATOM     18  N   UNL     1      46.980   0.640   7.273  0.00  0.00    +0.000 NA
ATOM     19  C   UNL     1      46.382   1.613   8.008  0.00  0.00    +0.000 A 
ENDBRANCH  11  14
ENDBRANCH   9  10
ENDBRANCH   6   9
ENDBRANCH   2   3
BRANCH   2  20
ATOM     20  N   UNL     1      48.352   5.934  14.508  0.00  0.00    +0.000 N 
ATOM     21  C   UNL     1      48.964   6.884  15.282  0.00  0.00    +0.000 C 
ATOM     22  O   UNL     1      48.604   7.145  16.427  0.00  0.00    +0.000 OA
ATOM     23  H   UNL     1      48.493   5.989  13.503  0.00  0.00    +0.000 HD
BRANCH  21  24
ATOM     24  C   UNL     1      50.139   7.540  14.693  0.00  0.00    +0.000 A 
ATOM     25  C   UNL     1      51.358   7.487  15.354  0.00  0.00    +0.000 A 
ATOM     26  S   UNL     1      52.619   8.285  14.530  0.00  0.00    +0.000 S 
ATOM     27  C   UNL     1      51.571   8.765  13.279  0.00  0.00    +0.000 A 
ATOM     28  N   UNL     1      52.019   9.530  12.248  0.00  0.00    +0.000 NA
ATOM     29  C   UNL     1      51.110   9.851  11.389  0.00  0.00    +0.000 A 
ATOM     30  N   UNL     1      49.797   9.462  11.458  0.00  0.00    +0.000 N 
ATOM     31  C   UNL     1      49.310   8.652  12.458  0.00  0.00    +0.000 A 
ATOM     32  O   UNL     1      48.149   8.259  12.452  0.00  0.00    +0.000 OA
ATOM     33  C   UNL     1      50.285   8.295  13.470  0.00  0.00    +0.000 A 
ATOM     34  H   UNL     1      49.140   9.733  10.742  0.00  0.00    +0.000 HD
ENDBRANCH  21  24
ENDBRANCH   2  20
TORSDOF 6
ENDMDL
MODEL 4
REMARK VINA RESULT:    -7.121      3.956      9.054
REMARK INTER + INTRA:         -10.809
REMARK INTER:                  -9.630
REMARK INTRA:                  -1.180
REMARK UNBOUND:                -1.191
REMARK  Name = 
REMARK  7 active torsions:
REMARK  status: ('A' for Active; 'I' for Inactive)
REMARK    1  A    between atoms: C_1  and  C_2
REMARK    2  A    between atoms: C_2  and  N_3
REMARK    3  A    between atoms: C_2  and  C_16
REMARK    4  A    between atoms: C_4  and  C_6
REMARK    5  A    between atoms: C_19  and  C_20
REMARK    6  A    between atoms: C_20  and  N_21
REMARK    7  A    between atoms: C_22  and  C_24
REMARK                            x       y       z     vdW  Elec       q    Type
REMARK                         _______ _______ _______ _____ _____    ______ ____
ROOT
ATOM      1  C   UNL     1      49.788   8.083  11.698  0.00  0.00    +0.000 C 
ATOM      2  C   UNL     1      48.541   7.694  12.503  0.00  0.00    +0.000 C 
ENDROOT
BRANCH   2   3
ATOM      3  C   UNL     1      48.945   7.181  13.881  0.00  0.00    +0.000 A 
ATOM      4  C   UNL     1      50.122   7.623  14.498  0.00  0.00    +0.000 A 
ATOM      5  C   UNL     1      50.465   7.177  15.781  0.00  0.00    +0.000 A 
ATOM      6  C   UNL     1      49.641   6.276  16.472  0.00  0.00    +0.000 A 
ATOM      7  C   UNL     1      48.464   5.836  15.858  0.00  0.00    +0.000 A 
ATOM      8  C   UNL     1      48.123   6.278  14.578  0.00  0.00    +0.000 A 
BRANCH   6   9
ATOM      9  C   UNL     1      49.991   5.819  17.864  0.00  0.00    +0.000 C 
BRANCH   9  10
ATOM     10  N   UNL     1      51.065   4.851  17.845  0.00  0.00    +0.000 N 
ATOM     11  C   UNL     1      50.786   3.501  17.827  0.00  0.00    +0.000 C 
ATOM     12  O   UNL     1      49.648   3.048  17.825  0.00  0.00    +0.000 OA
ATOM     13  H   UNL     1      51.994   5.183  17.622  0.00  0.00    +0.000 HD
BRANCH  11  14
ATOM     14  C   UNL     1      51.950   2.585  17.787  0.00  0.00    +0.000 A 
ATOM     15  C   UNL     1      51.842   1.229  17.468  0.00  0.00    +0.000 A 
ATOM     16  C   UNL     1      52.994   0.444  17.423  0.00  0.00    +0.000 A 
ATOM     17  C   UNL     1      54.214   1.042  17.698  0.00  0.00    +0.000 A 
ATOM     18  N   UNL     1      54.354   2.350  18.003  0.00  0.00    +0.000 NA
ATOM     19  C   UNL     1      53.219   3.096  18.029  0.00  0.00    +0.000 A 
ENDBRANCH  11  14
ENDBRANCH   9  10
ENDBRANCH   6   9
ENDBRANCH   2   3
BRANCH   2  20
ATOM     20  N   UNL     1      47.733   6.678  11.843  0.00  0.00    +0.000 N 
ATOM     21  C   UNL     1      46.409   6.841  11.533  0.00  0.00    +0.000 C 
ATOM     22  O   UNL     1      45.798   7.884  11.747  0.00  0.00    +0.000 OA
ATOM     23  H   UNL     1      48.079   5.726  11.927  0.00  0.00    +0.000 HD
BRANCH  21  24
ATOM     24  C   UNL     1      45.759   5.710  10.857  0.00  0.00    +0.000 A 
ATOM     25  C   UNL     1      45.880   5.573   9.480  0.00  0.00    +0.000 A 
ATOM     26  S   UNL     1      45.080   4.203   8.856  0.00  0.00    +0.000 S 
ATOM     27  C   UNL     1      44.507   3.768  10.398  0.00  0.00    +0.000 A 
ATOM     28  N   UNL     1      43.705   2.683  10.564  0.00  0.00    +0.000 NA
ATOM     29  C   UNL     1      43.316   2.489  11.779  0.00  0.00    +0.000 A 
ATOM     30  N   UNL     1      43.669   3.273  12.848  0.00  0.00    +0.000 N 
ATOM     31  C   UNL     1      44.513   4.353  12.734  0.00  0.00    +0.000 A 
ATOM     32  O   UNL     1      44.871   4.990  13.719  0.00  0.00    +0.000 OA
ATOM     33  C   UNL     1      44.948   4.636  11.380  0.00  0.00    +0.000 A 
ATOM     34  H   UNL     1      43.344   3.055  13.777  0.00  0.00    +0.000 HD
ENDBRANCH  21  24
ENDBRANCH   2  20
TORSDOF 6
ENDMDL
MODEL 5
REMARK VINA RESULT:    -7.087      3.975      5.751
REMARK INTER + INTRA:         -10.764
REMARK INTER:                  -9.625
REMARK INTRA:                  -1.139
REMARK UNBOUND:                -1.191
REMARK  Name = 
REMARK  7 active torsions:
REMARK  status: ('A' for Active; 'I' for Inactive)
REMARK    1  A    between atoms: C_1  and  C_2
REMARK    2  A    between atoms: C_2  and  N_3
REMARK    3  A    between atoms: C_2  and  C_16
REMARK    4  A    between atoms: C_4  and  C_6
REMARK    5  A    between atoms: C_19  and  C_20
REMARK    6  A    between atoms: C_20  and  N_21
REMARK    7  A    between atoms: C_22  and  C_24
REMARK                            x       y       z     vdW  Elec       q    Type
REMARK                         _______ _______ _______ _____ _____    ______ ____
ROOT
ATOM      1  C   UNL     1      47.816   2.867  17.855  0.00  0.00    +0.000 C 
ATOM      2  C   UNL     1      48.721   4.090  17.659  0.00  0.00    +0.000 C 
ENDROOT
BRANCH   2   3
ATOM      3  C   UNL     1      48.293   4.866  16.418  0.00  0.00    +0.000 A 
ATOM      4  C   UNL     1      48.869   6.105  16.109  0.00  0.00    +0.000 A 
ATOM      5  C   UNL     1      48.499   6.792  14.946  0.00  0.00    +0.000 A 
ATOM      6  C   UNL     1      47.543   6.259  14.070  0.00  0.00    +0.000 A 
ATOM      7  C   UNL     1      46.969   5.020  14.375  0.00  0.00    +0.000 A 
ATOM      8  C   UNL     1      47.335   4.336  15.536  0.00  0.00    +0.000 A 
BRANCH   6   9
ATOM      9  C   UNL     1      47.167   6.981  12.802  0.00  0.00    +0.000 C 
BRANCH   9  10
ATOM     10  N   UNL     1      46.797   6.052  11.759  0.00  0.00    +0.000 N 
ATOM     11  C   UNL     1      45.478   5.916  11.380  0.00  0.00    +0.000 C 
ATOM     12  O   UNL     1      44.563   6.553  11.887  0.00  0.00    +0.000 OA
ATOM     13  H   UNL     1      47.536   5.681  11.175  0.00  0.00    +0.000 HD
BRANCH  11  14
ATOM     14  C   UNL     1      45.197   4.955  10.288  0.00  0.00    +0.000 A 
ATOM     15  C   UNL     1      45.807   5.027   9.033  0.00  0.00    +0.000 A 
ATOM     16  C   UNL     1      45.508   4.062   8.072  0.00  0.00    +0.000 A 
ATOM     17  C   UNL     1      44.611   3.057   8.399  0.00  0.00    +0.000 A 
ATOM     18  N   UNL     1      44.009   2.954   9.604  0.00  0.00    +0.000 NA
ATOM     19  C   UNL     1      44.325   3.899  10.527  0.00  0.00    +0.000 A 
ENDBRANCH  11  14
ENDBRANCH   9  10
ENDBRANCH   6   9
ENDBRANCH   2   3
BRANCH   2  20
ATOM     20  N   UNL     1      50.129   3.739  17.530  0.00  0.00    +0.000 N 
ATOM     21  C   UNL     1      51.082   4.065  18.459  0.00  0.00    +0.000 C 
ATOM     22  O   UNL     1      50.820   4.645  19.508  0.00  0.00    +0.000 OA
ATOM     23  H   UNL     1      50.444   3.551  16.583  0.00  0.00    +0.000 HD
BRANCH  21  24
ATOM     24  C   UNL     1      52.450   3.617  18.165  0.00  0.00    +0.000 A 
ATOM     25  C   UNL     1      53.503   4.516  18.268  0.00  0.00    +0.000 A 
ATOM     26  S   UNL     1      55.023   3.834  17.908  0.00  0.00    +0.000 S 
ATOM     27  C   UNL     1      54.324   2.322  17.560  0.00  0.00    +0.000 A 
ATOM     28  N   UNL     1      55.087   1.279  17.142  0.00  0.00    +0.000 NA
ATOM     29  C   UNL     1      54.423   0.203  16.881  0.00  0.00    +0.000 A 
ATOM     30  N   UNL     1      53.064   0.071  17.016  0.00  0.00    +0.000 N 
ATOM     31  C   UNL     1      52.259   1.086  17.478  0.00  0.00    +0.000 A 
ATOM     32  O   UNL     1      51.058   0.915  17.660  0.00  0.00    +0.000 OA
ATOM     33  C   UNL     1      52.953   2.329  17.750  0.00  0.00    +0.000 A 
ATOM     34  H   UNL     1      52.608  -0.805  16.812  0.00  0.00    +0.000 HD
ENDBRANCH  21  24
ENDBRANCH   2  20
TORSDOF 6
ENDMDL
MODEL 6
REMARK VINA RESULT:    -6.971      3.989      6.139
REMARK INTER + INTRA:         -10.608
REMARK INTER:                  -9.710
REMARK INTRA:                  -0.897
REMARK UNBOUND:                -1.191
REMARK  Name = 
REMARK  7 active torsions:
REMARK  status: ('A' for Active; 'I' for Inactive)
REMARK    1  A    between atoms: C_1  and  C_2
REMARK    2  A    between atoms: C_2  and  N_3
REMARK    3  A    between atoms: C_2  and  C_16
REMARK    4  A    between atoms: C_4  and  C_6
REMARK    5  A    between atoms: C_19  and  C_20
REMARK    6  A    between atoms: C_20  and  N_21
REMARK    7  A    between atoms: C_22  and  C_24
REMARK                            x       y       z     vdW  Elec       q    Type
REMARK                         _______ _______ _______ _____ _____    ______ ____
ROOT
ATOM      1  C   UNL     1      48.483   7.093  14.456  0.00  0.00    +0.000 C 
ATOM      2  C   UNL     1      47.303   7.684  13.672  0.00  0.00    +0.000 C 
ENDROOT
BRANCH   2   3
ATOM      3  C   UNL     1      46.476   6.566  13.046  0.00  0.00    +0.000 A 
ATOM      4  C   UNL     1      45.467   6.850  12.117  0.00  0.00    +0.000 A 
ATOM      5  C   UNL     1      44.739   5.815  11.517  0.00  0.00    +0.000 A 
ATOM      6  C   UNL     1      45.001   4.475  11.835  0.00  0.00    +0.000 A 
ATOM      7  C   UNL     1      46.010   4.189  12.760  0.00  0.00    +0.000 A 
ATOM      8  C   UNL     1      46.734   5.220  13.362  0.00  0.00    +0.000 A 
BRANCH   6   9
ATOM      9  C   UNL     1      44.241   3.358  11.168  0.00  0.00    +0.000 C 
BRANCH   9  10
ATOM     10  N   UNL     1      45.023   2.744  10.119  0.00  0.00    +0.000 N 
ATOM     11  C   UNL     1      45.009   3.263   8.842  0.00  0.00    +0.000 C 
ATOM     12  O   UNL     1      44.353   4.247   8.523  0.00  0.00    +0.000 OA
ATOM     13  H   UNL     1      45.736   2.080  10.392  0.00  0.00    +0.000 HD
BRANCH  11  14
ATOM     14  C   UNL     1      45.857   2.579   7.839  0.00  0.00    +0.000 A 
ATOM     15  C   UNL     1      46.288   3.192   6.659  0.00  0.00    +0.000 A 
ATOM     16  C   UNL     1      47.112   2.486   5.784  0.00  0.00    +0.000 A 
ATOM     17  C   UNL     1      47.478   1.191   6.118  0.00  0.00    +0.000 A 
ATOM     18  N   UNL     1      47.085   0.572   7.252  0.00  0.00    +0.000 NA
ATOM     19  C   UNL     1      46.293   1.284   8.094  0.00  0.00    +0.000 A 
ENDBRANCH  11  14
ENDBRANCH   9  10
ENDBRANCH   6   9
ENDBRANCH   2   3
BRANCH   2  20
ATOM     20  N   UNL     1      47.723   8.601  12.621  0.00  0.00    +0.000 N 
ATOM     21  C   UNL     1      48.238   9.848  12.860  0.00  0.00    +0.000 C 
ATOM     22  O   UNL     1      48.432  10.283  13.992  0.00  0.00    +0.000 OA
ATOM     23  H   UNL     1      47.310   8.433  11.708  0.00  0.00    +0.000 HD
BRANCH  21  24
ATOM     24  C   UNL     1      48.618  10.629  11.675  0.00  0.00    +0.000 A 
ATOM     25  C   UNL     1      47.666  11.412  11.036  0.00  0.00    +0.000 A 
ATOM     26  S   UNL     1      48.273  12.263   9.689  0.00  0.00    +0.000 S 
ATOM     27  C   UNL     1      49.820  11.582   9.887  0.00  0.00    +0.000 A 
ATOM     28  N   UNL     1      50.826  11.870   9.020  0.00  0.00    +0.000 NA
ATOM     29  C   UNL     1      51.935  11.258   9.268  0.00  0.00    +0.000 A 
ATOM     30  N   UNL     1      52.134  10.395  10.315  0.00  0.00    +0.000 N 
ATOM     31  C   UNL     1      51.159  10.109  11.242  0.00  0.00    +0.000 A 
ATOM     32  O   UNL     1      51.390   9.393  12.210  0.00  0.00    +0.000 OA
ATOM     33  C   UNL     1      49.881  10.744  10.986  0.00  0.00    +0.000 A 
ATOM     34  H   UNL     1      53.034   9.963  10.463  0.00  0.00    +0.000 HD
ENDBRANCH  21  24
ENDBRANCH   2  20
TORSDOF 6
ENDMDL
MODEL 7
REMARK VINA RESULT:    -6.952      2.258      2.952
REMARK INTER + INTRA:         -10.582
REMARK INTER:                  -9.295
REMARK INTRA:                  -1.287
REMARK UNBOUND:                -1.191
REMARK  Name = 
REMARK  7 active torsions:
REMARK  status: ('A' for Active; 'I' for Inactive)
REMARK    1  A    between atoms: C_1  and  C_2
REMARK    2  A    between atoms: C_2  and  N_3
REMARK    3  A    between atoms: C_2  and  C_16
REMARK    4  A    between atoms: C_4  and  C_6
REMARK    5  A    between atoms: C_19  and  C_20
REMARK    6  A    between atoms: C_20  and  N_21
REMARK    7  A    between atoms: C_22  and  C_24
REMARK                            x       y       z     vdW  Elec       q    Type
REMARK                         _______ _______ _______ _____ _____    ______ ____
ROOT
ATOM      1  C   UNL     1      47.843   3.260  15.574  0.00  0.00    +0.000 C 
ATOM      2  C   UNL     1      47.268   4.682  15.536  0.00  0.00    +0.000 C 
ENDROOT
BRANCH   2   3
ATOM      3  C   UNL     1      46.707   4.986  14.151  0.00  0.00    +0.000 A 
ATOM      4  C   UNL     1      47.310   5.941  13.323  0.00  0.00    +0.000 A 
ATOM      5  C   UNL     1      46.812   6.185  12.037  0.00  0.00    +0.000 A 
ATOM      6  C   UNL     1      45.699   5.483  11.553  0.00  0.00    +0.000 A 
ATOM      7  C   UNL     1      45.098   4.526  12.377  0.00  0.00    +0.000 A 
ATOM      8  C   UNL     1      45.591   4.285  13.661  0.00  0.00    +0.000 A 
BRANCH   6   9
ATOM      9  C   UNL     1      45.181   5.721  10.158  0.00  0.00    +0.000 C 
BRANCH   9  10
ATOM     10  N   UNL     1      45.833   4.856   9.201  0.00  0.00    +0.000 N 
ATOM     11  C   UNL     1      45.246   3.668   8.820  0.00  0.00    +0.000 C 
ATOM     12  O   UNL     1      44.168   3.281   9.254  0.00  0.00    +0.000 OA
ATOM     13  H   UNL     1      46.599   5.242   8.664  0.00  0.00    +0.000 HD
BRANCH  11  14
ATOM     14  C   UNL     1      45.978   2.858   7.819  0.00  0.00    +0.000 A 
ATOM     15  C   UNL     1      46.415   3.370   6.595  0.00  0.00    +0.000 A 
ATOM     16  C   UNL     1      47.125   2.546   5.723  0.00  0.00    +0.000 A 
ATOM     17  C   UNL     1      47.376   1.237   6.106  0.00  0.00    +0.000 A 
ATOM     18  N   UNL     1      46.974   0.712   7.284  0.00  0.00    +0.000 NA
ATOM     19  C   UNL     1      46.295   1.538   8.121  0.00  0.00    +0.000 A 
ENDBRANCH  11  14
ENDBRANCH   9  10
ENDBRANCH   6   9
ENDBRANCH   2   3
BRANCH   2  20
ATOM     20  N   UNL     1      48.252   5.701  15.877  0.00  0.00    +0.000 N 
ATOM     21  C   UNL     1      48.449   6.174  17.148  0.00  0.00    +0.000 C 
ATOM     22  O   UNL     1      47.838   5.743  18.121  0.00  0.00    +0.000 OA
ATOM     23  H   UNL     1      48.547   6.294  15.107  0.00  0.00    +0.000 HD
BRANCH  21  24
ATOM     24  C   UNL     1      49.494   7.194  17.303  0.00  0.00    +0.000 A 
ATOM     25  C   UNL     1      50.562   6.957  18.158  0.00  0.00    +0.000 A 
ATOM     26  S   UNL     1      51.692   8.233  18.212  0.00  0.00    +0.000 S 
ATOM     27  C   UNL     1      50.773   9.166  17.126  0.00  0.00    +0.000 A 
ATOM     28  N   UNL     1      51.169  10.416  16.771  0.00  0.00    +0.000 NA
ATOM     29  C   UNL     1      50.361  11.024  15.968  0.00  0.00    +0.000 A 
ATOM     30  N   UNL     1      49.199  10.487  15.475  0.00  0.00    +0.000 N 
ATOM     31  C   UNL     1      48.782   9.211  15.772  0.00  0.00    +0.000 A 
ATOM     32  O   UNL     1      47.777   8.732  15.257  0.00  0.00    +0.000 OA
ATOM     33  C   UNL     1      49.637   8.499  16.701  0.00  0.00    +0.000 A 
ATOM     34  H   UNL     1      48.620  11.010  14.836  0.00  0.00    +0.000 HD
ENDBRANCH  21  24
ENDBRANCH   2  20
TORSDOF 6
ENDMDL
MODEL 8
REMARK VINA RESULT:    -6.867      4.135      6.232
REMARK INTER + INTRA:         -10.467
REMARK INTER:                  -9.416
REMARK INTRA:                  -1.051
REMARK UNBOUND:                -1.191
REMARK  Name = 
REMARK  7 active torsions:
REMARK  status: ('A' for Active; 'I' for Inactive)
REMARK    1  A    between atoms: C_1  and  C_2
REMARK    2  A    between atoms: C_2  and  N_3
REMARK    3  A    between atoms: C_2  and  C_16
REMARK    4  A    between atoms: C_4  and  C_6
REMARK    5  A    between atoms: C_19  and  C_20
REMARK    6  A    between atoms: C_20  and  N_21
REMARK    7  A    between atoms: C_22  and  C_24
REMARK                            x       y       z     vdW  Elec       q    Type
REMARK                         _______ _______ _______ _____ _____    ______ ____
ROOT
ATOM      1  C   UNL     1      48.627   7.207  14.569  0.00  0.00    +0.000 C 
ATOM      2  C   UNL     1      47.445   7.789  13.784  0.00  0.00    +0.000 C 
ENDROOT
BRANCH   2   3
ATOM      3  C   UNL     1      46.611   6.664  13.179  0.00  0.00    +0.000 A 
ATOM      4  C   UNL     1      45.556   6.941  12.301  0.00  0.00    +0.000 A 
ATOM      5  C   UNL     1      44.821   5.901  11.719  0.00  0.00    +0.000 A 
ATOM      6  C   UNL     1      45.121   4.561  12.006  0.00  0.00    +0.000 A 
ATOM      7  C   UNL     1      46.177   4.282  12.881  0.00  0.00    +0.000 A 
ATOM      8  C   UNL     1      46.908   5.319  13.464  0.00  0.00    +0.000 A 
BRANCH   6   9
ATOM      9  C   UNL     1      44.353   3.439  11.357  0.00  0.00    +0.000 C 
BRANCH   9  10
ATOM     10  N   UNL     1      45.123   2.815  10.306  0.00  0.00    +0.000 N 
ATOM     11  C   UNL     1      45.019   3.260   9.005  0.00  0.00    +0.000 C 
ATOM     12  O   UNL     1      44.291   4.185   8.667  0.00  0.00    +0.000 OA
ATOM     13  H   UNL     1      45.887   2.210  10.578  0.00  0.00    +0.000 HD
BRANCH  11  14
ATOM     14  C   UNL     1      45.862   2.573   7.999  0.00  0.00    +0.000 A 
ATOM     15  C   UNL     1      46.293   1.252   8.140  0.00  0.00    +0.000 A 
ATOM     16  C   UNL     1      47.058   0.672   7.129  0.00  0.00    +0.000 A 
ATOM     17  C   UNL     1      47.365   1.432   6.011  0.00  0.00    +0.000 A 
ATOM     18  N   UNL     1      46.959   2.709   5.840  0.00  0.00    +0.000 NA
ATOM     19  C   UNL     1      46.205   3.248   6.833  0.00  0.00    +0.000 A 
ENDBRANCH  11  14
ENDBRANCH   9  10
ENDBRANCH   6   9
ENDBRANCH   2   3
BRANCH   2  20
ATOM     20  N   UNL     1      47.860   8.689  12.716  0.00  0.00    +0.000 N 
ATOM     21  C   UNL     1      48.405   9.927  12.935  0.00  0.00    +0.000 C 
ATOM     22  O   UNL     1      48.633  10.366  14.058  0.00  0.00    +0.000 OA
ATOM     23  H   UNL     1      47.424   8.523  11.814  0.00  0.00    +0.000 HD
BRANCH  21  24
ATOM     24  C   UNL     1      48.776  10.691  11.736  0.00  0.00    +0.000 A 
ATOM     25  C   UNL     1      50.117  10.871  11.424  0.00  0.00    +0.000 A 
ATOM     26  S   UNL     1      50.373  11.766   9.996  0.00  0.00    +0.000 S 
ATOM     27  C   UNL     1      48.701  11.982   9.766  0.00  0.00    +0.000 A 
ATOM     28  N   UNL     1      48.228  12.710   8.720  0.00  0.00    +0.000 NA
ATOM     29  C   UNL     1      46.943  12.821   8.686  0.00  0.00    +0.000 A 
ATOM     30  N   UNL     1      46.085  12.256   9.595  0.00  0.00    +0.000 N 
ATOM     31  C   UNL     1      46.516  11.475  10.641  0.00  0.00    +0.000 A 
ATOM     32  O   UNL     1      45.722  10.920  11.393  0.00  0.00    +0.000 OA
ATOM     33  C   UNL     1      47.957  11.350  10.745  0.00  0.00    +0.000 A 
ATOM     34  H   UNL     1      45.087  12.367   9.500  0.00  0.00    +0.000 HD
ENDBRANCH  21  24
ENDBRANCH   2  20
TORSDOF 6
ENDMDL
MODEL 9
REMARK VINA RESULT:    -6.687      2.214      3.086
REMARK INTER + INTRA:         -10.224
REMARK INTER:                  -9.196
REMARK INTRA:                  -1.028
REMARK UNBOUND:                -1.191
REMARK  Name = 
REMARK  7 active torsions:
REMARK  status: ('A' for Active; 'I' for Inactive)
REMARK    1  A    between atoms: C_1  and  C_2
REMARK    2  A    between atoms: C_2  and  N_3
REMARK    3  A    between atoms: C_2  and  C_16
REMARK    4  A    between atoms: C_4  and  C_6
REMARK    5  A    between atoms: C_19  and  C_20
REMARK    6  A    between atoms: C_20  and  N_21
REMARK    7  A    between atoms: C_22  and  C_24
REMARK                            x       y       z     vdW  Elec       q    Type
REMARK                         _______ _______ _______ _____ _____    ______ ____
ROOT
ATOM      1  C   UNL     1      50.380   7.126  15.243  0.00  0.00    +0.000 C 
ATOM      2  C   UNL     1      48.960   6.750  15.685  0.00  0.00    +0.000 C 
ENDROOT
BRANCH   2   3
ATOM      3  C   UNL     1      48.057   6.588  14.467  0.00  0.00    +0.000 A 
ATOM      4  C   UNL     1      47.352   5.398  14.246  0.00  0.00    +0.000 A 
ATOM      5  C   UNL     1      46.494   5.272  13.146  0.00  0.00    +0.000 A 
ATOM      6  C   UNL     1      46.325   6.330  12.242  0.00  0.00    +0.000 A 
ATOM      7  C   UNL     1      47.026   7.521  12.463  0.00  0.00    +0.000 A 
ATOM      8  C   UNL     1      47.885   7.646  13.557  0.00  0.00    +0.000 A 
BRANCH   6   9
ATOM      9  C   UNL     1      45.378   6.209  11.076  0.00  0.00    +0.000 C 
BRANCH   9  10
ATOM     10  N   UNL     1      45.865   5.260  10.101  0.00  0.00    +0.000 N 
ATOM     11  C   UNL     1      45.037   4.268   9.619  0.00  0.00    +0.000 C 
ATOM     12  O   UNL     1      43.873   4.131   9.974  0.00  0.00    +0.000 OA
ATOM     13  H   UNL     1      46.732   5.475   9.628  0.00  0.00    +0.000 HD
BRANCH  11  14
ATOM     14  C   UNL     1      45.617   3.354   8.607  0.00  0.00    +0.000 A 
ATOM     15  C   UNL     1      46.100   3.792   7.372  0.00  0.00    +0.000 A 
ATOM     16  C   UNL     1      46.659   2.867   6.490  0.00  0.00    +0.000 A 
ATOM     17  C   UNL     1      46.716   1.537   6.874  0.00  0.00    +0.000 A 
ATOM     18  N   UNL     1      46.265   1.081   8.063  0.00  0.00    +0.000 NA
ATOM     19  C   UNL     1      45.736   2.002   8.909  0.00  0.00    +0.000 A 
ENDBRANCH  11  14
ENDBRANCH   9  10
ENDBRANCH   6   9
ENDBRANCH   2   3
BRANCH   2  20
ATOM     20  N   UNL     1      48.366   7.732  16.581  0.00  0.00    +0.000 N 
ATOM     21  C   UNL     1      48.671   7.830  17.913  0.00  0.00    +0.000 C 
ATOM     22  O   UNL     1      49.513   7.121  18.458  0.00  0.00    +0.000 OA
ATOM     23  H   UNL     1      47.475   8.114  16.277  0.00  0.00    +0.000 HD
BRANCH  21  24
ATOM     24  C   UNL     1      47.981   8.890  18.659  0.00  0.00    +0.000 A 
ATOM     25  C   UNL     1      47.386   8.595  19.879  0.00  0.00    +0.000 A 
ATOM     26  S   UNL     1      46.641   9.939  20.619  0.00  0.00    +0.000 S 
ATOM     27  C   UNL     1      47.050  10.953  19.316  0.00  0.00    +0.000 A 
ATOM     28  N   UNL     1      46.666  12.257  19.298  0.00  0.00    +0.000 NA
ATOM     29  C   UNL     1      47.013  12.900  18.235  0.00  0.00    +0.000 A 
ATOM     30  N   UNL     1      47.724  12.362  17.193  0.00  0.00    +0.000 N 
ATOM     31  C   UNL     1      48.172  11.062  17.188  0.00  0.00    +0.000 A 
ATOM     32  O   UNL     1      48.870  10.631  16.277  0.00  0.00    +0.000 OA
ATOM     33  C   UNL     1      47.775  10.285  18.345  0.00  0.00    +0.000 A 
ATOM     34  H   UNL     1      47.980  12.927  16.397  0.00  0.00    +0.000 HD
ENDBRANCH  21  24
ENDBRANCH   2  20
TORSDOF 6
ENDMDL
