MODEL 1
REMARK VINA RESULT:    -7.666      0.000      0.000
REMARK INTER + INTRA:         -12.168
REMARK INTER:                 -11.027
REMARK INTRA:                  -1.141
REMARK UNBOUND:                -1.141
REMARK  Name = 
REMARK  8 active torsions:
REMARK  status: ('A' for Active; 'I' for Inactive)
REMARK    1  A    between atoms: N_1  and  C_2
REMARK    2  A    between atoms: C_2  and  C_3
REMARK    3  A    between atoms: C_2  and  C_10
REMARK    4  A    between atoms: C_3  and  C_4
REMARK    5  A    between atoms: C_13  and  C_14
REMARK    6  A    between atoms: C_14  and  N_15
REMARK    7  A    between atoms: N_15  and  C_16
REMARK    8  A    between atoms: C_16  and  C_17
REMARK                            x       y       z     vdW  Elec       q    Type
REMARK                         _______ _______ _______ _____ _____    ______ ____
ROOT
ATOM      1  C   UNL     1      46.546   2.683   7.224  0.00  0.00    +0.000 A 
ATOM      2  C   UNL     1      46.015   1.704   8.084  0.00  0.00    +0.000 A 
ATOM      3  C   UNL     1      45.142   2.038   9.120  0.00  0.00    +0.000 A 
ATOM      4  C   UNL     1      44.795   3.370   9.358  0.00  0.00    +0.000 A 
ATOM      5  C   UNL     1      45.371   4.362   8.557  0.00  0.00    +0.000 A 
ATOM      6  C   UNL     1      46.237   4.024   7.509  0.00  0.00    +0.000 A 
ENDROOT
BRANCH   1   7
ATOM      7  C   UNL     1      47.464   2.264   6.074  0.00  0.00    +0.000 C 
BRANCH   7   8
ATOM      8  N   UNL     1      48.839   2.745   6.320  0.00  0.00    +0.000 NA
ATOM      9  H   UNL     1      49.221   2.280   7.143  0.00  0.00    +0.000 HD
ATOM     10  H   UNL     1      48.801   3.739   6.546  0.00  0.00    +0.000 HD
ENDBRANCH   7   8
BRANCH   7  11
ATOM     11  C   UNL     1      47.491   0.734   5.791  0.00  0.00    +0.000 C 
BRANCH  11  12
ATOM     12  C   UNL     1      46.868   0.317   4.475  0.00  0.00    +0.000 A 
ATOM     13  C   UNL     1      46.924  -1.012   4.043  0.00  0.00    +0.000 A 
ATOM     14  C   UNL     1      46.327  -1.345   2.837  0.00  0.00    +0.000 A 
ATOM     15  N   UNL     1      45.692  -0.460   2.042  0.00  0.00    +0.000 NA
ATOM     16  C   UNL     1      45.642   0.816   2.478  0.00  0.00    +0.000 A 
ATOM     17  C   UNL     1      46.202   1.247   3.669  0.00  0.00    +0.000 A 
ENDBRANCH  11  12
ENDBRANCH   7  11
ENDBRANCH   1   7
BRANCH   4  18
ATOM     18  C   UNL     1      43.800   3.720  10.438  0.00  0.00    +0.000 C 
BRANCH  18  19
ATOM     19  N   UNL     1      43.391   5.116  10.339  0.00  0.00    +0.000 NA
ATOM     20  H   UNL     1      42.440   5.159   9.977  0.00  0.00    +0.000 HD
BRANCH  19  21
ATOM     21  C   UNL     1      43.454   5.787  11.634  0.00  0.00    +0.000 C 
BRANCH  21  22
ATOM     22  C   UNL     1      44.877   5.876  12.113  0.00  0.00    +0.000 A 
ATOM     23  C   UNL     1      45.832   6.633  11.425  0.00  0.00    +0.000 A 
ATOM     24  C   UNL     1      47.133   6.711  11.909  0.00  0.00    +0.000 A 
ATOM     25  C   UNL     1      47.441   6.022  13.069  0.00  0.00    +0.000 A 
ATOM     26  N   UNL     1      46.554   5.268  13.754  0.00  0.00    +0.000 NA
ATOM     27  C   UNL     1      45.296   5.214  13.262  0.00  0.00    +0.000 A 
ENDBRANCH  21  22
ENDBRANCH  19  21
ENDBRANCH  18  19
ENDBRANCH   4  18
TORSDOF 8
ENDMDL
MODEL 2
REMARK VINA RESULT:    -7.443      3.298      5.487
REMARK INTER + INTRA:         -11.847
REMARK INTER:                 -11.031
REMARK INTRA:                  -0.817
REMARK UNBOUND:                -1.141
REMARK  Name = 
REMARK  8 active torsions:
REMARK  status: ('A' for Active; 'I' for Inactive)
REMARK    1  A    between atoms: N_1  and  C_2
REMARK    2  A    between atoms: C_2  and  C_3
REMARK    3  A    between atoms: C_2  and  C_10
REMARK    4  A    between atoms: C_3  and  C_4
REMARK    5  A    between atoms: C_13  and  C_14
REMARK    6  A    between atoms: C_14  and  N_15
REMARK    7  A    between atoms: N_15  and  C_16
REMARK    8  A    between atoms: C_16  and  C_17
REMARK                            x       y       z     vdW  Elec       q    Type
REMARK                         _______ _______ _______ _____ _____    ______ ____
ROOT
ATOM      1  C   UNL     1      45.288   4.163  10.710  0.00  0.00    +0.000 A 
ATOM      2  C   UNL     1      45.787   5.429  11.068  0.00  0.00    +0.000 A 
ATOM      3  C   UNL     1      46.317   5.674  12.335  0.00  0.00    +0.000 A 
ATOM      4  C   UNL     1      46.334   4.669  13.306  0.00  0.00    +0.000 A 
ATOM      5  C   UNL     1      45.777   3.426  12.989  0.00  0.00    +0.000 A 
ATOM      6  C   UNL     1      45.257   3.178  11.711  0.00  0.00    +0.000 A 
ENDROOT
BRANCH   1   7
ATOM      7  C   UNL     1      44.758   3.930   9.294  0.00  0.00    +0.000 C 
BRANCH   7   8
ATOM      8  N   UNL     1      43.528   4.719   9.075  0.00  0.00    +0.000 NA
ATOM      9  H   UNL     1      43.631   5.285   8.234  0.00  0.00    +0.000 HD
ATOM     10  H   UNL     1      43.419   5.373   9.849  0.00  0.00    +0.000 HD
ENDBRANCH   7   8
BRANCH   7  11
ATOM     11  C   UNL     1      45.781   4.237   8.160  0.00  0.00    +0.000 C 
BRANCH  11  12
ATOM     12  C   UNL     1      46.320   3.019   7.440  0.00  0.00    +0.000 A 
ATOM     13  C   UNL     1      46.777   3.107   6.122  0.00  0.00    +0.000 A 
ATOM     14  C   UNL     1      47.273   1.965   5.511  0.00  0.00    +0.000 A 
ATOM     15  N   UNL     1      47.342   0.760   6.113  0.00  0.00    +0.000 NA
ATOM     16  C   UNL     1      46.903   0.695   7.387  0.00  0.00    +0.000 A 
ATOM     17  C   UNL     1      46.395   1.778   8.085  0.00  0.00    +0.000 A 
ENDBRANCH  11  12
ENDBRANCH   7  11
ENDBRANCH   1   7
BRANCH   4  18
ATOM     18  C   UNL     1      46.967   4.920  14.653  0.00  0.00    +0.000 C 
BRANCH  18  19
ATOM     19  N   UNL     1      46.856   3.744  15.509  0.00  0.00    +0.000 NA
ATOM     20  H   UNL     1      47.383   2.978  15.092  0.00  0.00    +0.000 HD
BRANCH  19  21
ATOM     21  C   UNL     1      47.359   4.009  16.854  0.00  0.00    +0.000 C 
BRANCH  21  22
ATOM     22  C   UNL     1      48.749   3.459  17.015  0.00  0.00    +0.000 A 
ATOM     23  C   UNL     1      49.763   4.206  17.625  0.00  0.00    +0.000 A 
ATOM     24  C   UNL     1      51.030   3.657  17.778  0.00  0.00    +0.000 A 
ATOM     25  C   UNL     1      51.248   2.373  17.309  0.00  0.00    +0.000 A 
ATOM     26  N   UNL     1      50.302   1.624  16.702  0.00  0.00    +0.000 NA
ATOM     27  C   UNL     1      49.077   2.183  16.570  0.00  0.00    +0.000 A 
ENDBRANCH  21  22
ENDBRANCH  19  21
ENDBRANCH  18  19
ENDBRANCH   4  18
TORSDOF 8
ENDMDL
MODEL 3
REMARK VINA RESULT:    -7.331      2.835      5.763
REMARK INTER + INTRA:         -11.687
REMARK INTER:                 -10.569
REMARK INTRA:                  -1.118
REMARK UNBOUND:                -1.141
REMARK  Name = 
REMARK  8 active torsions:
REMARK  status: ('A' for Active; 'I' for Inactive)
REMARK    1  A    between atoms: N_1  and  C_2
REMARK    2  A    between atoms: C_2  and  C_3
REMARK    3  A    between atoms: C_2  and  C_10
REMARK    4  A    between atoms: C_3  and  C_4
REMARK    5  A    between atoms: C_13  and  C_14
REMARK    6  A    between atoms: C_14  and  N_15
REMARK    7  A    between atoms: N_15  and  C_16
REMARK    8  A    between atoms: C_16  and  C_17
REMARK                            x       y       z     vdW  Elec       q    Type
REMARK                         _______ _______ _______ _____ _____    ______ ____
ROOT
ATOM      1  C   UNL     1      45.241   4.039  11.562  0.00  0.00    +0.000 A 
ATOM      2  C   UNL     1      45.386   5.362  11.105  0.00  0.00    +0.000 A 
ATOM      3  C   UNL     1      46.176   6.288  11.787  0.00  0.00    +0.000 A 
ATOM      4  C   UNL     1      46.822   5.935  12.975  0.00  0.00    +0.000 A 
ATOM      5  C   UNL     1      46.629   4.645  13.481  0.00  0.00    +0.000 A 
ATOM      6  C   UNL     1      45.846   3.713  12.787  0.00  0.00    +0.000 A 
ENDROOT
BRANCH   1   7
ATOM      7  C   UNL     1      44.401   3.047  10.755  0.00  0.00    +0.000 C 
BRANCH   7   8
ATOM      8  N   UNL     1      43.032   2.973  11.307  0.00  0.00    +0.000 NA
ATOM      9  H   UNL     1      42.470   3.733  10.928  0.00  0.00    +0.000 HD
ATOM     10  H   UNL     1      43.079   3.126  12.314  0.00  0.00    +0.000 HD
ENDBRANCH   7   8
BRANCH   7  11
ATOM     11  C   UNL     1      44.331   3.347   9.229  0.00  0.00    +0.000 C 
BRANCH  11  12
ATOM     12  C   UNL     1      45.474   2.780   8.414  0.00  0.00    +0.000 A 
ATOM     13  C   UNL     1      46.270   3.609   7.618  0.00  0.00    +0.000 A 
ATOM     14  C   UNL     1      47.312   3.043   6.900  0.00  0.00    +0.000 A 
ATOM     15  N   UNL     1      47.609   1.727   6.918  0.00  0.00    +0.000 NA
ATOM     16  C   UNL     1      46.836   0.943   7.697  0.00  0.00    +0.000 A 
ATOM     17  C   UNL     1      45.776   1.413   8.454  0.00  0.00    +0.000 A 
ENDBRANCH  11  12
ENDBRANCH   7  11
ENDBRANCH   1   7
BRANCH   4  18
ATOM     18  C   UNL     1      47.726   6.920  13.675  0.00  0.00    +0.000 C 
BRANCH  18  19
ATOM     19  N   UNL     1      48.788   6.231  14.400  0.00  0.00    +0.000 NA
ATOM     20  H   UNL     1      49.685   6.468  13.980  0.00  0.00    +0.000 HD
BRANCH  19  21
ATOM     21  C   UNL     1      48.796   6.595  15.814  0.00  0.00    +0.000 C 
BRANCH  21  22
ATOM     22  C   UNL     1      48.709   5.365  16.675  0.00  0.00    +0.000 A 
ATOM     23  C   UNL     1      47.532   4.612  16.753  0.00  0.00    +0.000 A 
ATOM     24  C   UNL     1      47.494   3.467  17.541  0.00  0.00    +0.000 A 
ATOM     25  C   UNL     1      48.638   3.112  18.234  0.00  0.00    +0.000 A 
ATOM     26  N   UNL     1      49.789   3.819  18.197  0.00  0.00    +0.000 NA
ATOM     27  C   UNL     1      49.797   4.926  17.420  0.00  0.00    +0.000 A 
ENDBRANCH  21  22
ENDBRANCH  19  21
ENDBRANCH  18  19
ENDBRANCH   4  18
TORSDOF 8
ENDMDL
MODEL 4
REMARK VINA RESULT:    -6.973      2.767      5.518
REMARK INTER + INTRA:         -11.172
REMARK INTER:                  -9.946
REMARK INTRA:                  -1.226
REMARK UNBOUND:                -1.141
REMARK  Name = 
REMARK  8 active torsions:
REMARK  status: ('A' for Active; 'I' for Inactive)
REMARK    1  A    between atoms: N_1  and  C_2
REMARK    2  A    between atoms: C_2  and  C_3
REMARK    3  A    between atoms: C_2  and  C_10
REMARK    4  A    between atoms: C_3  and  C_4
REMARK    5  A    between atoms: C_13  and  C_14
REMARK    6  A    between atoms: C_14  and  N_15
REMARK    7  A    between atoms: N_15  and  C_16
REMARK    8  A    between atoms: C_16  and  C_17
REMARK                            x       y       z     vdW  Elec       q    Type
REMARK                         _______ _______ _______ _____ _____    ______ ____
ROOT
ATOM      1  C   UNL     1      45.135   4.256  11.492  0.00  0.00    +0.000 A 
ATOM      2  C   UNL     1      45.417   5.477  10.852  0.00  0.00    +0.000 A 
ATOM      3  C   UNL     1      46.128   6.491  11.493  0.00  0.00    +0.000 A 
ATOM      4  C   UNL     1      46.553   6.336  12.816  0.00  0.00    +0.000 A 
ATOM      5  C   UNL     1      46.219   5.157  13.489  0.00  0.00    +0.000 A 
ATOM      6  C   UNL     1      45.516   4.134  12.838  0.00  0.00    +0.000 A 
ENDROOT
BRANCH   1   7
ATOM      7  C   UNL     1      44.392   3.156  10.731  0.00  0.00    +0.000 C 
BRANCH   7   8
ATOM      8  N   UNL     1      43.028   2.995  11.276  0.00  0.00    +0.000 NA
ATOM      9  H   UNL     1      42.780   3.817  11.824  0.00  0.00    +0.000 HD
ATOM     10  H   UNL     1      43.027   2.208  11.924  0.00  0.00    +0.000 HD
ENDBRANCH   7   8
BRANCH   7  11
ATOM     11  C   UNL     1      44.316   3.370   9.191  0.00  0.00    +0.000 C 
BRANCH  11  12
ATOM     12  C   UNL     1      45.476   2.793   8.408  0.00  0.00    +0.000 A 
ATOM     13  C   UNL     1      45.763   1.425   8.451  0.00  0.00    +0.000 A 
ATOM     14  C   UNL     1      46.829   0.945   7.706  0.00  0.00    +0.000 A 
ATOM     15  N   UNL     1      47.619   1.721   6.936  0.00  0.00    +0.000 NA
ATOM     16  C   UNL     1      47.324   3.037   6.901  0.00  0.00    +0.000 A 
ATOM     17  C   UNL     1      46.278   3.612   7.604  0.00  0.00    +0.000 A 
ENDBRANCH  11  12
ENDBRANCH   7  11
ENDBRANCH   1   7
BRANCH   4  18
ATOM     18  C   UNL     1      47.377   7.409  13.484  0.00  0.00    +0.000 C 
BRANCH  18  19
ATOM     19  N   UNL     1      46.596   8.627  13.670  0.00  0.00    +0.000 NA
ATOM     20  H   UNL     1      46.606   8.881  14.657  0.00  0.00    +0.000 HD
BRANCH  19  21
ATOM     21  C   UNL     1      47.124   9.731  12.875  0.00  0.00    +0.000 C 
BRANCH  21  22
ATOM     22  C   UNL     1      46.072  10.255  11.937  0.00  0.00    +0.000 A 
ATOM     23  C   UNL     1      44.781   9.716  11.915  0.00  0.00    +0.000 A 
ATOM     24  C   UNL     1      43.827  10.241  11.051  0.00  0.00    +0.000 A 
ATOM     25  C   UNL     1      44.196  11.290  10.228  0.00  0.00    +0.000 A 
ATOM     26  N   UNL     1      45.435  11.830  10.208  0.00  0.00    +0.000 NA
ATOM     27  C   UNL     1      46.341  11.301  11.061  0.00  0.00    +0.000 A 
ENDBRANCH  21  22
ENDBRANCH  19  21
ENDBRANCH  18  19
ENDBRANCH   4  18
TORSDOF 8
ENDMDL
MODEL 5
REMARK VINA RESULT:    -6.970      2.597      8.367
REMARK INTER + INTRA:         -11.168
REMARK INTER:                  -9.942
REMARK INTRA:                  -1.225
REMARK UNBOUND:                -1.141
REMARK  Name = 
REMARK  8 active torsions:
REMARK  status: ('A' for Active; 'I' for Inactive)
REMARK    1  A    between atoms: N_1  and  C_2
REMARK    2  A    between atoms: C_2  and  C_3
REMARK    3  A    between atoms: C_2  and  C_10
REMARK    4  A    between atoms: C_3  and  C_4
REMARK    5  A    between atoms: C_13  and  C_14
REMARK    6  A    between atoms: C_14  and  N_15
REMARK    7  A    between atoms: N_15  and  C_16
REMARK    8  A    between atoms: C_16  and  C_17
REMARK                            x       y       z     vdW  Elec       q    Type
REMARK                         _______ _______ _______ _____ _____    ______ ____
ROOT
ATOM      1  C   UNL     1      46.667   6.077  12.584  0.00  0.00    +0.000 A 
ATOM      2  C   UNL     1      46.144   4.970  13.276  0.00  0.00    +0.000 A 
ATOM      3  C   UNL     1      45.168   4.149  12.710  0.00  0.00    +0.000 A 
ATOM      4  C   UNL     1      44.651   4.428  11.441  0.00  0.00    +0.000 A 
ATOM      5  C   UNL     1      45.110   5.566  10.770  0.00  0.00    +0.000 A 
ATOM      6  C   UNL     1      46.100   6.382  11.336  0.00  0.00    +0.000 A 
ENDROOT
BRANCH   1   7
ATOM      7  C   UNL     1      47.769   6.921  13.228  0.00  0.00    +0.000 C 
BRANCH   7   8
ATOM      8  N   UNL     1      47.953   6.526  14.640  0.00  0.00    +0.000 NA
ATOM      9  H   UNL     1      47.604   5.578  14.777  0.00  0.00    +0.000 HD
ATOM     10  H   UNL     1      47.377   7.130  15.225  0.00  0.00    +0.000 HD
ENDBRANCH   7   8
BRANCH   7  11
ATOM     11  C   UNL     1      49.139   6.871  12.491  0.00  0.00    +0.000 C 
BRANCH  11  12
ATOM     12  C   UNL     1      49.592   8.187  11.895  0.00  0.00    +0.000 A 
ATOM     13  C   UNL     1      50.899   8.350  11.424  0.00  0.00    +0.000 A 
ATOM     14  C   UNL     1      51.261   9.572  10.876  0.00  0.00    +0.000 A 
ATOM     15  N   UNL     1      50.426  10.625  10.769  0.00  0.00    +0.000 NA
ATOM     16  C   UNL     1      49.167  10.448  11.223  0.00  0.00    +0.000 A 
ATOM     17  C   UNL     1      48.708   9.267  11.781  0.00  0.00    +0.000 A 
ENDBRANCH  11  12
ENDBRANCH   7  11
ENDBRANCH   1   7
BRANCH   4  18
ATOM     18  C   UNL     1      43.643   3.501  10.807  0.00  0.00    +0.000 C 
BRANCH  18  19
ATOM     19  N   UNL     1      43.967   3.257   9.406  0.00  0.00    +0.000 NA
ATOM     20  H   UNL     1      44.514   4.039   9.050  0.00  0.00    +0.000 HD
BRANCH  19  21
ATOM     21  C   UNL     1      44.717   2.016   9.235  0.00  0.00    +0.000 C 
BRANCH  21  22
ATOM     22  C   UNL     1      45.847   2.213   8.263  0.00  0.00    +0.000 A 
ATOM     23  C   UNL     1      46.105   3.462   7.688  0.00  0.00    +0.000 A 
ATOM     24  C   UNL     1      47.173   3.612   6.810  0.00  0.00    +0.000 A 
ATOM     25  C   UNL     1      47.950   2.502   6.529  0.00  0.00    +0.000 A 
ATOM     26  N   UNL     1      47.725   1.276   7.050  0.00  0.00    +0.000 NA
ATOM     27  C   UNL     1      46.682   1.160   7.903  0.00  0.00    +0.000 A 
ENDBRANCH  21  22
ENDBRANCH  19  21
ENDBRANCH  18  19
ENDBRANCH   4  18
TORSDOF 8
ENDMDL
MODEL 6
REMARK VINA RESULT:    -6.968      3.497      6.146
REMARK INTER + INTRA:         -11.165
REMARK INTER:                 -10.077
REMARK INTRA:                  -1.088
REMARK UNBOUND:                -1.141
REMARK  Name = 
REMARK  8 active torsions:
REMARK  status: ('A' for Active; 'I' for Inactive)
REMARK    1  A    between atoms: N_1  and  C_2
REMARK    2  A    between atoms: C_2  and  C_3
REMARK    3  A    between atoms: C_2  and  C_10
REMARK    4  A    between atoms: C_3  and  C_4
REMARK    5  A    between atoms: C_13  and  C_14
REMARK    6  A    between atoms: C_14  and  N_15
REMARK    7  A    between atoms: N_15  and  C_16
REMARK    8  A    between atoms: C_16  and  C_17
REMARK                            x       y       z     vdW  Elec       q    Type
REMARK                         _______ _______ _______ _____ _____    ______ ____
ROOT
ATOM      1  C   UNL     1      45.002   4.647  11.833  0.00  0.00    +0.000 A 
ATOM      2  C   UNL     1      46.129   4.977  12.608  0.00  0.00    +0.000 A 
ATOM      3  C   UNL     1      46.412   6.298  12.958  0.00  0.00    +0.000 A 
ATOM      4  C   UNL     1      45.597   7.343  12.515  0.00  0.00    +0.000 A 
ATOM      5  C   UNL     1      44.514   7.038  11.685  0.00  0.00    +0.000 A 
ATOM      6  C   UNL     1      44.224   5.709  11.344  0.00  0.00    +0.000 A 
ENDROOT
BRANCH   1   7
ATOM      7  C   UNL     1      44.707   3.180  11.511  0.00  0.00    +0.000 C 
BRANCH   7   8
ATOM      8  N   UNL     1      43.774   2.618  12.510  0.00  0.00    +0.000 NA
ATOM      9  H   UNL     1      42.937   3.198  12.558  0.00  0.00    +0.000 HD
ATOM     10  H   UNL     1      44.211   2.671  13.429  0.00  0.00    +0.000 HD
ENDBRANCH   7   8
BRANCH   7  11
ATOM     11  C   UNL     1      44.150   2.930  10.079  0.00  0.00    +0.000 C 
BRANCH  11  12
ATOM     12  C   UNL     1      45.199   2.856   8.990  0.00  0.00    +0.000 A 
ATOM     13  C   UNL     1      45.787   1.636   8.641  0.00  0.00    +0.000 A 
ATOM     14  C   UNL     1      46.733   1.619   7.628  0.00  0.00    +0.000 A 
ATOM     15  N   UNL     1      47.130   2.717   6.951  0.00  0.00    +0.000 NA
ATOM     16  C   UNL     1      46.547   3.884   7.296  0.00  0.00    +0.000 A 
ATOM     17  C   UNL     1      45.590   4.003   8.290  0.00  0.00    +0.000 A 
ENDBRANCH  11  12
ENDBRANCH   7  11
ENDBRANCH   1   7
BRANCH   4  18
ATOM     18  C   UNL     1      45.871   8.762  12.950  0.00  0.00    +0.000 C 
BRANCH  18  19
ATOM     19  N   UNL     1      44.686   9.596  12.788  0.00  0.00    +0.000 NA
ATOM     20  H   UNL     1      44.478  10.055  13.673  0.00  0.00    +0.000 HD
BRANCH  19  21
ATOM     21  C   UNL     1      44.875  10.601  11.746  0.00  0.00    +0.000 C 
BRANCH  21  22
ATOM     22  C   UNL     1      43.549  11.028  11.179  0.00  0.00    +0.000 A 
ATOM     23  C   UNL     1      42.611  10.090  10.733  0.00  0.00    +0.000 A 
ATOM     24  C   UNL     1      41.386  10.520  10.236  0.00  0.00    +0.000 A 
ATOM     25  C   UNL     1      41.139  11.881  10.194  0.00  0.00    +0.000 A 
ATOM     26  N   UNL     1      42.022  12.819  10.599  0.00  0.00    +0.000 NA
ATOM     27  C   UNL     1      43.204  12.372  11.081  0.00  0.00    +0.000 A 
ENDBRANCH  21  22
ENDBRANCH  19  21
ENDBRANCH  18  19
ENDBRANCH   4  18
TORSDOF 8
ENDMDL
MODEL 7
REMARK VINA RESULT:    -6.922      2.994      6.196
REMARK INTER + INTRA:         -11.098
REMARK INTER:                 -10.007
REMARK INTRA:                  -1.091
REMARK UNBOUND:                -1.141
REMARK  Name = 
REMARK  8 active torsions:
REMARK  status: ('A' for Active; 'I' for Inactive)
REMARK    1  A    between atoms: N_1  and  C_2
REMARK    2  A    between atoms: C_2  and  C_3
REMARK    3  A    between atoms: C_2  and  C_10
REMARK    4  A    between atoms: C_3  and  C_4
REMARK    5  A    between atoms: C_13  and  C_14
REMARK    6  A    between atoms: C_14  and  N_15
REMARK    7  A    between atoms: N_15  and  C_16
REMARK    8  A    between atoms: C_16  and  C_17
REMARK                            x       y       z     vdW  Elec       q    Type
REMARK                         _______ _______ _______ _____ _____    ______ ____
ROOT
ATOM      1  C   UNL     1      44.946   5.200  11.914  0.00  0.00    +0.000 A 
ATOM      2  C   UNL     1      45.971   4.489  12.565  0.00  0.00    +0.000 A 
ATOM      3  C   UNL     1      46.980   5.145  13.270  0.00  0.00    +0.000 A 
ATOM      4  C   UNL     1      47.022   6.541  13.321  0.00  0.00    +0.000 A 
ATOM      5  C   UNL     1      46.051   7.263  12.620  0.00  0.00    +0.000 A 
ATOM      6  C   UNL     1      45.030   6.602  11.923  0.00  0.00    +0.000 A 
ENDROOT
BRANCH   1   7
ATOM      7  C   UNL     1      43.835   4.435  11.191  0.00  0.00    +0.000 C 
BRANCH   7   8
ATOM      8  N   UNL     1      42.514   4.849  11.707  0.00  0.00    +0.000 NA
ATOM      9  H   UNL     1      41.786   4.558  11.055  0.00  0.00    +0.000 HD
ATOM     10  H   UNL     1      42.480   5.868  11.736  0.00  0.00    +0.000 HD
ENDBRANCH   7   8
BRANCH   7  11
ATOM     11  C   UNL     1      43.855   4.576   9.641  0.00  0.00    +0.000 C 
BRANCH  11  12
ATOM     12  C   UNL     1      44.832   3.663   8.930  0.00  0.00    +0.000 A 
ATOM     13  C   UNL     1      45.741   4.172   7.997  0.00  0.00    +0.000 A 
ATOM     14  C   UNL     1      46.624   3.296   7.382  0.00  0.00    +0.000 A 
ATOM     15  N   UNL     1      46.661   1.971   7.628  0.00  0.00    +0.000 NA
ATOM     16  C   UNL     1      45.782   1.498   8.536  0.00  0.00    +0.000 A 
ATOM     17  C   UNL     1      44.865   2.291   9.206  0.00  0.00    +0.000 A 
ENDBRANCH  11  12
ENDBRANCH   7  11
ENDBRANCH   1   7
BRANCH   4  18
ATOM     18  C   UNL     1      48.078   7.244  14.138  0.00  0.00    +0.000 C 
BRANCH  18  19
ATOM     19  N   UNL     1      48.982   6.284  14.761  0.00  0.00    +0.000 NA
ATOM     20  H   UNL     1      49.935   6.478  14.455  0.00  0.00    +0.000 HD
BRANCH  19  21
ATOM     21  C   UNL     1      48.913   6.346  16.218  0.00  0.00    +0.000 C 
BRANCH  21  22
ATOM     22  C   UNL     1      48.508   5.013  16.783  0.00  0.00    +0.000 A 
ATOM     23  C   UNL     1      49.431   4.186  17.433  0.00  0.00    +0.000 A 
ATOM     24  C   UNL     1      49.016   2.970  17.964  0.00  0.00    +0.000 A 
ATOM     25  C   UNL     1      47.686   2.615  17.823  0.00  0.00    +0.000 A 
ATOM     26  N   UNL     1      46.767   3.376  17.191  0.00  0.00    +0.000 NA
ATOM     27  C   UNL     1      47.198   4.555  16.687  0.00  0.00    +0.000 A 
ENDBRANCH  21  22
ENDBRANCH  19  21
ENDBRANCH  18  19
ENDBRANCH   4  18
TORSDOF 8
ENDMDL
MODEL 8
REMARK VINA RESULT:    -6.828      3.200      9.741
REMARK INTER + INTRA:         -10.963
REMARK INTER:                 -10.190
REMARK INTRA:                  -0.774
REMARK UNBOUND:                -1.141
REMARK  Name = 
REMARK  8 active torsions:
REMARK  status: ('A' for Active; 'I' for Inactive)
REMARK    1  A    between atoms: N_1  and  C_2
REMARK    2  A    between atoms: C_2  and  C_3
REMARK    3  A    between atoms: C_2  and  C_10
REMARK    4  A    between atoms: C_3  and  C_4
REMARK    5  A    between atoms: C_13  and  C_14
REMARK    6  A    between atoms: C_14  and  N_15
REMARK    7  A    between atoms: N_15  and  C_16
REMARK    8  A    between atoms: C_16  and  C_17
REMARK                            x       y       z     vdW  Elec       q    Type
REMARK                         _______ _______ _______ _____ _____    ______ ____
ROOT
ATOM      1  C   UNL     1      46.419   4.860  13.580  0.00  0.00    +0.000 A 
ATOM      2  C   UNL     1      45.924   3.631  13.109  0.00  0.00    +0.000 A 
ATOM      3  C   UNL     1      45.012   3.567  12.055  0.00  0.00    +0.000 A 
ATOM      4  C   UNL     1      44.532   4.735  11.456  0.00  0.00    +0.000 A 
ATOM      5  C   UNL     1      44.961   5.967  11.961  0.00  0.00    +0.000 A 
ATOM      6  C   UNL     1      45.887   6.029  13.011  0.00  0.00    +0.000 A 
ENDROOT
BRANCH   1   7
ATOM      7  C   UNL     1      47.453   4.878  14.708  0.00  0.00    +0.000 C 
BRANCH   7   8
ATOM      8  N   UNL     1      47.845   6.269  15.017  0.00  0.00    +0.000 NA
ATOM      9  H   UNL     1      47.652   6.468  15.997  0.00  0.00    +0.000 HD
ATOM     10  H   UNL     1      47.257   6.901  14.475  0.00  0.00    +0.000 HD
ENDBRANCH   7   8
BRANCH   7  11
ATOM     11  C   UNL     1      46.998   4.164  16.015  0.00  0.00    +0.000 C 
BRANCH  11  12
ATOM     12  C   UNL     1      47.933   4.334  17.194  0.00  0.00    +0.000 A 
ATOM     13  C   UNL     1      47.548   5.075  18.315  0.00  0.00    +0.000 A 
ATOM     14  C   UNL     1      48.436   5.191  19.374  0.00  0.00    +0.000 A 
ATOM     15  N   UNL     1      49.662   4.630  19.392  0.00  0.00    +0.000 NA
ATOM     16  C   UNL     1      50.015   3.913  18.305  0.00  0.00    +0.000 A 
ATOM     17  C   UNL     1      49.198   3.735  17.200  0.00  0.00    +0.000 A 
ENDBRANCH  11  12
ENDBRANCH   7  11
ENDBRANCH   1   7
BRANCH   4  18
ATOM     18  C   UNL     1      43.596   4.659  10.275  0.00  0.00    +0.000 C 
BRANCH  18  19
ATOM     19  N   UNL     1      44.058   3.673   9.304  0.00  0.00    +0.000 NA
ATOM     20  H   UNL     1      43.273   3.388   8.721  0.00  0.00    +0.000 HD
BRANCH  19  21
ATOM     21  C   UNL     1      45.126   4.206   8.464  0.00  0.00    +0.000 C 
BRANCH  21  22
ATOM     22  C   UNL     1      45.917   3.087   7.845  0.00  0.00    +0.000 A 
ATOM     23  C   UNL     1      46.674   3.285   6.684  0.00  0.00    +0.000 A 
ATOM     24  C   UNL     1      47.412   2.233   6.153  0.00  0.00    +0.000 A 
ATOM     25  C   UNL     1      47.365   1.010   6.798  0.00  0.00    +0.000 A 
ATOM     26  N   UNL     1      46.636   0.774   7.910  0.00  0.00    +0.000 NA
ATOM     27  C   UNL     1      45.932   1.815   8.407  0.00  0.00    +0.000 A 
ENDBRANCH  21  22
ENDBRANCH  19  21
ENDBRANCH  18  19
ENDBRANCH   4  18
TORSDOF 8
ENDMDL
MODEL 9
REMARK VINA RESULT:    -6.612      3.091      8.593
REMARK INTER + INTRA:         -10.652
REMARK INTER:                  -9.560
REMARK INTRA:                  -1.092
REMARK UNBOUND:                -1.141
REMARK  Name = 
REMARK  8 active torsions:
REMARK  status: ('A' for Active; 'I' for Inactive)
REMARK    1  A    between atoms: N_1  and  C_2
REMARK    2  A    between atoms: C_2  and  C_3
REMARK    3  A    between atoms: C_2  and  C_10
REMARK    4  A    between atoms: C_3  and  C_4
REMARK    5  A    between atoms: C_13  and  C_14
REMARK    6  A    between atoms: C_14  and  N_15
REMARK    7  A    between atoms: N_15  and  C_16
REMARK    8  A    between atoms: C_16  and  C_17
REMARK                            x       y       z     vdW  Elec       q    Type
REMARK                         _______ _______ _______ _____ _____    ______ ____
ROOT
ATOM      1  C   UNL     1      46.936   6.636  12.779  0.00  0.00    +0.000 A 
ATOM      2  C   UNL     1      46.750   5.399  13.423  0.00  0.00    +0.000 A 
ATOM      3  C   UNL     1      45.562   4.678  13.291  0.00  0.00    +0.000 A 
ATOM      4  C   UNL     1      44.500   5.187  12.538  0.00  0.00    +0.000 A 
ATOM      5  C   UNL     1      44.643   6.449  11.951  0.00  0.00    +0.000 A 
ATOM      6  C   UNL     1      45.842   7.165  12.074  0.00  0.00    +0.000 A 
ENDROOT
BRANCH   1   7
ATOM      7  C   UNL     1      48.272   7.369  12.917  0.00  0.00    +0.000 C 
BRANCH   7   8
ATOM      8  N   UNL     1      49.235   6.533  13.663  0.00  0.00    +0.000 NA
ATOM      9  H   UNL     1      49.960   6.199  13.028  0.00  0.00    +0.000 HD
ATOM     10  H   UNL     1      48.750   5.704  14.004  0.00  0.00    +0.000 HD
ENDBRANCH   7   8
BRANCH   7  11
ATOM     11  C   UNL     1      48.908   7.817  11.568  0.00  0.00    +0.000 C 
BRANCH  11  12
ATOM     12  C   UNL     1      49.316   9.273  11.507  0.00  0.00    +0.000 A 
ATOM     13  C   UNL     1      50.654   9.638  11.330  0.00  0.00    +0.000 A 
ATOM     14  C   UNL     1      50.975  10.985  11.269  0.00  0.00    +0.000 A 
ATOM     15  N   UNL     1      50.069  11.979  11.372  0.00  0.00    +0.000 NA
ATOM     16  C   UNL     1      48.782  11.610  11.536  0.00  0.00    +0.000 A 
ATOM     17  C   UNL     1      48.361  10.292  11.605  0.00  0.00    +0.000 A 
ENDBRANCH  11  12
ENDBRANCH   7  11
ENDBRANCH   1   7
BRANCH   4  18
ATOM     18  C   UNL     1      43.243   4.375  12.346  0.00  0.00    +0.000 C 
BRANCH  18  19
ATOM     19  N   UNL     1      43.129   3.906  10.969  0.00  0.00    +0.000 NA
ATOM     20  H   UNL     1      43.379   4.665  10.337  0.00  0.00    +0.000 HD
BRANCH  19  21
ATOM     21  C   UNL     1      43.992   2.756  10.720  0.00  0.00    +0.000 C 
BRANCH  21  22
ATOM     22  C   UNL     1      44.879   3.010   9.533  0.00  0.00    +0.000 A 
ATOM     23  C   UNL     1      45.471   1.958   8.825  0.00  0.00    +0.000 A 
ATOM     24  C   UNL     1      46.266   2.229   7.718  0.00  0.00    +0.000 A 
ATOM     25  C   UNL     1      46.451   3.552   7.354  0.00  0.00    +0.000 A 
ATOM     26  N   UNL     1      45.911   4.597   8.018  0.00  0.00    +0.000 NA
ATOM     27  C   UNL     1      45.140   4.302   9.089  0.00  0.00    +0.000 A 
ENDBRANCH  21  22
ENDBRANCH  19  21
ENDBRANCH  18  19
ENDBRANCH   4  18
TORSDOF 8
ENDMDL
