MODEL 1
REMARK VINA RESULT:    -8.162      0.000      0.000
REMARK INTER + INTRA:         -12.232
REMARK INTER:                 -11.025
REMARK INTRA:                  -1.207
REMARK UNBOUND:                -1.207
REMARK  Name = 
REMARK  6 active torsions:
REMARK  status: ('A' for Active; 'I' for Inactive)
REMARK    1  A    between atoms: C_2  and  C_4
REMARK    2  A    between atoms: C_8  and  O_9
REMARK    3  A    between atoms: O_9  and  C_10
REMARK    4  A    between atoms: C_10  and  C_11
REMARK    5  A    between atoms: C_11  and  C_12
REMARK    6  A    between atoms: C_17  and  C_18
REMARK                            x       y       z     vdW  Elec       q    Type
REMARK                         _______ _______ _______ _____ _____    ______ ____
ROOT
ATOM      1  C   UNL     1      43.714   3.973  12.725  0.00  0.00    +0.000 C 
ENDROOT
BRANCH   1   2
ATOM      2  C   UNL     1      44.769   5.046  12.908  0.00  0.00    +0.000 A 
ATOM      3  C   UNL     1      45.957   4.773  13.595  0.00  0.00    +0.000 A 
ATOM      4  C   UNL     1      46.929   5.767  13.727  0.00  0.00    +0.000 A 
ATOM      5  F   UNL     1      48.059   5.489  14.390  0.00  0.00    +0.000 F 
ATOM      6  C   UNL     1      46.750   7.032  13.190  0.00  0.00    +0.000 A 
ATOM      7  C   UNL     1      45.569   7.347  12.496  0.00  0.00    +0.000 A 
ATOM      8  C   UNL     1      44.598   6.333  12.366  0.00  0.00    +0.000 A 
BRANCH   7   9
ATOM      9  C   UNL     1      45.347   8.691  11.923  0.00  0.00    +0.000 A 
ATOM     10  C   UNL     1      46.225   9.758  12.183  0.00  0.00    +0.000 A 
ATOM     11  C   UNL     1      46.007  11.027  11.641  0.00  0.00    +0.000 A 
ATOM     12  C   UNL     1      44.909  11.254  10.819  0.00  0.00    +0.000 A 
ATOM     13  C   UNL     1      44.027  10.213  10.547  0.00  0.00    +0.000 A 
ATOM     14 CL   UNL     1      42.656  10.486   9.544  0.00  0.00    +0.000 Cl
ATOM     15  C   UNL     1      44.239   8.948  11.092  0.00  0.00    +0.000 A 
ENDBRANCH   7   9
ENDBRANCH   1   2
BRANCH   1  16
ATOM     16  C   UNL     1      43.224   3.883  11.276  0.00  0.00    +0.000 C 
BRANCH  16  17
ATOM     17  O   UNL     1      43.676   2.674  10.619  0.00  0.00    +0.000 OA
BRANCH  17  22
ATOM     18  C   UNL     1      46.183   2.218   8.125  0.00  0.00    +0.000 A 
ATOM     19  C   UNL     1      46.429   3.493   7.640  0.00  0.00    +0.000 A 
ATOM     20  C   UNL     1      45.699   4.545   8.191  0.00  0.00    +0.000 A 
ATOM     21  C   UNL     1      44.763   4.287   9.199  0.00  0.00    +0.000 A 
ATOM     22  C   UNL     1      44.592   2.971   9.616  0.00  0.00    +0.000 A 
ATOM     23  N   UNL     1      45.282   1.941   9.093  0.00  0.00    +0.000 NA
BRANCH  18  25
ATOM     24  N   UNL     1      47.969   1.305   6.742  0.00  0.00    +0.000 N 
ATOM     25  C   UNL     1      46.915   1.039   7.576  0.00  0.00    +0.000 C 
ATOM     26  O   UNL     1      46.610  -0.110   7.867  0.00  0.00    +0.000 OA
ATOM     27  H   UNL     1      48.535   0.527   6.438  0.00  0.00    +0.000 HD
ATOM     28  H   UNL     1      48.316   2.251   6.636  0.00  0.00    +0.000 HD
ENDBRANCH  18  25
ENDBRANCH  17  22
ENDBRANCH  16  17
ENDBRANCH   1  16
TORSDOF 6
ENDMDL
MODEL 2
REMARK VINA RESULT:    -7.846      3.272      5.040
REMARK INTER + INTRA:         -11.805
REMARK INTER:                 -10.822
REMARK INTRA:                  -0.982
REMARK UNBOUND:                -1.207
REMARK  Name = 
REMARK  6 active torsions:
REMARK  status: ('A' for Active; 'I' for Inactive)
REMARK    1  A    between atoms: C_2  and  C_4
REMARK    2  A    between atoms: C_8  and  O_9
REMARK    3  A    between atoms: O_9  and  C_10
REMARK    4  A    between atoms: C_10  and  C_11
REMARK    5  A    between atoms: C_11  and  C_12
REMARK    6  A    between atoms: C_17  and  C_18
REMARK                            x       y       z     vdW  Elec       q    Type
REMARK                         _______ _______ _______ _____ _____    ______ ____
ROOT
ATOM      1  C   UNL     1      43.749   4.423  12.324  0.00  0.00    +0.000 C 
ENDROOT
BRANCH   1   2
ATOM      2  C   UNL     1      45.117   4.970  12.681  0.00  0.00    +0.000 A 
ATOM      3  C   UNL     1      45.750   5.909  11.860  0.00  0.00    +0.000 A 
ATOM      4  C   UNL     1      46.997   6.422  12.222  0.00  0.00    +0.000 A 
ATOM      5  F   UNL     1      47.590   7.319  11.422  0.00  0.00    +0.000 F 
ATOM      6  C   UNL     1      47.634   6.026  13.387  0.00  0.00    +0.000 A 
ATOM      7  C   UNL     1      47.033   5.082  14.237  0.00  0.00    +0.000 A 
ATOM      8  C   UNL     1      45.772   4.574  13.862  0.00  0.00    +0.000 A 
BRANCH   7   9
ATOM      9  C   UNL     1      47.694   4.632  15.480  0.00  0.00    +0.000 A 
ATOM     10  C   UNL     1      47.674   3.284  15.879  0.00  0.00    +0.000 A 
ATOM     11  C   UNL     1      48.298   2.865  17.057  0.00  0.00    +0.000 A 
ATOM     12  C   UNL     1      48.964   3.787  17.858  0.00  0.00    +0.000 A 
ATOM     13  C   UNL     1      48.998   5.126  17.482  0.00  0.00    +0.000 A 
ATOM     14 CL   UNL     1      49.805   6.278  18.473  0.00  0.00    +0.000 Cl
ATOM     15  C   UNL     1      48.370   5.546  16.311  0.00  0.00    +0.000 A 
ENDBRANCH   7   9
ENDBRANCH   1   2
BRANCH   1  16
ATOM     16  C   UNL     1      43.592   4.194  10.818  0.00  0.00    +0.000 C 
BRANCH  16  17
ATOM     17  O   UNL     1      44.113   2.908  10.401  0.00  0.00    +0.000 OA
BRANCH  17  22
ATOM     18  C   UNL     1      46.408   2.061   7.808  0.00  0.00    +0.000 A 
ATOM     19  C   UNL     1      46.761   3.276   7.243  0.00  0.00    +0.000 A 
ATOM     20  C   UNL     1      46.180   4.427   7.774  0.00  0.00    +0.000 A 
ATOM     21  C   UNL     1      45.281   4.322   8.842  0.00  0.00    +0.000 A 
ATOM     22  C   UNL     1      44.995   3.055   9.337  0.00  0.00    +0.000 A 
ATOM     23  N   UNL     1      45.540   1.932   8.835  0.00  0.00    +0.000 NA
BRANCH  18  25
ATOM     24  N   UNL     1      47.729   0.869   6.144  0.00  0.00    +0.000 N 
ATOM     25  C   UNL     1      46.977   0.784   7.286  0.00  0.00    +0.000 C 
ATOM     26  O   UNL     1      46.803  -0.286   7.854  0.00  0.00    +0.000 OA
ATOM     27  H   UNL     1      48.202   0.035   5.830  0.00  0.00    +0.000 HD
ATOM     28  H   UNL     1      48.004   1.771   5.775  0.00  0.00    +0.000 HD
ENDBRANCH  18  25
ENDBRANCH  17  22
ENDBRANCH  16  17
ENDBRANCH   1  16
TORSDOF 6
ENDMDL
MODEL 3
REMARK VINA RESULT:    -7.634      4.303      7.606
REMARK INTER + INTRA:         -11.518
REMARK INTER:                 -10.749
REMARK INTRA:                  -0.769
REMARK UNBOUND:                -1.207
REMARK  Name = 
REMARK  6 active torsions:
REMARK  status: ('A' for Active; 'I' for Inactive)
REMARK    1  A    between atoms: C_2  and  C_4
REMARK    2  A    between atoms: C_8  and  O_9
REMARK    3  A    between atoms: O_9  and  C_10
REMARK    4  A    between atoms: C_10  and  C_11
REMARK    5  A    between atoms: C_11  and  C_12
REMARK    6  A    between atoms: C_17  and  C_18
REMARK                            x       y       z     vdW  Elec       q    Type
REMARK                         _______ _______ _______ _____ _____    ______ ____
ROOT
ATOM      1  C   UNL     1      46.129   7.429  11.785  0.00  0.00    +0.000 C 
ENDROOT
BRANCH   1   2
ATOM      2  C   UNL     1      45.342   6.292  11.165  0.00  0.00    +0.000 A 
ATOM      3  C   UNL     1      44.029   6.026  11.569  0.00  0.00    +0.000 A 
ATOM      4  C   UNL     1      43.310   4.992  10.965  0.00  0.00    +0.000 A 
ATOM      5  F   UNL     1      42.056   4.749  11.366  0.00  0.00    +0.000 F 
ATOM      6  C   UNL     1      43.865   4.213   9.962  0.00  0.00    +0.000 A 
ATOM      7  C   UNL     1      45.182   4.447   9.530  0.00  0.00    +0.000 A 
ATOM      8  C   UNL     1      45.895   5.496  10.146  0.00  0.00    +0.000 A 
BRANCH   7   9
ATOM      9  C   UNL     1      45.803   3.625   8.470  0.00  0.00    +0.000 A 
ATOM     10  C   UNL     1      46.315   4.202   7.295  0.00  0.00    +0.000 A 
ATOM     11  C   UNL     1      46.898   3.419   6.294  0.00  0.00    +0.000 A 
ATOM     12  C   UNL     1      46.989   2.040   6.454  0.00  0.00    +0.000 A 
ATOM     13  C   UNL     1      46.490   1.448   7.609  0.00  0.00    +0.000 A 
ATOM     14 CL   UNL     1      46.583  -0.259   7.811  0.00  0.00    +0.000 Cl
ATOM     15  C   UNL     1      45.903   2.226   8.605  0.00  0.00    +0.000 A 
ENDBRANCH   7   9
ENDBRANCH   1   2
BRANCH   1  16
ATOM     16  C   UNL     1      47.426   6.946  12.441  0.00  0.00    +0.000 C 
BRANCH  16  17
ATOM     17  O   UNL     1      47.265   5.664  13.096  0.00  0.00    +0.000 OA
BRANCH  17  22
ATOM     18  C   UNL     1      47.954   4.697  16.458  0.00  0.00    +0.000 A 
ATOM     19  C   UNL     1      48.718   5.732  16.970  0.00  0.00    +0.000 A 
ATOM     20  C   UNL     1      49.010   6.800  16.121  0.00  0.00    +0.000 A 
ATOM     21  C   UNL     1      48.528   6.793  14.807  0.00  0.00    +0.000 A 
ATOM     22  C   UNL     1      47.768   5.705  14.392  0.00  0.00    +0.000 A 
ATOM     23  N   UNL     1      47.480   4.664  15.193  0.00  0.00    +0.000 NA
BRANCH  18  25
ATOM     24  N   UNL     1      48.635   2.958  18.022  0.00  0.00    +0.000 N 
ATOM     25  C   UNL     1      47.611   3.514  17.300  0.00  0.00    +0.000 C 
ATOM     26  O   UNL     1      46.473   3.068  17.366  0.00  0.00    +0.000 OA
ATOM     27  H   UNL     1      48.405   2.219  18.671  0.00  0.00    +0.000 HD
ATOM     28  H   UNL     1      49.530   3.426  18.091  0.00  0.00    +0.000 HD
ENDBRANCH  18  25
ENDBRANCH  17  22
ENDBRANCH  16  17
ENDBRANCH   1  16
TORSDOF 6
ENDMDL
MODEL 4
REMARK VINA RESULT:    -7.308      4.495      7.562
REMARK INTER + INTRA:         -11.078
REMARK INTER:                 -10.133
REMARK INTRA:                  -0.945
REMARK UNBOUND:                -1.207
REMARK  Name = 
REMARK  6 active torsions:
REMARK  status: ('A' for Active; 'I' for Inactive)
REMARK    1  A    between atoms: C_2  and  C_4
REMARK    2  A    between atoms: C_8  and  O_9
REMARK    3  A    between atoms: O_9  and  C_10
REMARK    4  A    between atoms: C_10  and  C_11
REMARK    5  A    between atoms: C_11  and  C_12
REMARK    6  A    between atoms: C_17  and  C_18
REMARK                            x       y       z     vdW  Elec       q    Type
REMARK                         _______ _______ _______ _____ _____    ______ ____
ROOT
ATOM      1  C   UNL     1      49.083   8.190  12.545  0.00  0.00    +0.000 C 
ENDROOT
BRANCH   1   2
ATOM      2  C   UNL     1      47.604   8.011  12.267  0.00  0.00    +0.000 A 
ATOM      3  C   UNL     1      46.693   9.034  12.554  0.00  0.00    +0.000 A 
ATOM      4  C   UNL     1      45.339   8.862  12.263  0.00  0.00    +0.000 A 
ATOM      5  F   UNL     1      44.480   9.850  12.547  0.00  0.00    +0.000 F 
ATOM      6  C   UNL     1      44.863   7.693  11.690  0.00  0.00    +0.000 A 
ATOM      7  C   UNL     1      45.745   6.641  11.390  0.00  0.00    +0.000 A 
ATOM      8  C   UNL     1      47.112   6.830  11.685  0.00  0.00    +0.000 A 
BRANCH   7   9
ATOM      9  C   UNL     1      45.265   5.380  10.788  0.00  0.00    +0.000 A 
ATOM     10  C   UNL     1      44.466   4.476  11.511  0.00  0.00    +0.000 A 
ATOM     11  C   UNL     1      44.018   3.283  10.938  0.00  0.00    +0.000 A 
ATOM     12  C   UNL     1      44.354   2.972   9.624  0.00  0.00    +0.000 A 
ATOM     13  C   UNL     1      45.142   3.852   8.890  0.00  0.00    +0.000 A 
ATOM     14 CL   UNL     1      45.576   3.470   7.269  0.00  0.00    +0.000 Cl
ATOM     15  C   UNL     1      45.595   5.039   9.462  0.00  0.00    +0.000 A 
ENDBRANCH   7   9
ENDBRANCH   1   2
BRANCH   1  16
ATOM     16  C   UNL     1      49.440   7.886  14.003  0.00  0.00    +0.000 C 
BRANCH  16  17
ATOM     17  O   UNL     1      49.196   6.501  14.351  0.00  0.00    +0.000 OA
BRANCH  17  22
ATOM     18  C   UNL     1      48.091   5.050  17.414  0.00  0.00    +0.000 A 
ATOM     19  C   UNL     1      48.152   6.084  18.333  0.00  0.00    +0.000 A 
ATOM     20  C   UNL     1      48.596   7.325  17.879  0.00  0.00    +0.000 A 
ATOM     21  C   UNL     1      48.955   7.485  16.535  0.00  0.00    +0.000 A 
ATOM     22  C   UNL     1      48.856   6.382  15.694  0.00  0.00    +0.000 A 
ATOM     23  N   UNL     1      48.435   5.175  16.114  0.00  0.00    +0.000 NA
BRANCH  18  25
ATOM     24  N   UNL     1      48.337   3.093  18.844  0.00  0.00    +0.000 N 
ATOM     25  C   UNL     1      47.639   3.689  17.827  0.00  0.00    +0.000 C 
ATOM     26  O   UNL     1      46.680   3.134  17.305  0.00  0.00    +0.000 OA
ATOM     27  H   UNL     1      47.988   2.216  19.203  0.00  0.00    +0.000 HD
ATOM     28  H   UNL     1      49.018   3.619  19.379  0.00  0.00    +0.000 HD
ENDBRANCH  18  25
ENDBRANCH  17  22
ENDBRANCH  16  17
ENDBRANCH   1  16
TORSDOF 6
ENDMDL
MODEL 5
REMARK VINA RESULT:    -7.203      2.950      3.531
REMARK INTER + INTRA:         -10.936
REMARK INTER:                  -9.881
REMARK INTRA:                  -1.055
REMARK UNBOUND:                -1.207
REMARK  Name = 
REMARK  6 active torsions:
REMARK  status: ('A' for Active; 'I' for Inactive)
REMARK    1  A    between atoms: C_2  and  C_4
REMARK    2  A    between atoms: C_8  and  O_9
REMARK    3  A    between atoms: O_9  and  C_10
REMARK    4  A    between atoms: C_10  and  C_11
REMARK    5  A    between atoms: C_11  and  C_12
REMARK    6  A    between atoms: C_17  and  C_18
REMARK                            x       y       z     vdW  Elec       q    Type
REMARK                         _______ _______ _______ _____ _____    ______ ____
ROOT
ATOM      1  C   UNL     1      43.815   6.049  11.715  0.00  0.00    +0.000 C 
ENDROOT
BRANCH   1   2
ATOM      2  C   UNL     1      45.218   5.998  12.284  0.00  0.00    +0.000 A 
ATOM      3  C   UNL     1      45.595   4.984  13.172  0.00  0.00    +0.000 A 
ATOM      4  C   UNL     1      46.902   4.938  13.662  0.00  0.00    +0.000 A 
ATOM      5  F   UNL     1      47.244   3.962  14.514  0.00  0.00    +0.000 F 
ATOM      6  C   UNL     1      47.850   5.877  13.289  0.00  0.00    +0.000 A 
ATOM      7  C   UNL     1      47.510   6.913  12.402  0.00  0.00    +0.000 A 
ATOM      8  C   UNL     1      46.188   6.945  11.911  0.00  0.00    +0.000 A 
BRANCH   7   9
ATOM      9  C   UNL     1      48.497   7.935  11.996  0.00  0.00    +0.000 A 
ATOM     10  C   UNL     1      48.147   9.291  11.874  0.00  0.00    +0.000 A 
ATOM     11  C   UNL     1      49.084  10.252  11.486  0.00  0.00    +0.000 A 
ATOM     12  C   UNL     1      50.396   9.877  11.218  0.00  0.00    +0.000 A 
ATOM     13  C   UNL     1      50.766   8.541  11.333  0.00  0.00    +0.000 A 
ATOM     14 CL   UNL     1      52.383   8.062  10.989  0.00  0.00    +0.000 Cl
ATOM     15  C   UNL     1      49.831   7.580  11.714  0.00  0.00    +0.000 A 
ENDBRANCH   7   9
ENDBRANCH   1   2
BRANCH   1  16
ATOM     16  C   UNL     1      43.627   5.077  10.546  0.00  0.00    +0.000 C 
BRANCH  16  17
ATOM     17  O   UNL     1      44.619   5.269   9.508  0.00  0.00    +0.000 OA
BRANCH  17  22
ATOM     18  C   UNL     1      46.344   2.890   7.490  0.00  0.00    +0.000 A 
ATOM     19  C   UNL     1      46.021   1.662   8.045  0.00  0.00    +0.000 A 
ATOM     20  C   UNL     1      45.182   1.657   9.158  0.00  0.00    +0.000 A 
ATOM     21  C   UNL     1      44.700   2.868   9.668  0.00  0.00    +0.000 A 
ATOM     22  C   UNL     1      45.082   4.046   9.037  0.00  0.00    +0.000 A 
ATOM     23  N   UNL     1      45.895   4.072   7.965  0.00  0.00    +0.000 NA
BRANCH  18  25
ATOM     24  N   UNL     1      48.529   2.526   6.477  0.00  0.00    +0.000 N 
ATOM     25  C   UNL     1      47.247   2.977   6.305  0.00  0.00    +0.000 C 
ATOM     26  O   UNL     1      46.864   3.409   5.225  0.00  0.00    +0.000 OA
ATOM     27  H   UNL     1      49.126   2.487   5.664  0.00  0.00    +0.000 HD
ATOM     28  H   UNL     1      48.790   2.023   7.316  0.00  0.00    +0.000 HD
ENDBRANCH  18  25
ENDBRANCH  17  22
ENDBRANCH  16  17
ENDBRANCH   1  16
TORSDOF 6
ENDMDL
MODEL 6
REMARK VINA RESULT:    -7.111      2.124      2.502
REMARK INTER + INTRA:         -10.812
REMARK INTER:                  -9.760
REMARK INTRA:                  -1.052
REMARK UNBOUND:                -1.207
REMARK  Name = 
REMARK  6 active torsions:
REMARK  status: ('A' for Active; 'I' for Inactive)
REMARK    1  A    between atoms: C_2  and  C_4
REMARK    2  A    between atoms: C_8  and  O_9
REMARK    3  A    between atoms: O_9  and  C_10
REMARK    4  A    between atoms: C_10  and  C_11
REMARK    5  A    between atoms: C_11  and  C_12
REMARK    6  A    between atoms: C_17  and  C_18
REMARK                            x       y       z     vdW  Elec       q    Type
REMARK                         _______ _______ _______ _____ _____    ______ ____
ROOT
ATOM      1  C   UNL     1      43.921   4.132  12.224  0.00  0.00    +0.000 C 
ENDROOT
BRANCH   1   2
ATOM      2  C   UNL     1      45.162   4.756  12.830  0.00  0.00    +0.000 A 
ATOM      3  C   UNL     1      45.876   4.097  13.838  0.00  0.00    +0.000 A 
ATOM      4  C   UNL     1      47.033   4.675  14.362  0.00  0.00    +0.000 A 
ATOM      5  F   UNL     1      47.703   4.032  15.328  0.00  0.00    +0.000 F 
ATOM      6  C   UNL     1      47.504   5.897  13.908  0.00  0.00    +0.000 A 
ATOM      7  C   UNL     1      46.813   6.592  12.900  0.00  0.00    +0.000 A 
ATOM      8  C   UNL     1      45.648   5.995  12.376  0.00  0.00    +0.000 A 
BRANCH   7   9
ATOM      9  C   UNL     1      47.285   7.901  12.404  0.00  0.00    +0.000 A 
ATOM     10  C   UNL     1      46.426   9.010  12.318  0.00  0.00    +0.000 A 
ATOM     11  C   UNL     1      46.877  10.246  11.845  0.00  0.00    +0.000 A 
ATOM     12  C   UNL     1      48.203  10.399  11.454  0.00  0.00    +0.000 A 
ATOM     13  C   UNL     1      49.072   9.316  11.532  0.00  0.00    +0.000 A 
ATOM     14 CL   UNL     1      50.710   9.490  11.036  0.00  0.00    +0.000 Cl
ATOM     15  C   UNL     1      48.622   8.082  11.997  0.00  0.00    +0.000 A 
ENDBRANCH   7   9
ENDBRANCH   1   2
BRANCH   1  16
ATOM     16  C   UNL     1      43.882   4.280  10.700  0.00  0.00    +0.000 C 
BRANCH  16  17
ATOM     17  O   UNL     1      44.109   3.021  10.021  0.00  0.00    +0.000 OA
BRANCH  17  22
ATOM     18  C   UNL     1      46.573   2.142   7.600  0.00  0.00    +0.000 A 
ATOM     19  C   UNL     1      47.049   3.355   7.129  0.00  0.00    +0.000 A 
ATOM     20  C   UNL     1      46.495   4.517   7.664  0.00  0.00    +0.000 A 
ATOM     21  C   UNL     1      45.498   4.423   8.642  0.00  0.00    +0.000 A 
ATOM     22  C   UNL     1      45.092   3.157   9.047  0.00  0.00    +0.000 A 
ATOM     23  N   UNL     1      45.610   2.024   8.539  0.00  0.00    +0.000 NA
BRANCH  18  25
ATOM     24  N   UNL     1      46.730  -0.287   7.723  0.00  0.00    +0.000 N 
ATOM     25  C   UNL     1      47.108   0.855   7.066  0.00  0.00    +0.000 C 
ATOM     26  O   UNL     1      47.830   0.809   6.079  0.00  0.00    +0.000 OA
ATOM     27  H   UNL     1      47.001  -1.172   7.321  0.00  0.00    +0.000 HD
ATOM     28  H   UNL     1      46.007  -0.257   8.432  0.00  0.00    +0.000 HD
ENDBRANCH  18  25
ENDBRANCH  17  22
ENDBRANCH  16  17
ENDBRANCH   1  16
TORSDOF 6
ENDMDL
MODEL 7
REMARK VINA RESULT:    -6.592      5.054      7.615
REMARK INTER + INTRA:         -10.111
REMARK INTER:                  -9.240
REMARK INTRA:                  -0.871
REMARK UNBOUND:                -1.207
REMARK  Name = 
REMARK  6 active torsions:
REMARK  status: ('A' for Active; 'I' for Inactive)
REMARK    1  A    between atoms: C_2  and  C_4
REMARK    2  A    between atoms: C_8  and  O_9
REMARK    3  A    between atoms: O_9  and  C_10
REMARK    4  A    between atoms: C_10  and  C_11
REMARK    5  A    between atoms: C_11  and  C_12
REMARK    6  A    between atoms: C_17  and  C_18
REMARK                            x       y       z     vdW  Elec       q    Type
REMARK                         _______ _______ _______ _____ _____    ______ ____
ROOT
ATOM      1  C   UNL     1      48.977   7.163  13.674  0.00  0.00    +0.000 C 
ENDROOT
BRANCH   1   2
ATOM      2  C   UNL     1      47.600   7.247  13.047  0.00  0.00    +0.000 A 
ATOM      3  C   UNL     1      46.822   8.403  13.179  0.00  0.00    +0.000 A 
ATOM      4  C   UNL     1      45.568   8.472  12.568  0.00  0.00    +0.000 A 
ATOM      5  F   UNL     1      44.836   9.585  12.707  0.00  0.00    +0.000 F 
ATOM      6  C   UNL     1      45.065   7.416  11.824  0.00  0.00    +0.000 A 
ATOM      7  C   UNL     1      45.814   6.237  11.671  0.00  0.00    +0.000 A 
ATOM      8  C   UNL     1      47.081   6.182  12.289  0.00  0.00    +0.000 A 
BRANCH   7   9
ATOM      9  C   UNL     1      45.298   5.091  10.893  0.00  0.00    +0.000 A 
ATOM     10  C   UNL     1      44.408   4.159  11.456  0.00  0.00    +0.000 A 
ATOM     11  C   UNL     1      43.926   3.076  10.716  0.00  0.00    +0.000 A 
ATOM     12  C   UNL     1      44.319   2.907   9.393  0.00  0.00    +0.000 A 
ATOM     13  C   UNL     1      45.198   3.817   8.815  0.00  0.00    +0.000 A 
ATOM     14 CL   UNL     1      45.703   3.609   7.183  0.00  0.00    +0.000 Cl
ATOM     15  C   UNL     1      45.685   4.894   9.553  0.00  0.00    +0.000 A 
ENDBRANCH   7   9
ENDBRANCH   1   2
BRANCH   1  16
ATOM     16  C   UNL     1      48.913   7.044  15.200  0.00  0.00    +0.000 C 
BRANCH  16  17
ATOM     17  O   UNL     1      47.826   6.192  15.638  0.00  0.00    +0.000 OA
BRANCH  17  22
ATOM     18  C   UNL     1      50.071   4.023  17.359  0.00  0.00    +0.000 A 
ATOM     19  C   UNL     1      49.348   2.857  17.557  0.00  0.00    +0.000 A 
ATOM     20  C   UNL     1      48.038   2.823  17.083  0.00  0.00    +0.000 A 
ATOM     21  C   UNL     1      47.505   3.942  16.433  0.00  0.00    +0.000 A 
ATOM     22  C   UNL     1      48.315   5.063  16.284  0.00  0.00    +0.000 A 
ATOM     23  N   UNL     1      49.580   5.118  16.739  0.00  0.00    +0.000 NA
BRANCH  18  25
ATOM     24  N   UNL     1      51.820   3.357  18.920  0.00  0.00    +0.000 N 
ATOM     25  C   UNL     1      51.475   4.141  17.850  0.00  0.00    +0.000 C 
ATOM     26  O   UNL     1      52.291   4.882  17.317  0.00  0.00    +0.000 OA
ATOM     27  H   UNL     1      52.788   3.350  19.205  0.00  0.00    +0.000 HD
ATOM     28  H   UNL     1      51.194   2.632  19.249  0.00  0.00    +0.000 HD
ENDBRANCH  18  25
ENDBRANCH  17  22
ENDBRANCH  16  17
ENDBRANCH   1  16
TORSDOF 6
ENDMDL
MODEL 8
REMARK VINA RESULT:    -6.452      4.984      7.549
REMARK INTER + INTRA:          -9.922
REMARK INTER:                  -8.718
REMARK INTRA:                  -1.204
REMARK UNBOUND:                -1.207
REMARK  Name = 
REMARK  6 active torsions:
REMARK  status: ('A' for Active; 'I' for Inactive)
REMARK    1  A    between atoms: C_2  and  C_4
REMARK    2  A    between atoms: C_8  and  O_9
REMARK    3  A    between atoms: O_9  and  C_10
REMARK    4  A    between atoms: C_10  and  C_11
REMARK    5  A    between atoms: C_11  and  C_12
REMARK    6  A    between atoms: C_17  and  C_18
REMARK                            x       y       z     vdW  Elec       q    Type
REMARK                         _______ _______ _______ _____ _____    ______ ____
ROOT
ATOM      1  C   UNL     1      49.066   9.061  15.833  0.00  0.00    +0.000 C 
ENDROOT
BRANCH   1   2
ATOM      2  C   UNL     1      48.758   8.606  14.421  0.00  0.00    +0.000 A 
ATOM      3  C   UNL     1      49.286   9.287  13.318  0.00  0.00    +0.000 A 
ATOM      4  C   UNL     1      49.014   8.835  12.025  0.00  0.00    +0.000 A 
ATOM      5  F   UNL     1      49.525   9.500  10.981  0.00  0.00    +0.000 F 
ATOM      6  C   UNL     1      48.228   7.716  11.799  0.00  0.00    +0.000 A 
ATOM      7  C   UNL     1      47.676   7.006  12.880  0.00  0.00    +0.000 A 
ATOM      8  C   UNL     1      47.962   7.472  14.180  0.00  0.00    +0.000 A 
BRANCH   7   9
ATOM      9  C   UNL     1      46.826   5.817  12.668  0.00  0.00    +0.000 A 
ATOM     10  C   UNL     1      46.943   4.673  13.477  0.00  0.00    +0.000 A 
ATOM     11  C   UNL     1      46.138   3.550  13.269  0.00  0.00    +0.000 A 
ATOM     12  C   UNL     1      45.192   3.550  12.251  0.00  0.00    +0.000 A 
ATOM     13  C   UNL     1      45.057   4.671  11.438  0.00  0.00    +0.000 A 
ATOM     14 CL   UNL     1      43.900   4.677  10.165  0.00  0.00    +0.000 Cl
ATOM     15  C   UNL     1      45.863   5.790  11.640  0.00  0.00    +0.000 A 
ENDBRANCH   7   9
ENDBRANCH   1   2
BRANCH   1  16
ATOM     16  C   UNL     1      48.721   7.992  16.875  0.00  0.00    +0.000 C 
BRANCH  16  17
ATOM     17  O   UNL     1      49.718   6.944  16.937  0.00  0.00    +0.000 OA
BRANCH  17  22
ATOM     18  C   UNL     1      49.288   3.417  17.227  0.00  0.00    +0.000 A 
ATOM     19  C   UNL     1      48.013   3.262  17.746  0.00  0.00    +0.000 A 
ATOM     20  C   UNL     1      47.278   4.417  18.009  0.00  0.00    +0.000 A 
ATOM     21  C   UNL     1      47.840   5.672  17.743  0.00  0.00    +0.000 A 
ATOM     22  C   UNL     1      49.128   5.718  17.221  0.00  0.00    +0.000 A 
ATOM     23  N   UNL     1      49.854   4.615  16.966  0.00  0.00    +0.000 NA
BRANCH  18  25
ATOM     24  N   UNL     1      51.086   1.903  17.869  0.00  0.00    +0.000 N 
ATOM     25  C   UNL     1      50.140   2.228  16.932  0.00  0.00    +0.000 C 
ATOM     26  O   UNL     1      49.995   1.558  15.918  0.00  0.00    +0.000 OA
ATOM     27  H   UNL     1      51.605   1.048  17.735  0.00  0.00    +0.000 HD
ATOM     28  H   UNL     1      51.091   2.357  18.775  0.00  0.00    +0.000 HD
ENDBRANCH  18  25
ENDBRANCH  17  22
ENDBRANCH  16  17
ENDBRANCH   1  16
TORSDOF 6
ENDMDL
MODEL 9
REMARK VINA RESULT:    -6.326      5.211      7.977
REMARK INTER + INTRA:          -9.752
REMARK INTER:                  -8.809
REMARK INTRA:                  -0.943
REMARK UNBOUND:                -1.207
REMARK  Name = 
REMARK  6 active torsions:
REMARK  status: ('A' for Active; 'I' for Inactive)
REMARK    1  A    between atoms: C_2  and  C_4
REMARK    2  A    between atoms: C_8  and  O_9
REMARK    3  A    between atoms: O_9  and  C_10
REMARK    4  A    between atoms: C_10  and  C_11
REMARK    5  A    between atoms: C_11  and  C_12
REMARK    6  A    between atoms: C_17  and  C_18
REMARK                            x       y       z     vdW  Elec       q    Type
REMARK                         _______ _______ _______ _____ _____    ______ ____
ROOT
ATOM      1  C   UNL     1      48.959   7.881  13.596  0.00  0.00    +0.000 C 
ENDROOT
BRANCH   1   2
ATOM      2  C   UNL     1      47.582   7.882  12.963  0.00  0.00    +0.000 A 
ATOM      3  C   UNL     1      46.754   9.006  13.054  0.00  0.00    +0.000 A 
ATOM      4  C   UNL     1      45.500   8.999  12.440  0.00  0.00    +0.000 A 
ATOM      5  F   UNL     1      44.719  10.082  12.539  0.00  0.00    +0.000 F 
ATOM      6  C   UNL     1      45.046   7.897  11.731  0.00  0.00    +0.000 A 
ATOM      7  C   UNL     1      45.847   6.747  11.620  0.00  0.00    +0.000 A 
ATOM      8  C   UNL     1      47.112   6.770  12.242  0.00  0.00    +0.000 A 
BRANCH   7   9
ATOM      9  C   UNL     1      45.384   5.554  10.881  0.00  0.00    +0.000 A 
ATOM     10  C   UNL     1      45.681   5.370   9.519  0.00  0.00    +0.000 A 
ATOM     11  C   UNL     1      45.237   4.241   8.824  0.00  0.00    +0.000 A 
ATOM     12  C   UNL     1      44.493   3.268   9.482  0.00  0.00    +0.000 A 
ATOM     13  C   UNL     1      44.189   3.428  10.829  0.00  0.00    +0.000 A 
ATOM     14 CL   UNL     1      43.256   2.237  11.649  0.00  0.00    +0.000 Cl
ATOM     15  C   UNL     1      44.625   4.556  11.522  0.00  0.00    +0.000 A 
ENDBRANCH   7   9
ENDBRANCH   1   2
BRANCH   1  16
ATOM     16  C   UNL     1      48.906   7.610  15.102  0.00  0.00    +0.000 C 
BRANCH  16  17
ATOM     17  O   UNL     1      49.622   6.405  15.469  0.00  0.00    +0.000 OA
BRANCH  17  22
ATOM     18  C   UNL     1      48.370   4.835  18.414  0.00  0.00    +0.000 A 
ATOM     19  C   UNL     1      47.348   4.014  17.966  0.00  0.00    +0.000 A 
ATOM     20  C   UNL     1      47.079   4.008  16.598  0.00  0.00    +0.000 A 
ATOM     21  C   UNL     1      47.837   4.812  15.738  0.00  0.00    +0.000 A 
ATOM     22  C   UNL     1      48.842   5.598  16.290  0.00  0.00    +0.000 A 
ATOM     23  N   UNL     1      49.113   5.623  17.607  0.00  0.00    +0.000 NA
BRANCH  18  25
ATOM     24  N   UNL     1      49.871   4.295  20.256  0.00  0.00    +0.000 N 
ATOM     25  C   UNL     1      48.708   4.906  19.866  0.00  0.00    +0.000 C 
ATOM     26  O   UNL     1      48.000   5.497  20.672  0.00  0.00    +0.000 OA
ATOM     27  H   UNL     1      50.166   4.415  21.214  0.00  0.00    +0.000 HD
ATOM     28  H   UNL     1      50.530   3.954  19.567  0.00  0.00    +0.000 HD
ENDBRANCH  18  25
ENDBRANCH  17  22
ENDBRANCH  16  17
ENDBRANCH   1  16
TORSDOF 6
ENDMDL
