MODEL 1
REMARK VINA RESULT:    -7.310      0.000      0.000
REMARK INTER + INTRA:          -9.796
REMARK INTER:                  -9.019
REMARK INTRA:                  -0.777
REMARK UNBOUND:                -0.777
REMARK  Name = 
REMARK  5 active torsions:
REMARK  status: ('A' for Active; 'I' for Inactive)
REMARK    1  A    between atoms: C_1  and  C_2
REMARK    2  A    between atoms: C_5  and  O_6
REMARK    3  A    between atoms: O_6  and  C_7
REMARK    4  A    between atoms: C_7  and  C_8
REMARK    5  A    between atoms: C_13  and  C_14
REMARK                            x       y       z     vdW  Elec       q    Type
REMARK                         _______ _______ _______ _____ _____    ______ ____
ROOT
ATOM      1  C   UNL     1      45.175   5.108  12.043  0.00  0.00    +0.000 A 
ATOM      2  C   UNL     1      45.523   4.085  12.930  0.00  0.00    +0.000 A 
ATOM      3  C   UNL     1      46.745   4.116  13.589  0.00  0.00    +0.000 A 
ATOM      4  F   UNL     1      47.076   3.112  14.410  0.00  0.00    +0.000 F 
ATOM      5  C   UNL     1      47.644   5.161  13.391  0.00  0.00    +0.000 A 
ATOM      6  C   UNL     1      47.318   6.234  12.547  0.00  0.00    +0.000 A 
ATOM      7  C   UNL     1      46.078   6.179  11.894  0.00  0.00    +0.000 A 
ENDROOT
BRANCH   6   8
ATOM      8  C   UNL     1      48.330   7.352  12.305  0.00  0.00    +0.000 C 
ATOM      9  C   UNL     1      49.203   7.653  13.539  0.00  0.00    +0.000 C 
ATOM     10  C   UNL     1      48.465   8.501  14.573  0.00  0.00    +0.000 C 
ATOM     11  N   UNL     1      47.994   9.765  14.003  0.00  0.00    +0.000 NA
ATOM     12  C   UNL     1      47.100   9.529  12.871  0.00  0.00    +0.000 C 
ATOM     13  C   UNL     1      47.767   8.690  11.776  0.00  0.00    +0.000 C 
ATOM     14  H   UNL     1      48.796  10.312  13.690  0.00  0.00    +0.000 HD
ENDBRANCH   6   8
BRANCH   1  15
ATOM     15  C   UNL     1      43.884   5.061  11.253  0.00  0.00    +0.000 C 
ATOM     16  C   UNL     1      42.560   5.349  11.973  0.00  0.00    +0.000 C 
ATOM     17  C   UNL     1      43.131   6.362  11.044  0.00  0.00    +0.000 C 
BRANCH  15  18
ATOM     18  O   UNL     1      43.739   3.923  10.376  0.00  0.00    +0.000 OA
BRANCH  18  23
ATOM     19  C   UNL     1      47.114   2.231   6.345  0.00  0.00    +0.000 C 
ATOM     20  C   UNL     1      46.372   2.734   7.538  0.00  0.00    +0.000 A 
ATOM     21  C   UNL     1      46.067   4.086   7.688  0.00  0.00    +0.000 A 
ATOM     22  N   UNL     1      45.266   4.559   8.675  0.00  0.00    +0.000 NA
ATOM     23  C   UNL     1      44.764   3.622   9.504  0.00  0.00    +0.000 A 
ATOM     24  C   UNL     1      45.118   2.285   9.408  0.00  0.00    +0.000 A 
ATOM     25  N   UNL     1      45.930   1.811   8.428  0.00  0.00    +0.000 NA
ENDBRANCH  18  23
ENDBRANCH  15  18
ENDBRANCH   1  15
TORSDOF 4
ENDMDL
MODEL 2
REMARK VINA RESULT:    -6.809      2.378      3.218
REMARK INTER + INTRA:          -9.178
REMARK INTER:                  -8.548
REMARK INTRA:                  -0.630
REMARK UNBOUND:                -0.777
REMARK  Name = 
REMARK  5 active torsions:
REMARK  status: ('A' for Active; 'I' for Inactive)
REMARK    1  A    between atoms: C_1  and  C_2
REMARK    2  A    between atoms: C_5  and  O_6
REMARK    3  A    between atoms: O_6  and  C_7
REMARK    4  A    between atoms: C_7  and  C_8
REMARK    5  A    between atoms: C_13  and  C_14
REMARK                            x       y       z     vdW  Elec       q    Type
REMARK                         _______ _______ _______ _____ _____    ______ ____
ROOT
ATOM      1  C   UNL     1      44.547   6.897  11.884  0.00  0.00    +0.000 A 
ATOM      2  C   UNL     1      43.933   7.962  11.218  0.00  0.00    +0.000 A 
ATOM      3  C   UNL     1      44.442   9.248  11.337  0.00  0.00    +0.000 A 
ATOM      4  F   UNL     1      43.821  10.261  10.720  0.00  0.00    +0.000 F 
ATOM      5  C   UNL     1      45.571   9.508  12.109  0.00  0.00    +0.000 A 
ATOM      6  C   UNL     1      46.250   8.464  12.757  0.00  0.00    +0.000 A 
ATOM      7  C   UNL     1      45.717   7.174  12.619  0.00  0.00    +0.000 A 
ENDROOT
BRANCH   6   8
ATOM      8  C   UNL     1      47.462   8.768  13.635  0.00  0.00    +0.000 C 
ATOM      9  C   UNL     1      48.439   9.769  12.989  0.00  0.00    +0.000 C 
ATOM     10  C   UNL     1      49.327   9.110  11.936  0.00  0.00    +0.000 C 
ATOM     11  N   UNL     1      50.090   7.991  12.493  0.00  0.00    +0.000 NA
ATOM     12  C   UNL     1      49.201   6.976  13.053  0.00  0.00    +0.000 C 
ATOM     13  C   UNL     1      48.277   7.552  14.131  0.00  0.00    +0.000 C 
ATOM     14  H   UNL     1      50.709   8.338  13.226  0.00  0.00    +0.000 HD
ENDBRANCH   6   8
BRANCH   1  15
ATOM     15  C   UNL     1      43.971   5.498  11.834  0.00  0.00    +0.000 C 
ATOM     16  C   UNL     1      43.013   5.047  12.946  0.00  0.00    +0.000 C 
ATOM     17  C   UNL     1      42.479   5.353  11.591  0.00  0.00    +0.000 C 
BRANCH  15  18
ATOM     18  O   UNL     1      44.918   4.451  11.535  0.00  0.00    +0.000 OA
BRANCH  18  23
ATOM     19  C   UNL     1      46.516   2.967   6.462  0.00  0.00    +0.000 C 
ATOM     20  C   UNL     1      45.895   3.373   7.757  0.00  0.00    +0.000 A 
ATOM     21  C   UNL     1      45.375   2.430   8.641  0.00  0.00    +0.000 A 
ATOM     22  N   UNL     1      44.943   2.744   9.887  0.00  0.00    +0.000 NA
ATOM     23  C   UNL     1      45.066   4.043  10.227  0.00  0.00    +0.000 A 
ATOM     24  C   UNL     1      45.515   5.000   9.331  0.00  0.00    +0.000 A 
ATOM     25  N   UNL     1      45.936   4.690   8.076  0.00  0.00    +0.000 NA
ENDBRANCH  18  23
ENDBRANCH  15  18
ENDBRANCH   1  15
TORSDOF 4
ENDMDL
MODEL 3
REMARK VINA RESULT:    -6.764      3.172      6.686
REMARK INTER + INTRA:          -9.122
REMARK INTER:                  -8.734
REMARK INTRA:                  -0.389
REMARK UNBOUND:                -0.777
REMARK  Name = 
REMARK  5 active torsions:
REMARK  status: ('A' for Active; 'I' for Inactive)
REMARK    1  A    between atoms: C_1  and  C_2
REMARK    2  A    between atoms: C_5  and  O_6
REMARK    3  A    between atoms: O_6  and  C_7
REMARK    4  A    between atoms: C_7  and  C_8
REMARK    5  A    between atoms: C_13  and  C_14
REMARK                            x       y       z     vdW  Elec       q    Type
REMARK                         _______ _______ _______ _____ _____    ______ ____
ROOT
ATOM      1  C   UNL     1      46.790   7.557  12.157  0.00  0.00    +0.000 A 
ATOM      2  C   UNL     1      46.282   8.860  12.162  0.00  0.00    +0.000 A 
ATOM      3  C   UNL     1      44.971   9.101  11.774  0.00  0.00    +0.000 A 
ATOM      4  F   UNL     1      44.511  10.359  11.753  0.00  0.00    +0.000 F 
ATOM      5  C   UNL     1      44.133   8.061  11.381  0.00  0.00    +0.000 A 
ATOM      6  C   UNL     1      44.583   6.732  11.406  0.00  0.00    +0.000 A 
ATOM      7  C   UNL     1      45.911   6.515  11.803  0.00  0.00    +0.000 A 
ENDROOT
BRANCH   6   8
ATOM      8  C   UNL     1      43.667   5.605  10.932  0.00  0.00    +0.000 C 
ATOM      9  C   UNL     1      42.566   5.254  11.950  0.00  0.00    +0.000 C 
ATOM     10  C   UNL     1      43.093   4.388  13.094  0.00  0.00    +0.000 C 
ATOM     11  N   UNL     1      43.700   3.150  12.602  0.00  0.00    +0.000 NA
ATOM     12  C   UNL     1      44.802   3.433  11.687  0.00  0.00    +0.000 C 
ATOM     13  C   UNL     1      44.357   4.292  10.499  0.00  0.00    +0.000 C 
ATOM     14  H   UNL     1      42.992   2.599  12.116  0.00  0.00    +0.000 HD
ENDBRANCH   6   8
BRANCH   1  15
ATOM     15  C   UNL     1      48.236   7.274  12.500  0.00  0.00    +0.000 C 
ATOM     16  C   UNL     1      49.336   7.731  11.531  0.00  0.00    +0.000 C 
ATOM     17  C   UNL     1      49.136   8.455  12.816  0.00  0.00    +0.000 C 
BRANCH  15  18
ATOM     18  O   UNL     1      48.508   5.936  12.968  0.00  0.00    +0.000 OA
BRANCH  18  23
ATOM     19  C   UNL     1      47.286   3.600  17.821  0.00  0.00    +0.000 C 
ATOM     20  C   UNL     1      47.480   4.374  16.560  0.00  0.00    +0.000 A 
ATOM     21  C   UNL     1      48.380   5.436  16.490  0.00  0.00    +0.000 A 
ATOM     22  N   UNL     1      48.696   6.063  15.331  0.00  0.00    +0.000 NA
ATOM     23  C   UNL     1      48.086   5.576  14.231  0.00  0.00    +0.000 A 
ATOM     24  C   UNL     1      47.137   4.569  14.299  0.00  0.00    +0.000 A 
ATOM     25  N   UNL     1      46.809   3.947  15.462  0.00  0.00    +0.000 NA
ENDBRANCH  18  23
ENDBRANCH  15  18
ENDBRANCH   1  15
TORSDOF 4
ENDMDL
MODEL 4
REMARK VINA RESULT:    -6.140      2.445      6.669
REMARK INTER + INTRA:          -8.353
REMARK INTER:                  -8.228
REMARK INTRA:                  -0.126
REMARK UNBOUND:                -0.777
REMARK  Name = 
REMARK  5 active torsions:
REMARK  status: ('A' for Active; 'I' for Inactive)
REMARK    1  A    between atoms: C_1  and  C_2
REMARK    2  A    between atoms: C_5  and  O_6
REMARK    3  A    between atoms: O_6  and  C_7
REMARK    4  A    between atoms: C_7  and  C_8
REMARK    5  A    between atoms: C_13  and  C_14
REMARK                            x       y       z     vdW  Elec       q    Type
REMARK                         _______ _______ _______ _____ _____    ______ ____
ROOT
ATOM      1  C   UNL     1      47.359   6.708  12.599  0.00  0.00    +0.000 A 
ATOM      2  C   UNL     1      47.413   5.908  13.745  0.00  0.00    +0.000 A 
ATOM      3  C   UNL     1      46.527   4.851  13.902  0.00  0.00    +0.000 A 
ATOM      4  F   UNL     1      46.571   4.115  15.020  0.00  0.00    +0.000 F 
ATOM      5  C   UNL     1      45.574   4.558  12.929  0.00  0.00    +0.000 A 
ATOM      6  C   UNL     1      45.514   5.303  11.741  0.00  0.00    +0.000 A 
ATOM      7  C   UNL     1      46.421   6.364  11.606  0.00  0.00    +0.000 A 
ENDROOT
BRANCH   6   8
ATOM      8  C   UNL     1      44.436   4.999  10.702  0.00  0.00    +0.000 C 
ATOM      9  C   UNL     1      43.196   4.310  11.303  0.00  0.00    +0.000 C 
ATOM     10  C   UNL     1      43.426   2.820  11.548  0.00  0.00    +0.000 C 
ATOM     11  N   UNL     1      43.811   2.121  10.320  0.00  0.00    +0.000 NA
ATOM     12  C   UNL     1      45.029   2.693   9.751  0.00  0.00    +0.000 C 
ATOM     13  C   UNL     1      44.882   4.190   9.463  0.00  0.00    +0.000 C 
ATOM     14  H   UNL     1      43.055   2.196   9.640  0.00  0.00    +0.000 HD
ENDBRANCH   6   8
BRANCH   1  15
ATOM     15  C   UNL     1      48.261   7.913  12.436  0.00  0.00    +0.000 C 
ATOM     16  C   UNL     1      49.774   7.742  12.627  0.00  0.00    +0.000 C 
ATOM     17  C   UNL     1      49.218   7.929  11.259  0.00  0.00    +0.000 C 
BRANCH  15  18
ATOM     18  O   UNL     1      47.807   9.115  13.094  0.00  0.00    +0.000 OA
BRANCH  18  23
ATOM     19  C   UNL     1      44.692  12.021   9.579  0.00  0.00    +0.000 C 
ATOM     20  C   UNL     1      45.469  11.366  10.672  0.00  0.00    +0.000 A 
ATOM     21  C   UNL     1      44.899  10.390  11.486  0.00  0.00    +0.000 A 
ATOM     22  N   UNL     1      45.611   9.666  12.384  0.00  0.00    +0.000 NA
ATOM     23  C   UNL     1      46.930   9.945  12.429  0.00  0.00    +0.000 A 
ATOM     24  C   UNL     1      47.494  10.962  11.676  0.00  0.00    +0.000 A 
ATOM     25  N   UNL     1      46.779  11.698  10.784  0.00  0.00    +0.000 NA
ENDBRANCH  18  23
ENDBRANCH  15  18
ENDBRANCH   1  15
TORSDOF 4
ENDMDL
MODEL 5
REMARK VINA RESULT:    -6.071      3.268      7.441
REMARK INTER + INTRA:          -8.268
REMARK INTER:                  -8.038
REMARK INTRA:                  -0.230
REMARK UNBOUND:                -0.777
REMARK  Name = 
REMARK  5 active torsions:
REMARK  status: ('A' for Active; 'I' for Inactive)
REMARK    1  A    between atoms: C_1  and  C_2
REMARK    2  A    between atoms: C_5  and  O_6
REMARK    3  A    between atoms: O_6  and  C_7
REMARK    4  A    between atoms: C_7  and  C_8
REMARK    5  A    between atoms: C_13  and  C_14
REMARK                            x       y       z     vdW  Elec       q    Type
REMARK                         _______ _______ _______ _____ _____    ______ ____
ROOT
ATOM      1  C   UNL     1      47.347   7.765  12.274  0.00  0.00    +0.000 A 
ATOM      2  C   UNL     1      46.675   8.986  12.394  0.00  0.00    +0.000 A 
ATOM      3  C   UNL     1      45.334   9.082  12.051  0.00  0.00    +0.000 A 
ATOM      4  F   UNL     1      44.715  10.266  12.139  0.00  0.00    +0.000 F 
ATOM      5  C   UNL     1      44.626   7.974  11.591  0.00  0.00    +0.000 A 
ATOM      6  C   UNL     1      45.245   6.718  11.500  0.00  0.00    +0.000 A 
ATOM      7  C   UNL     1      46.600   6.647  11.854  0.00  0.00    +0.000 A 
ENDROOT
BRANCH   6   8
ATOM      8  C   UNL     1      44.470   5.521  10.953  0.00  0.00    +0.000 C 
ATOM      9  C   UNL     1      43.036   5.425  11.512  0.00  0.00    +0.000 C 
ATOM     10  C   UNL     1      43.006   4.841  12.923  0.00  0.00    +0.000 C 
ATOM     11  N   UNL     1      43.629   3.516  12.976  0.00  0.00    +0.000 NA
ATOM     12  C   UNL     1      45.017   3.571  12.525  0.00  0.00    +0.000 C 
ATOM     13  C   UNL     1      45.139   4.137  11.107  0.00  0.00    +0.000 C 
ATOM     14  H   UNL     1      43.106   2.875  12.379  0.00  0.00    +0.000 HD
ENDBRANCH   6   8
BRANCH   1  15
ATOM     15  C   UNL     1      48.828   7.648  12.567  0.00  0.00    +0.000 C 
ATOM     16  C   UNL     1      49.821   7.654  11.397  0.00  0.00    +0.000 C 
ATOM     17  C   UNL     1      49.707   8.851  12.274  0.00  0.00    +0.000 C 
BRANCH  15  18
ATOM     18  O   UNL     1      49.188   6.629  13.524  0.00  0.00    +0.000 OA
BRANCH  18  23
ATOM     19  C   UNL     1      48.052   8.050  18.738  0.00  0.00    +0.000 C 
ATOM     20  C   UNL     1      48.555   7.682  17.382  0.00  0.00    +0.000 A 
ATOM     21  C   UNL     1      48.877   6.365  17.059  0.00  0.00    +0.000 A 
ATOM     22  N   UNL     1      49.190   5.966  15.802  0.00  0.00    +0.000 NA
ATOM     23  C   UNL     1      49.153   6.937  14.867  0.00  0.00    +0.000 A 
ATOM     24  C   UNL     1      48.905   8.262  15.189  0.00  0.00    +0.000 A 
ATOM     25  N   UNL     1      48.604   8.666  16.451  0.00  0.00    +0.000 NA
ENDBRANCH  18  23
ENDBRANCH  15  18
ENDBRANCH   1  15
TORSDOF 4
ENDMDL
MODEL 6
REMARK VINA RESULT:    -5.655      3.625      5.581
REMARK INTER + INTRA:          -7.754
REMARK INTER:                  -7.433
REMARK INTRA:                  -0.322
REMARK UNBOUND:                -0.777
REMARK  Name = 
REMARK  5 active torsions:
REMARK  status: ('A' for Active; 'I' for Inactive)
REMARK    1  A    between atoms: C_1  and  C_2
REMARK    2  A    between atoms: C_5  and  O_6
REMARK    3  A    between atoms: O_6  and  C_7
REMARK    4  A    between atoms: C_7  and  C_8
REMARK    5  A    between atoms: C_13  and  C_14
REMARK                            x       y       z     vdW  Elec       q    Type
REMARK                         _______ _______ _______ _____ _____    ______ ____
ROOT
ATOM      1  C   UNL     1      48.825   7.208  14.113  0.00  0.00    +0.000 A 
ATOM      2  C   UNL     1      50.130   7.709  14.096  0.00  0.00    +0.000 A 
ATOM      3  C   UNL     1      50.970   7.510  15.183  0.00  0.00    +0.000 A 
ATOM      4  F   UNL     1      52.206   8.025  15.163  0.00  0.00    +0.000 F 
ATOM      5  C   UNL     1      50.541   6.806  16.305  0.00  0.00    +0.000 A 
ATOM      6  C   UNL     1      49.256   6.244  16.349  0.00  0.00    +0.000 A 
ATOM      7  C   UNL     1      48.428   6.458  15.237  0.00  0.00    +0.000 A 
ENDROOT
BRANCH   6   8
ATOM      8  C   UNL     1      48.783   5.512  17.603  0.00  0.00    +0.000 C 
ATOM      9  C   UNL     1      49.880   4.637  18.241  0.00  0.00    +0.000 C 
ATOM     10  C   UNL     1      50.066   3.314  17.499  0.00  0.00    +0.000 C 
ATOM     11  N   UNL     1      48.821   2.547  17.438  0.00  0.00    +0.000 NA
ATOM     12  C   UNL     1      47.767   3.309  16.772  0.00  0.00    +0.000 C 
ATOM     13  C   UNL     1      47.506   4.653  17.461  0.00  0.00    +0.000 C 
ATOM     14  H   UNL     1      48.521   2.315  18.385  0.00  0.00    +0.000 HD
ENDBRANCH   6   8
BRANCH   1  15
ATOM     15  C   UNL     1      47.863   7.476  12.975  0.00  0.00    +0.000 C 
ATOM     16  C   UNL     1      47.991   8.785  12.184  0.00  0.00    +0.000 C 
ATOM     17  C   UNL     1      48.421   7.502  11.564  0.00  0.00    +0.000 C 
BRANCH  15  18
ATOM     18  O   UNL     1      46.475   7.200  13.263  0.00  0.00    +0.000 OA
BRANCH  18  23
ATOM     19  C   UNL     1      43.405   2.905  11.643  0.00  0.00    +0.000 C 
ATOM     20  C   UNL     1      44.373   4.000  11.946  0.00  0.00    +0.000 A 
ATOM     21  C   UNL     1      44.399   5.176  11.200  0.00  0.00    +0.000 A 
ATOM     22  N   UNL     1      45.154   6.250  11.536  0.00  0.00    +0.000 NA
ATOM     23  C   UNL     1      45.878   6.111  12.666  0.00  0.00    +0.000 A 
ATOM     24  C   UNL     1      45.915   4.921  13.376  0.00  0.00    +0.000 A 
ATOM     25  N   UNL     1      45.168   3.839  13.033  0.00  0.00    +0.000 NA
ENDBRANCH  18  23
ENDBRANCH  15  18
ENDBRANCH   1  15
TORSDOF 4
ENDMDL
MODEL 7
REMARK VINA RESULT:    -5.577      3.926      7.806
REMARK INTER + INTRA:          -7.658
REMARK INTER:                  -7.361
REMARK INTRA:                  -0.297
REMARK UNBOUND:                -0.777
REMARK  Name = 
REMARK  5 active torsions:
REMARK  status: ('A' for Active; 'I' for Inactive)
REMARK    1  A    between atoms: C_1  and  C_2
REMARK    2  A    between atoms: C_5  and  O_6
REMARK    3  A    between atoms: O_6  and  C_7
REMARK    4  A    between atoms: C_7  and  C_8
REMARK    5  A    between atoms: C_13  and  C_14
REMARK                            x       y       z     vdW  Elec       q    Type
REMARK                         _______ _______ _______ _____ _____    ______ ____
ROOT
ATOM      1  C   UNL     1      47.551   7.172  13.981  0.00  0.00    +0.000 A 
ATOM      2  C   UNL     1      46.986   8.408  13.650  0.00  0.00    +0.000 A 
ATOM      3  C   UNL     1      46.007   8.489  12.669  0.00  0.00    +0.000 A 
ATOM      4  F   UNL     1      45.502   9.685  12.341  0.00  0.00    +0.000 F 
ATOM      5  C   UNL     1      45.560   7.352  12.001  0.00  0.00    +0.000 A 
ATOM      6  C   UNL     1      46.062   6.084  12.333  0.00  0.00    +0.000 A 
ATOM      7  C   UNL     1      47.049   6.029  13.328  0.00  0.00    +0.000 A 
ENDROOT
BRANCH   6   8
ATOM      8  C   UNL     1      45.594   4.851  11.563  0.00  0.00    +0.000 C 
ATOM      9  C   UNL     1      44.567   5.180  10.463  0.00  0.00    +0.000 C 
ATOM     10  C   UNL     1      43.164   5.398  11.031  0.00  0.00    +0.000 C 
ATOM     11  N   UNL     1      42.698   4.233  11.785  0.00  0.00    +0.000 NA
ATOM     12  C   UNL     1      43.604   3.925  12.889  0.00  0.00    +0.000 C 
ATOM     13  C   UNL     1      45.037   3.681  12.406  0.00  0.00    +0.000 C 
ATOM     14  H   UNL     1      42.643   3.428  11.161  0.00  0.00    +0.000 HD
ENDBRANCH   6   8
BRANCH   1  15
ATOM     15  C   UNL     1      48.673   7.063  14.990  0.00  0.00    +0.000 C 
ATOM     16  C   UNL     1      49.951   7.887  14.776  0.00  0.00    +0.000 C 
ATOM     17  C   UNL     1      48.987   8.283  15.838  0.00  0.00    +0.000 C 
BRANCH  15  18
ATOM     18  O   UNL     1      49.008   5.720  15.398  0.00  0.00    +0.000 OA
BRANCH  18  23
ATOM     19  C   UNL     1      48.408   5.148  20.858  0.00  0.00    +0.000 C 
ATOM     20  C   UNL     1      48.540   5.101  19.372  0.00  0.00    +0.000 A 
ATOM     21  C   UNL     1      47.426   5.180  18.540  0.00  0.00    +0.000 A 
ATOM     22  N   UNL     1      47.515   5.294  17.193  0.00  0.00    +0.000 NA
ATOM     23  C   UNL     1      48.770   5.343  16.703  0.00  0.00    +0.000 A 
ATOM     24  C   UNL     1      49.884   5.194  17.513  0.00  0.00    +0.000 A 
ATOM     25  N   UNL     1      49.797   5.067  18.864  0.00  0.00    +0.000 NA
ENDBRANCH  18  23
ENDBRANCH  15  18
ENDBRANCH   1  15
TORSDOF 4
ENDMDL
MODEL 8
REMARK VINA RESULT:    -5.489      2.391      7.650
REMARK INTER + INTRA:          -7.549
REMARK INTER:                  -7.554
REMARK INTRA:                   0.005
REMARK UNBOUND:                -0.777
REMARK  Name = 
REMARK  5 active torsions:
REMARK  status: ('A' for Active; 'I' for Inactive)
REMARK    1  A    between atoms: C_1  and  C_2
REMARK    2  A    between atoms: C_5  and  O_6
REMARK    3  A    between atoms: O_6  and  C_7
REMARK    4  A    between atoms: C_7  and  C_8
REMARK    5  A    between atoms: C_13  and  C_14
REMARK                            x       y       z     vdW  Elec       q    Type
REMARK                         _______ _______ _______ _____ _____    ______ ____
ROOT
ATOM      1  C   UNL     1      47.633   6.473  12.962  0.00  0.00    +0.000 A 
ATOM      2  C   UNL     1      47.601   5.652  14.094  0.00  0.00    +0.000 A 
ATOM      3  C   UNL     1      46.604   4.698  14.237  0.00  0.00    +0.000 A 
ATOM      4  F   UNL     1      46.569   3.943  15.342  0.00  0.00    +0.000 F 
ATOM      5  C   UNL     1      45.622   4.528  13.263  0.00  0.00    +0.000 A 
ATOM      6  C   UNL     1      45.642   5.296  12.088  0.00  0.00    +0.000 A 
ATOM      7  C   UNL     1      46.660   6.252  11.967  0.00  0.00    +0.000 A 
ENDROOT
BRANCH   6   8
ATOM      8  C   UNL     1      44.535   5.131  11.049  0.00  0.00    +0.000 C 
ATOM      9  C   UNL     1      43.261   4.480  11.622  0.00  0.00    +0.000 C 
ATOM     10  C   UNL     1      43.400   2.965  11.762  0.00  0.00    +0.000 C 
ATOM     11  N   UNL     1      43.726   2.329  10.484  0.00  0.00    +0.000 NA
ATOM     12  C   UNL     1      44.970   2.862   9.935  0.00  0.00    +0.000 C 
ATOM     13  C   UNL     1      44.913   4.382   9.751  0.00  0.00    +0.000 C 
ATOM     14  H   UNL     1      42.967   2.497   9.823  0.00  0.00    +0.000 HD
ENDBRANCH   6   8
BRANCH   1  15
ATOM     15  C   UNL     1      48.662   7.573  12.815  0.00  0.00    +0.000 C 
ATOM     16  C   UNL     1      49.320   7.800  11.446  0.00  0.00    +0.000 C 
ATOM     17  C   UNL     1      48.306   8.768  11.949  0.00  0.00    +0.000 C 
BRANCH  15  18
ATOM     18  O   UNL     1      49.655   7.633  13.862  0.00  0.00    +0.000 OA
BRANCH  18  23
ATOM     19  C   UNL     1      48.845  12.100  17.007  0.00  0.00    +0.000 C 
ATOM     20  C   UNL     1      49.163  10.815  16.317  0.00  0.00    +0.000 A 
ATOM     21  C   UNL     1      48.340   9.698  16.446  0.00  0.00    +0.000 A 
ATOM     22  N   UNL     1      48.510   8.566  15.719  0.00  0.00    +0.000 NA
ATOM     23  C   UNL     1      49.531   8.597  14.839  0.00  0.00    +0.000 A 
ATOM     24  C   UNL     1      50.399   9.675  14.754  0.00  0.00    +0.000 A 
ATOM     25  N   UNL     1      50.238  10.805  15.491  0.00  0.00    +0.000 NA
ENDBRANCH  18  23
ENDBRANCH  15  18
ENDBRANCH   1  15
TORSDOF 4
ENDMDL
MODEL 9
REMARK VINA RESULT:    -5.484      4.322      7.961
REMARK INTER + INTRA:          -7.544
REMARK INTER:                  -7.340
REMARK INTRA:                  -0.203
REMARK UNBOUND:                -0.777
REMARK  Name = 
REMARK  5 active torsions:
REMARK  status: ('A' for Active; 'I' for Inactive)
REMARK    1  A    between atoms: C_1  and  C_2
REMARK    2  A    between atoms: C_5  and  O_6
REMARK    3  A    between atoms: O_6  and  C_7
REMARK    4  A    between atoms: C_7  and  C_8
REMARK    5  A    between atoms: C_13  and  C_14
REMARK                            x       y       z     vdW  Elec       q    Type
REMARK                         _______ _______ _______ _____ _____    ______ ____
ROOT
ATOM      1  C   UNL     1      47.568   5.277  14.938  0.00  0.00    +0.000 A 
ATOM      2  C   UNL     1      48.245   6.377  14.402  0.00  0.00    +0.000 A 
ATOM      3  C   UNL     1      47.938   6.833  13.127  0.00  0.00    +0.000 A 
ATOM      4  F   UNL     1      48.619   7.867  12.616  0.00  0.00    +0.000 F 
ATOM      5  C   UNL     1      46.952   6.218  12.360  0.00  0.00    +0.000 A 
ATOM      6  C   UNL     1      46.213   5.142  12.874  0.00  0.00    +0.000 A 
ATOM      7  C   UNL     1      46.541   4.701  14.164  0.00  0.00    +0.000 A 
ENDROOT
BRANCH   6   8
ATOM      8  C   UNL     1      45.165   4.449  12.006  0.00  0.00    +0.000 C 
ATOM      9  C   UNL     1      44.638   5.344  10.867  0.00  0.00    +0.000 C 
ATOM     10  C   UNL     1      43.606   6.358  11.360  0.00  0.00    +0.000 C 
ATOM     11  N   UNL     1      42.472   5.703  12.015  0.00  0.00    +0.000 NA
ATOM     12  C   UNL     1      42.915   4.899  13.152  0.00  0.00    +0.000 C 
ATOM     13  C   UNL     1      43.948   3.844  12.742  0.00  0.00    +0.000 C 
ATOM     14  H   UNL     1      41.997   5.101  11.342  0.00  0.00    +0.000 HD
ENDBRANCH   6   8
BRANCH   1  15
ATOM     15  C   UNL     1      47.934   4.710  16.293  0.00  0.00    +0.000 C 
ATOM     16  C   UNL     1      46.886   3.902  17.070  0.00  0.00    +0.000 C 
ATOM     17  C   UNL     1      48.032   3.202  16.429  0.00  0.00    +0.000 C 
BRANCH  15  18
ATOM     18  O   UNL     1      48.618   5.622  17.178  0.00  0.00    +0.000 OA
BRANCH  18  23
ATOM     19  C   UNL     1      53.785   5.319  19.105  0.00  0.00    +0.000 C 
ATOM     20  C   UNL     1      52.414   5.207  18.526  0.00  0.00    +0.000 A 
ATOM     21  C   UNL     1      51.348   4.706  19.270  0.00  0.00    +0.000 A 
ATOM     22  N   UNL     1      50.065   4.731  18.835  0.00  0.00    +0.000 NA
ATOM     23  C   UNL     1      49.881   5.294  17.623  0.00  0.00    +0.000 A 
ATOM     24  C   UNL     1      50.941   5.730  16.844  0.00  0.00    +0.000 A 
ATOM     25  N   UNL     1      52.230   5.694  17.274  0.00  0.00    +0.000 NA
ENDBRANCH  18  23
ENDBRANCH  15  18
ENDBRANCH   1  15
TORSDOF 4
ENDMDL
