MODEL 1
REMARK VINA RESULT:    -8.759      0.000      0.000
REMARK INTER + INTRA:         -11.475
REMARK INTER:                 -10.807
REMARK INTRA:                  -0.668
REMARK UNBOUND:                -0.668
REMARK  Name = 
REMARK  4 active torsions:
REMARK  status: ('A' for Active; 'I' for Inactive)
REMARK    1  A    between atoms: C_4  and  C_5
REMARK    2  A    between atoms: C_5  and  N_6
REMARK    3  A    between atoms: C_10  and  C_11
REMARK    4  A    between atoms: C_18  and  N_19
REMARK                            x       y       z     vdW  Elec       q    Type
REMARK                         _______ _______ _______ _____ _____    ______ ____
ROOT
ATOM      1  F   UNL     1      47.211   3.265  14.143  0.00  0.00    +0.000 F 
ATOM      2  C   UNL     1      46.501   4.184  13.473  0.00  0.00    +0.000 A 
ATOM      3  C   UNL     1      45.396   3.786  12.734  0.00  0.00    +0.000 A 
ATOM      4  C   UNL     1      44.669   4.739  12.017  0.00  0.00    +0.000 A 
ATOM      5  C   UNL     1      45.069   6.085  12.082  0.00  0.00    +0.000 A 
ATOM      6  C   UNL     1      46.182   6.503  12.832  0.00  0.00    +0.000 A 
ATOM      7  C   UNL     1      46.892   5.519  13.527  0.00  0.00    +0.000 A 
ENDROOT
BRANCH   6   8
ATOM      8  N   UNL     1      46.495   7.846  12.906  0.00  0.00    +0.000 N 
ATOM      9  C   UNL     1      45.476   8.883  12.716  0.00  0.00    +0.000 C 
ATOM     10  C   UNL     1      46.130  10.092  12.006  0.00  0.00    +0.000 C 
ATOM     11  N   UNL     1      47.310  10.633  12.718  0.00  0.00    +0.000 NA
ATOM     12  C   UNL     1      48.284   9.540  12.937  0.00  0.00    +0.000 C 
ATOM     13  C   UNL     1      47.690   8.294  13.638  0.00  0.00    +0.000 C 
ATOM     14  H   UNL     1      46.999  10.965  13.630  0.00  0.00    +0.000 HD
ENDBRANCH   6   8
BRANCH   4  15
ATOM     15  C   UNL     1      43.484   4.342  11.178  0.00  0.00    +0.000 C 
BRANCH  15  16
ATOM     16  N   UNL     1      43.668   4.737   9.793  0.00  0.00    +0.000 N 
ATOM     17  C   UNL     1      44.495   3.855   9.109  0.00  0.00    +0.000 A 
ATOM     18  N   UNL     1      44.507   2.561   9.450  0.00  0.00    +0.000 NA
ATOM     19  C   UNL     1      45.354   1.744   8.796  0.00  0.00    +0.000 A 
ATOM     20  C   UNL     1      46.198   2.170   7.806  0.00  0.00    +0.000 A 
ATOM     21  C   UNL     1      46.110   3.510   7.510  0.00  0.00    +0.000 A 
ATOM     22  N   UNL     1      45.281   4.367   8.153  0.00  0.00    +0.000 NA
ATOM     23  H   UNL     1      44.035   5.671   9.649  0.00  0.00    +0.000 HD
BRANCH  20  24
ATOM     24  C   UNL     1      47.140   1.252   7.120  0.00  0.00    +0.000 C 
ATOM     25  F   UNL     1      46.910   1.144   5.784  0.00  0.00    +0.000 F 
ATOM     26  F   UNL     1      48.439   1.635   7.245  0.00  0.00    +0.000 F 
ATOM     27  F   UNL     1      47.078  -0.017   7.609  0.00  0.00    +0.000 F 
ENDBRANCH  20  24
ENDBRANCH  15  16
ENDBRANCH   4  15
TORSDOF 4
ENDMDL
MODEL 2
REMARK VINA RESULT:    -8.385      2.096      3.284
REMARK INTER + INTRA:         -11.014
REMARK INTER:                 -10.339
REMARK INTRA:                  -0.676
REMARK UNBOUND:                -0.668
REMARK  Name = 
REMARK  4 active torsions:
REMARK  status: ('A' for Active; 'I' for Inactive)
REMARK    1  A    between atoms: C_4  and  C_5
REMARK    2  A    between atoms: C_5  and  N_6
REMARK    3  A    between atoms: C_10  and  C_11
REMARK    4  A    between atoms: C_18  and  N_19
REMARK                            x       y       z     vdW  Elec       q    Type
REMARK                         _______ _______ _______ _____ _____    ______ ____
ROOT
ATOM      1  F   UNL     1      45.136   9.077  11.722  0.00  0.00    +0.000 F 
ATOM      2  C   UNL     1      45.208   7.768  11.996  0.00  0.00    +0.000 A 
ATOM      3  C   UNL     1      44.404   6.879  11.296  0.00  0.00    +0.000 A 
ATOM      4  C   UNL     1      44.462   5.516  11.598  0.00  0.00    +0.000 A 
ATOM      5  C   UNL     1      45.351   5.080  12.594  0.00  0.00    +0.000 A 
ATOM      6  C   UNL     1      46.176   5.968  13.306  0.00  0.00    +0.000 A 
ATOM      7  C   UNL     1      46.083   7.326  12.985  0.00  0.00    +0.000 A 
ENDROOT
BRANCH   6   8
ATOM      8  N   UNL     1      47.073   5.478  14.234  0.00  0.00    +0.000 N 
ATOM      9  C   UNL     1      47.159   4.046  14.537  0.00  0.00    +0.000 C 
ATOM     10  C   UNL     1      47.494   3.877  16.038  0.00  0.00    +0.000 C 
ATOM     11  N   UNL     1      48.728   4.582  16.455  0.00  0.00    +0.000 NA
ATOM     12  C   UNL     1      48.619   6.010  16.079  0.00  0.00    +0.000 C 
ATOM     13  C   UNL     1      48.277   6.247  14.588  0.00  0.00    +0.000 C 
ATOM     14  H   UNL     1      49.507   4.178  15.936  0.00  0.00    +0.000 HD
ENDBRANCH   6   8
BRANCH   4  15
ATOM     15  C   UNL     1      43.581   4.525  10.883  0.00  0.00    +0.000 C 
BRANCH  15  16
ATOM     16  N   UNL     1      43.655   4.704   9.445  0.00  0.00    +0.000 N 
ATOM     17  C   UNL     1      44.496   3.771   8.849  0.00  0.00    +0.000 A 
ATOM     18  N   UNL     1      44.613   2.550   9.386  0.00  0.00    +0.000 NA
ATOM     19  C   UNL     1      45.470   1.688   8.810  0.00  0.00    +0.000 A 
ATOM     20  C   UNL     1      46.223   1.997   7.709  0.00  0.00    +0.000 A 
ATOM     21  C   UNL     1      46.029   3.265   7.214  0.00  0.00    +0.000 A 
ATOM     22  N   UNL     1      45.187   4.166   7.772  0.00  0.00    +0.000 NA
ATOM     23  H   UNL     1      43.950   5.621   9.131  0.00  0.00    +0.000 HD
BRANCH  20  24
ATOM     24  C   UNL     1      47.180   1.034   7.110  0.00  0.00    +0.000 C 
ATOM     25  F   UNL     1      48.480   1.414   7.238  0.00  0.00    +0.000 F 
ATOM     26  F   UNL     1      47.099  -0.206   7.663  0.00  0.00    +0.000 F 
ATOM     27  F   UNL     1      46.976   0.860   5.775  0.00  0.00    +0.000 F 
ENDBRANCH  20  24
ENDBRANCH  15  16
ENDBRANCH   4  15
TORSDOF 4
ENDMDL
MODEL 3
REMARK VINA RESULT:    -7.602      1.767      2.258
REMARK INTER + INTRA:         -10.048
REMARK INTER:                  -9.436
REMARK INTRA:                  -0.613
REMARK UNBOUND:                -0.668
REMARK  Name = 
REMARK  4 active torsions:
REMARK  status: ('A' for Active; 'I' for Inactive)
REMARK    1  A    between atoms: C_4  and  C_5
REMARK    2  A    between atoms: C_5  and  N_6
REMARK    3  A    between atoms: C_10  and  C_11
REMARK    4  A    between atoms: C_18  and  N_19
REMARK                            x       y       z     vdW  Elec       q    Type
REMARK                         _______ _______ _______ _____ _____    ______ ____
ROOT
ATOM      1  F   UNL     1      47.101   6.572  14.075  0.00  0.00    +0.000 F 
ATOM      2  C   UNL     1      46.159   6.751  13.139  0.00  0.00    +0.000 A 
ATOM      3  C   UNL     1      45.491   5.649  12.624  0.00  0.00    +0.000 A 
ATOM      4  C   UNL     1      44.525   5.833  11.632  0.00  0.00    +0.000 A 
ATOM      5  C   UNL     1      44.241   7.138  11.197  0.00  0.00    +0.000 A 
ATOM      6  C   UNL     1      44.905   8.264  11.714  0.00  0.00    +0.000 A 
ATOM      7  C   UNL     1      45.874   8.041  12.698  0.00  0.00    +0.000 A 
ENDROOT
BRANCH   6   8
ATOM      8  N   UNL     1      44.545   9.528  11.291  0.00  0.00    +0.000 N 
ATOM      9  C   UNL     1      43.218   9.802  10.731  0.00  0.00    +0.000 C 
ATOM     10  C   UNL     1      43.360  10.877   9.628  0.00  0.00    +0.000 C 
ATOM     11  N   UNL     1      44.006  12.125  10.093  0.00  0.00    +0.000 NA
ATOM     12  C   UNL     1      45.315  11.794  10.701  0.00  0.00    +0.000 C 
ATOM     13  C   UNL     1      45.243  10.715  11.808  0.00  0.00    +0.000 C 
ATOM     14  H   UNL     1      43.415  12.530  10.819  0.00  0.00    +0.000 HD
ENDBRANCH   6   8
BRANCH   4  15
ATOM     15  C   UNL     1      43.802   4.659  11.026  0.00  0.00    +0.000 C 
BRANCH  15  16
ATOM     16  N   UNL     1      43.734   4.776   9.581  0.00  0.00    +0.000 N 
ATOM     17  C   UNL     1      44.536   3.835   8.947  0.00  0.00    +0.000 A 
ATOM     18  N   UNL     1      44.732   2.641   9.520  0.00  0.00    +0.000 NA
ATOM     19  C   UNL     1      45.550   1.771   8.901  0.00  0.00    +0.000 A 
ATOM     20  C   UNL     1      46.188   2.046   7.721  0.00  0.00    +0.000 A 
ATOM     21  C   UNL     1      45.919   3.287   7.195  0.00  0.00    +0.000 A 
ATOM     22  N   UNL     1      45.113   4.196   7.794  0.00  0.00    +0.000 NA
ATOM     23  H   UNL     1      43.978   5.685   9.204  0.00  0.00    +0.000 HD
BRANCH  20  24
ATOM     24  C   UNL     1      47.106   1.076   7.073  0.00  0.00    +0.000 C 
ATOM     25  F   UNL     1      46.935   0.988   5.726  0.00  0.00    +0.000 F 
ATOM     26  F   UNL     1      48.418   1.381   7.263  0.00  0.00    +0.000 F 
ATOM     27  F   UNL     1      46.945  -0.190   7.549  0.00  0.00    +0.000 F 
ENDBRANCH  20  24
ENDBRANCH  15  16
ENDBRANCH   4  15
TORSDOF 4
ENDMDL
MODEL 4
REMARK VINA RESULT:    -7.168      4.173      8.119
REMARK INTER + INTRA:          -9.513
REMARK INTER:                  -9.083
REMARK INTRA:                  -0.429
REMARK UNBOUND:                -0.668
REMARK  Name = 
REMARK  4 active torsions:
REMARK  status: ('A' for Active; 'I' for Inactive)
REMARK    1  A    between atoms: C_4  and  C_5
REMARK    2  A    between atoms: C_5  and  N_6
REMARK    3  A    between atoms: C_10  and  C_11
REMARK    4  A    between atoms: C_18  and  N_19
REMARK                            x       y       z     vdW  Elec       q    Type
REMARK                         _______ _______ _______ _____ _____    ______ ____
ROOT
ATOM      1  F   UNL     1      41.820   5.734  12.052  0.00  0.00    +0.000 F 
ATOM      2  C   UNL     1      43.082   5.313  11.898  0.00  0.00    +0.000 A 
ATOM      3  C   UNL     1      43.993   5.498  12.929  0.00  0.00    +0.000 A 
ATOM      4  C   UNL     1      45.315   5.079  12.762  0.00  0.00    +0.000 A 
ATOM      5  C   UNL     1      45.682   4.462  11.554  0.00  0.00    +0.000 A 
ATOM      6  C   UNL     1      44.769   4.262  10.504  0.00  0.00    +0.000 A 
ATOM      7  C   UNL     1      43.457   4.704  10.703  0.00  0.00    +0.000 A 
ENDROOT
BRANCH   6   8
ATOM      8  N   UNL     1      45.170   3.598   9.362  0.00  0.00    +0.000 N 
ATOM      9  C   UNL     1      44.806   2.198   9.121  0.00  0.00    +0.000 C 
ATOM     10  C   UNL     1      45.974   1.505   8.379  0.00  0.00    +0.000 C 
ATOM     11  N   UNL     1      46.359   2.177   7.117  0.00  0.00    +0.000 NA
ATOM     12  C   UNL     1      46.662   3.599   7.401  0.00  0.00    +0.000 C 
ATOM     13  C   UNL     1      45.534   4.348   8.151  0.00  0.00    +0.000 C 
ATOM     14  H   UNL     1      45.557   2.146   6.490  0.00  0.00    +0.000 HD
ENDBRANCH   6   8
BRANCH   4  15
ATOM     15  C   UNL     1      46.340   5.292  13.845  0.00  0.00    +0.000 C 
BRANCH  15  16
ATOM     16  N   UNL     1      46.180   4.323  14.913  0.00  0.00    +0.000 N 
ATOM     17  C   UNL     1      47.291   4.284  15.747  0.00  0.00    +0.000 A 
ATOM     18  N   UNL     1      48.008   5.397  15.945  0.00  0.00    +0.000 NA
ATOM     19  C   UNL     1      49.104   5.311  16.721  0.00  0.00    +0.000 A 
ATOM     20  C   UNL     1      49.518   4.149  17.315  0.00  0.00    +0.000 A 
ATOM     21  C   UNL     1      48.715   3.059  17.071  0.00  0.00    +0.000 A 
ATOM     22  N   UNL     1      47.613   3.101  16.285  0.00  0.00    +0.000 NA
ATOM     23  H   UNL     1      45.989   3.373  14.618  0.00  0.00    +0.000 HD
BRANCH  20  24
ATOM     24  C   UNL     1      50.745   4.079  18.146  0.00  0.00    +0.000 C 
ATOM     25  F   UNL     1      51.351   2.862  18.111  0.00  0.00    +0.000 F 
ATOM     26  F   UNL     1      51.693   4.978  17.767  0.00  0.00    +0.000 F 
ATOM     27  F   UNL     1      50.498   4.331  19.461  0.00  0.00    +0.000 F 
ENDBRANCH  20  24
ENDBRANCH  15  16
ENDBRANCH   4  15
TORSDOF 4
ENDMDL
MODEL 5
REMARK VINA RESULT:    -7.164      4.403      8.039
REMARK INTER + INTRA:          -9.508
REMARK INTER:                  -8.927
REMARK INTRA:                  -0.581
REMARK UNBOUND:                -0.668
REMARK  Name = 
REMARK  4 active torsions:
REMARK  status: ('A' for Active; 'I' for Inactive)
REMARK    1  A    between atoms: C_4  and  C_5
REMARK    2  A    between atoms: C_5  and  N_6
REMARK    3  A    between atoms: C_10  and  C_11
REMARK    4  A    between atoms: C_18  and  N_19
REMARK                            x       y       z     vdW  Elec       q    Type
REMARK                         _______ _______ _______ _____ _____    ______ ____
ROOT
ATOM      1  F   UNL     1      48.560   8.182  11.167  0.00  0.00    +0.000 F 
ATOM      2  C   UNL     1      48.015   7.359  12.073  0.00  0.00    +0.000 A 
ATOM      3  C   UNL     1      48.567   7.283  13.345  0.00  0.00    +0.000 A 
ATOM      4  C   UNL     1      48.013   6.409  14.282  0.00  0.00    +0.000 A 
ATOM      5  C   UNL     1      46.895   5.641  13.915  0.00  0.00    +0.000 A 
ATOM      6  C   UNL     1      46.322   5.713  12.634  0.00  0.00    +0.000 A 
ATOM      7  C   UNL     1      46.909   6.591  11.717  0.00  0.00    +0.000 A 
ENDROOT
BRANCH   6   8
ATOM      8  N   UNL     1      45.188   4.979  12.346  0.00  0.00    +0.000 N 
ATOM      9  C   UNL     1      45.251   3.536  12.094  0.00  0.00    +0.000 C 
ATOM     10  C   UNL     1      44.190   3.174  11.028  0.00  0.00    +0.000 C 
ATOM     11  N   UNL     1      42.816   3.588  11.392  0.00  0.00    +0.000 NA
ATOM     12  C   UNL     1      42.812   5.038  11.692  0.00  0.00    +0.000 C 
ATOM     13  C   UNL     1      43.860   5.468  12.747  0.00  0.00    +0.000 C 
ATOM     14  H   UNL     1      42.555   3.090  12.242  0.00  0.00    +0.000 HD
ENDBRANCH   6   8
BRANCH   4  15
ATOM     15  C   UNL     1      48.603   6.275  15.661  0.00  0.00    +0.000 C 
BRANCH  15  16
ATOM     16  N   UNL     1      48.006   5.164  16.380  0.00  0.00    +0.000 N 
ATOM     17  C   UNL     1      48.953   4.215  16.746  0.00  0.00    +0.000 A 
ATOM     18  N   UNL     1      50.205   4.604  17.021  0.00  0.00    +0.000 NA
ATOM     19  C   UNL     1      51.107   3.654  17.328  0.00  0.00    +0.000 A 
ATOM     20  C   UNL     1      50.809   2.318  17.373  0.00  0.00    +0.000 A 
ATOM     21  C   UNL     1      49.498   2.010  17.093  0.00  0.00    +0.000 A 
ATOM     22  N   UNL     1      48.564   2.934  16.767  0.00  0.00    +0.000 NA
ATOM     23  H   UNL     1      47.263   4.676  15.893  0.00  0.00    +0.000 HD
BRANCH  20  24
ATOM     24  C   UNL     1      51.831   1.290  17.691  0.00  0.00    +0.000 C 
ATOM     25  F   UNL     1      52.772   1.720  18.574  0.00  0.00    +0.000 F 
ATOM     26  F   UNL     1      51.297   0.163  18.234  0.00  0.00    +0.000 F 
ATOM     27  F   UNL     1      52.518   0.883  16.588  0.00  0.00    +0.000 F 
ENDBRANCH  20  24
ENDBRANCH  15  16
ENDBRANCH   4  15
TORSDOF 4
ENDMDL
MODEL 6
REMARK VINA RESULT:    -6.422      4.360      8.490
REMARK INTER + INTRA:          -8.592
REMARK INTER:                  -7.932
REMARK INTRA:                  -0.661
REMARK UNBOUND:                -0.668
REMARK  Name = 
REMARK  4 active torsions:
REMARK  status: ('A' for Active; 'I' for Inactive)
REMARK    1  A    between atoms: C_4  and  C_5
REMARK    2  A    between atoms: C_5  and  N_6
REMARK    3  A    between atoms: C_10  and  C_11
REMARK    4  A    between atoms: C_18  and  N_19
REMARK                            x       y       z     vdW  Elec       q    Type
REMARK                         _______ _______ _______ _____ _____    ______ ____
ROOT
ATOM      1  F   UNL     1      44.974   9.780  11.816  0.00  0.00    +0.000 F 
ATOM      2  C   UNL     1      45.519   8.563  11.942  0.00  0.00    +0.000 A 
ATOM      3  C   UNL     1      46.841   8.447  12.349  0.00  0.00    +0.000 A 
ATOM      4  C   UNL     1      47.418   7.179  12.460  0.00  0.00    +0.000 A 
ATOM      5  C   UNL     1      46.632   6.051  12.173  0.00  0.00    +0.000 A 
ATOM      6  C   UNL     1      45.290   6.153  11.766  0.00  0.00    +0.000 A 
ATOM      7  C   UNL     1      44.750   7.438  11.655  0.00  0.00    +0.000 A 
ENDROOT
BRANCH   6   8
ATOM      8  N   UNL     1      44.548   5.008  11.552  0.00  0.00    +0.000 N 
ATOM      9  C   UNL     1      43.599   4.511  12.553  0.00  0.00    +0.000 C 
ATOM     10  C   UNL     1      43.604   2.964  12.513  0.00  0.00    +0.000 C 
ATOM     11  N   UNL     1      43.306   2.403  11.175  0.00  0.00    +0.000 NA
ATOM     12  C   UNL     1      44.251   2.976  10.189  0.00  0.00    +0.000 C 
ATOM     13  C   UNL     1      44.300   4.523  10.186  0.00  0.00    +0.000 C 
ATOM     14  H   UNL     1      42.365   2.698  10.916  0.00  0.00    +0.000 HD
ENDBRANCH   6   8
BRANCH   4  15
ATOM     15  C   UNL     1      48.858   7.015  12.867  0.00  0.00    +0.000 C 
BRANCH  15  16
ATOM     16  N   UNL     1      49.225   7.977  13.890  0.00  0.00    +0.000 N 
ATOM     17  C   UNL     1      49.042   7.467  15.170  0.00  0.00    +0.000 A 
ATOM     18  N   UNL     1      49.199   6.155  15.387  0.00  0.00    +0.000 NA
ATOM     19  C   UNL     1      48.969   5.689  16.628  0.00  0.00    +0.000 A 
ATOM     20  C   UNL     1      48.584   6.487  17.673  0.00  0.00    +0.000 A 
ATOM     21  C   UNL     1      48.461   7.821  17.365  0.00  0.00    +0.000 A 
ATOM     22  N   UNL     1      48.670   8.327  16.127  0.00  0.00    +0.000 NA
ATOM     23  H   UNL     1      48.743   8.867  13.847  0.00  0.00    +0.000 HD
BRANCH  20  24
ATOM     24  C   UNL     1      48.313   5.941  19.026  0.00  0.00    +0.000 C 
ATOM     25  F   UNL     1      48.991   6.586  20.013  0.00  0.00    +0.000 F 
ATOM     26  F   UNL     1      46.998   6.011  19.370  0.00  0.00    +0.000 F 
ATOM     27  F   UNL     1      48.658   4.629  19.136  0.00  0.00    +0.000 F 
ENDBRANCH  20  24
ENDBRANCH  15  16
ENDBRANCH   4  15
TORSDOF 4
ENDMDL
MODEL 7
REMARK VINA RESULT:    -6.312      4.014      7.417
REMARK INTER + INTRA:          -8.457
REMARK INTER:                  -7.860
REMARK INTRA:                  -0.597
REMARK UNBOUND:                -0.668
REMARK  Name = 
REMARK  4 active torsions:
REMARK  status: ('A' for Active; 'I' for Inactive)
REMARK    1  A    between atoms: C_4  and  C_5
REMARK    2  A    between atoms: C_5  and  N_6
REMARK    3  A    between atoms: C_10  and  C_11
REMARK    4  A    between atoms: C_18  and  N_19
REMARK                            x       y       z     vdW  Elec       q    Type
REMARK                         _______ _______ _______ _____ _____    ______ ____
ROOT
ATOM      1  F   UNL     1      43.391   5.038  10.457  0.00  0.00    +0.000 F 
ATOM      2  C   UNL     1      44.357   5.526  11.247  0.00  0.00    +0.000 A 
ATOM      3  C   UNL     1      45.172   4.649  11.949  0.00  0.00    +0.000 A 
ATOM      4  C   UNL     1      46.164   5.158  12.790  0.00  0.00    +0.000 A 
ATOM      5  C   UNL     1      46.322   6.550  12.886  0.00  0.00    +0.000 A 
ATOM      6  C   UNL     1      45.509   7.450  12.176  0.00  0.00    +0.000 A 
ATOM      7  C   UNL     1      44.518   6.905  11.352  0.00  0.00    +0.000 A 
ENDROOT
BRANCH   6   8
ATOM      8  N   UNL     1      45.747   8.807  12.263  0.00  0.00    +0.000 N 
ATOM      9  C   UNL     1      44.659   9.785  12.162  0.00  0.00    +0.000 C 
ATOM     10  C   UNL     1      45.194  11.046  11.442  0.00  0.00    +0.000 C 
ATOM     11  N   UNL     1      46.384  11.642  12.091  0.00  0.00    +0.000 NA
ATOM     12  C   UNL     1      47.432  10.605  12.223  0.00  0.00    +0.000 C 
ATOM     13  C   UNL     1      46.958   9.312  12.928  0.00  0.00    +0.000 C 
ATOM     14  H   UNL     1      46.112  11.936  13.029  0.00  0.00    +0.000 HD
ENDBRANCH   6   8
BRANCH   4  15
ATOM     15  C   UNL     1      47.046   4.239  13.593  0.00  0.00    +0.000 C 
BRANCH  15  16
ATOM     16  N   UNL     1      46.436   3.911  14.869  0.00  0.00    +0.000 N 
ATOM     17  C   UNL     1      47.300   4.149  15.932  0.00  0.00    +0.000 A 
ATOM     18  N   UNL     1      48.197   5.139  15.845  0.00  0.00    +0.000 NA
ATOM     19  C   UNL     1      49.047   5.311  16.873  0.00  0.00    +0.000 A 
ATOM     20  C   UNL     1      49.039   4.528  17.997  0.00  0.00    +0.000 A 
ATOM     21  C   UNL     1      48.077   3.546  18.009  0.00  0.00    +0.000 A 
ATOM     22  N   UNL     1      47.212   3.332  16.989  0.00  0.00    +0.000 NA
ATOM     23  H   UNL     1      46.097   2.960  14.961  0.00  0.00    +0.000 HD
BRANCH  20  24
ATOM     24  C   UNL     1      50.006   4.725  19.105  0.00  0.00    +0.000 C 
ATOM     25  F   UNL     1      49.486   4.448  20.330  0.00  0.00    +0.000 F 
ATOM     26  F   UNL     1      51.114   3.944  18.986  0.00  0.00    +0.000 F 
ATOM     27  F   UNL     1      50.460   6.007  19.177  0.00  0.00    +0.000 F 
ENDBRANCH  20  24
ENDBRANCH  15  16
ENDBRANCH   4  15
TORSDOF 4
ENDMDL
MODEL 8
REMARK VINA RESULT:    -6.243      5.018      6.354
REMARK INTER + INTRA:          -8.371
REMARK INTER:                  -7.854
REMARK INTRA:                  -0.517
REMARK UNBOUND:                -0.668
REMARK  Name = 
REMARK  4 active torsions:
REMARK  status: ('A' for Active; 'I' for Inactive)
REMARK    1  A    between atoms: C_4  and  C_5
REMARK    2  A    between atoms: C_5  and  N_6
REMARK    3  A    between atoms: C_10  and  C_11
REMARK    4  A    between atoms: C_18  and  N_19
REMARK                            x       y       z     vdW  Elec       q    Type
REMARK                         _______ _______ _______ _____ _____    ______ ____
ROOT
ATOM      1  F   UNL     1      51.046   1.261  17.393  0.00  0.00    +0.000 F 
ATOM      2  C   UNL     1      50.361   2.411  17.338  0.00  0.00    +0.000 A 
ATOM      3  C   UNL     1      49.133   2.442  16.691  0.00  0.00    +0.000 A 
ATOM      4  C   UNL     1      48.428   3.646  16.614  0.00  0.00    +0.000 A 
ATOM      5  C   UNL     1      48.977   4.792  17.213  0.00  0.00    +0.000 A 
ATOM      6  C   UNL     1      50.216   4.773  17.876  0.00  0.00    +0.000 A 
ATOM      7  C   UNL     1      50.899   3.553  17.924  0.00  0.00    +0.000 A 
ENDROOT
BRANCH   6   8
ATOM      8  N   UNL     1      50.681   5.916  18.497  0.00  0.00    +0.000 N 
ATOM      9  C   UNL     1      52.088   6.318  18.410  0.00  0.00    +0.000 C 
ATOM     10  C   UNL     1      52.496   6.980  19.748  0.00  0.00    +0.000 C 
ATOM     11  N   UNL     1      51.640   8.125  20.131  0.00  0.00    +0.000 NA
ATOM     12  C   UNL     1      50.226   7.686  20.150  0.00  0.00    +0.000 C 
ATOM     13  C   UNL     1      49.757   7.007  18.841  0.00  0.00    +0.000 C 
ATOM     14  H   UNL     1      51.737   8.841  19.411  0.00  0.00    +0.000 HD
ENDBRANCH   6   8
BRANCH   4  15
ATOM     15  C   UNL     1      47.108   3.727  15.893  0.00  0.00    +0.000 C 
BRANCH  15  16
ATOM     16  N   UNL     1      46.936   5.023  15.263  0.00  0.00    +0.000 N 
ATOM     17  C   UNL     1      46.410   4.910  13.982  0.00  0.00    +0.000 A 
ATOM     18  N   UNL     1      45.574   3.903  13.698  0.00  0.00    +0.000 NA
ATOM     19  C   UNL     1      45.119   3.798  12.436  0.00  0.00    +0.000 A 
ATOM     20  C   UNL     1      45.467   4.665  11.435  0.00  0.00    +0.000 A 
ATOM     21  C   UNL     1      46.316   5.677  11.818  0.00  0.00    +0.000 A 
ATOM     22  N   UNL     1      46.807   5.810  13.073  0.00  0.00    +0.000 NA
ATOM     23  H   UNL     1      47.771   5.593  15.198  0.00  0.00    +0.000 HD
BRANCH  20  24
ATOM     24  C   UNL     1      44.970   4.510  10.046  0.00  0.00    +0.000 C 
ATOM     25  F   UNL     1      45.141   3.255   9.549  0.00  0.00    +0.000 F 
ATOM     26  F   UNL     1      43.642   4.780   9.925  0.00  0.00    +0.000 F 
ATOM     27  F   UNL     1      45.600   5.342   9.172  0.00  0.00    +0.000 F 
ENDBRANCH  20  24
ENDBRANCH  15  16
ENDBRANCH   4  15
TORSDOF 4
ENDMDL
MODEL 9
REMARK VINA RESULT:    -6.052      4.296      6.522
REMARK INTER + INTRA:          -8.135
REMARK INTER:                  -7.587
REMARK INTRA:                  -0.549
REMARK UNBOUND:                -0.668
REMARK  Name = 
REMARK  4 active torsions:
REMARK  status: ('A' for Active; 'I' for Inactive)
REMARK    1  A    between atoms: C_4  and  C_5
REMARK    2  A    between atoms: C_5  and  N_6
REMARK    3  A    between atoms: C_10  and  C_11
REMARK    4  A    between atoms: C_18  and  N_19
REMARK                            x       y       z     vdW  Elec       q    Type
REMARK                         _______ _______ _______ _____ _____    ______ ____
ROOT
ATOM      1  F   UNL     1      48.765   9.446  18.339  0.00  0.00    +0.000 F 
ATOM      2  C   UNL     1      48.796   8.442  17.453  0.00  0.00    +0.000 A 
ATOM      3  C   UNL     1      48.476   8.692  16.126  0.00  0.00    +0.000 A 
ATOM      4  C   UNL     1      48.487   7.641  15.207  0.00  0.00    +0.000 A 
ATOM      5  C   UNL     1      48.843   6.356  15.651  0.00  0.00    +0.000 A 
ATOM      6  C   UNL     1      49.175   6.089  16.990  0.00  0.00    +0.000 A 
ATOM      7  C   UNL     1      49.143   7.164  17.885  0.00  0.00    +0.000 A 
ENDROOT
BRANCH   6   8
ATOM      8  N   UNL     1      49.573   4.820  17.359  0.00  0.00    +0.000 N 
ATOM      9  C   UNL     1      50.759   4.599  18.193  0.00  0.00    +0.000 C 
ATOM     10  C   UNL     1      51.440   3.284  17.745  0.00  0.00    +0.000 C 
ATOM     11  N   UNL     1      50.541   2.107  17.780  0.00  0.00    +0.000 NA
ATOM     12  C   UNL     1      49.334   2.397  16.973  0.00  0.00    +0.000 C 
ATOM     13  C   UNL     1      48.610   3.708  17.366  0.00  0.00    +0.000 C 
ATOM     14  H   UNL     1      50.247   1.968  18.746  0.00  0.00    +0.000 HD
ENDBRANCH   6   8
BRANCH   4  15
ATOM     15  C   UNL     1      48.114   7.867  13.765  0.00  0.00    +0.000 C 
BRANCH  15  16
ATOM     16  N   UNL     1      46.700   8.162  13.631  0.00  0.00    +0.000 N 
ATOM     17  C   UNL     1      46.024   7.159  12.946  0.00  0.00    +0.000 A 
ATOM     18  N   UNL     1      46.444   5.892  13.048  0.00  0.00    +0.000 NA
ATOM     19  C   UNL     1      45.795   4.954  12.336  0.00  0.00    +0.000 A 
ATOM     20  C   UNL     1      44.732   5.230  11.517  0.00  0.00    +0.000 A 
ATOM     21  C   UNL     1      44.359   6.553  11.484  0.00  0.00    +0.000 A 
ATOM     22  N   UNL     1      44.994   7.529  12.174  0.00  0.00    +0.000 NA
ATOM     23  H   UNL     1      46.477   9.041  13.178  0.00  0.00    +0.000 HD
BRANCH  20  24
ATOM     24  C   UNL     1      44.051   4.177  10.723  0.00  0.00    +0.000 C 
ATOM     25  F   UNL     1      43.531   4.637   9.553  0.00  0.00    +0.000 F 
ATOM     26  F   UNL     1      44.878   3.151  10.385  0.00  0.00    +0.000 F 
ATOM     27  F   UNL     1      43.010   3.612  11.394  0.00  0.00    +0.000 F 
ENDBRANCH  20  24
ENDBRANCH  15  16
ENDBRANCH   4  15
TORSDOF 4
ENDMDL
