MODEL 1
REMARK VINA RESULT:    -7.836      0.000      0.000
REMARK INTER + INTRA:         -11.066
REMARK INTER:                 -10.127
REMARK INTRA:                  -0.939
REMARK UNBOUND:                -0.939
REMARK  Name = 
REMARK  5 active torsions:
REMARK  status: ('A' for Active; 'I' for Inactive)
REMARK    1  A    between atoms: C_2  and  C_3
REMARK    2  A    between atoms: C_6  and  O_7
REMARK    3  A    between atoms: O_7  and  C_8
REMARK    4  A    between atoms: C_8  and  C_9
REMARK    5  A    between atoms: C_14  and  C_15
REMARK                            x       y       z     vdW  Elec       q    Type
REMARK                         _______ _______ _______ _____ _____    ______ ____
ROOT
ATOM      1  C   UNL     1      45.071   5.069  11.406  0.00  0.00    +0.000 A 
ATOM      2  C   UNL     1      45.163   4.276  12.557  0.00  0.00    +0.000 A 
ATOM      3  C   UNL     1      46.073   4.607  13.558  0.00  0.00    +0.000 A 
ATOM      4  C   UNL     1      46.902   5.718  13.409  0.00  0.00    +0.000 A 
ATOM      5  F   UNL     1      47.737   5.999  14.422  0.00  0.00    +0.000 F 
ATOM      6  C   UNL     1      46.874   6.519  12.256  0.00  0.00    +0.000 A 
ATOM      7  C   UNL     1      45.946   6.158  11.261  0.00  0.00    +0.000 A 
ENDROOT
BRANCH   6   8
ATOM      8  C   UNL     1      47.785   7.672  12.048  0.00  0.00    +0.000 A 
ATOM      9  C   UNL     1      49.141   7.489  11.730  0.00  0.00    +0.000 A 
ATOM     10  C   UNL     1      49.990   8.573  11.494  0.00  0.00    +0.000 A 
ATOM     11  C   UNL     1      49.497   9.872  11.554  0.00  0.00    +0.000 A 
ATOM     12  C   UNL     1      48.160  10.087  11.867  0.00  0.00    +0.000 A 
ATOM     13  C   UNL     1      47.319   9.000  12.120  0.00  0.00    +0.000 A 
ENDBRANCH   6   8
BRANCH   1  14
ATOM     14  C   UNL     1      44.108   4.704  10.300  0.00  0.00    +0.000 C 
BRANCH  14  15
ATOM     15  O   UNL     1      44.114   3.287  10.081  0.00  0.00    +0.000 OA
BRANCH  15  19
ATOM     16  C   UNL     1      46.687   2.212   7.057  0.00  0.00    +0.000 A 
ATOM     17  C   UNL     1      46.205   3.521   7.117  0.00  0.00    +0.000 A 
ATOM     18  C   UNL     1      45.338   3.884   8.151  0.00  0.00    +0.000 A 
ATOM     19  C   UNL     1      44.989   2.918   9.083  0.00  0.00    +0.000 A 
ATOM     20  N   UNL     1      45.448   1.650   9.048  0.00  0.00    +0.000 NA
ATOM     21  C   UNL     1      46.287   1.327   8.038  0.00  0.00    +0.000 A 
BRANCH  16  23
ATOM     22  N   UNL     1      48.262   1.409   5.167  0.00  0.00    +0.000 NA
ATOM     23  C   UNL     1      47.563   1.778   6.015  0.00  0.00    +0.000 C 
ENDBRANCH  16  23
ENDBRANCH  15  19
ENDBRANCH  14  15
ENDBRANCH   1  14
TORSDOF 5
ENDMDL
MODEL 2
REMARK VINA RESULT:    -7.403      1.487      2.006
REMARK INTER + INTRA:         -10.506
REMARK INTER:                  -9.513
REMARK INTRA:                  -0.993
REMARK UNBOUND:                -0.939
REMARK  Name = 
REMARK  5 active torsions:
REMARK  status: ('A' for Active; 'I' for Inactive)
REMARK    1  A    between atoms: C_2  and  C_3
REMARK    2  A    between atoms: C_6  and  O_7
REMARK    3  A    between atoms: O_7  and  C_8
REMARK    4  A    between atoms: C_8  and  C_9
REMARK    5  A    between atoms: C_14  and  C_15
REMARK                            x       y       z     vdW  Elec       q    Type
REMARK                         _______ _______ _______ _____ _____    ______ ____
ROOT
ATOM      1  C   UNL     1      44.608   4.746  11.446  0.00  0.00    +0.000 A 
ATOM      2  C   UNL     1      43.562   5.657  11.260  0.00  0.00    +0.000 A 
ATOM      3  C   UNL     1      43.786   7.020  11.443  0.00  0.00    +0.000 A 
ATOM      4  C   UNL     1      45.048   7.474  11.824  0.00  0.00    +0.000 A 
ATOM      5  F   UNL     1      45.207   8.801  11.957  0.00  0.00    +0.000 F 
ATOM      6  C   UNL     1      46.117   6.595  12.061  0.00  0.00    +0.000 A 
ATOM      7  C   UNL     1      45.858   5.225  11.870  0.00  0.00    +0.000 A 
ENDROOT
BRANCH   6   8
ATOM      8  C   UNL     1      47.452   7.048  12.523  0.00  0.00    +0.000 A 
ATOM      9  C   UNL     1      47.844   6.930  13.867  0.00  0.00    +0.000 A 
ATOM     10  C   UNL     1      49.116   7.318  14.295  0.00  0.00    +0.000 A 
ATOM     11  C   UNL     1      50.037   7.821  13.382  0.00  0.00    +0.000 A 
ATOM     12  C   UNL     1      49.680   7.951  12.045  0.00  0.00    +0.000 A 
ATOM     13  C   UNL     1      48.400   7.578  11.625  0.00  0.00    +0.000 A 
ENDBRANCH   6   8
BRANCH   1  14
ATOM     14  C   UNL     1      44.370   3.263  11.277  0.00  0.00    +0.000 C 
BRANCH  14  15
ATOM     15  O   UNL     1      43.799   2.992   9.989  0.00  0.00    +0.000 OA
BRANCH  15  19
ATOM     16  C   UNL     1      46.630   2.199   7.112  0.00  0.00    +0.000 A 
ATOM     17  C   UNL     1      46.022   3.455   7.150  0.00  0.00    +0.000 A 
ATOM     18  C   UNL     1      45.067   3.723   8.134  0.00  0.00    +0.000 A 
ATOM     19  C   UNL     1      44.761   2.719   9.041  0.00  0.00    +0.000 A 
ATOM     20  N   UNL     1      45.341   1.501   9.027  0.00  0.00    +0.000 NA
ATOM     21  C   UNL     1      46.263   1.269   8.066  0.00  0.00    +0.000 A 
BRANCH  16  23
ATOM     22  N   UNL     1      48.374   1.585   5.301  0.00  0.00    +0.000 NA
ATOM     23  C   UNL     1      47.601   1.860   6.120  0.00  0.00    +0.000 C 
ENDBRANCH  16  23
ENDBRANCH  15  19
ENDBRANCH  14  15
ENDBRANCH   1  14
TORSDOF 5
ENDMDL
MODEL 3
REMARK VINA RESULT:    -7.230      2.198      3.918
REMARK INTER + INTRA:         -10.282
REMARK INTER:                  -9.777
REMARK INTRA:                  -0.505
REMARK UNBOUND:                -0.939
REMARK  Name = 
REMARK  5 active torsions:
REMARK  status: ('A' for Active; 'I' for Inactive)
REMARK    1  A    between atoms: C_2  and  C_3
REMARK    2  A    between atoms: C_6  and  O_7
REMARK    3  A    between atoms: O_7  and  C_8
REMARK    4  A    between atoms: C_8  and  C_9
REMARK    5  A    between atoms: C_14  and  C_15
REMARK                            x       y       z     vdW  Elec       q    Type
REMARK                         _______ _______ _______ _____ _____    ______ ____
ROOT
ATOM      1  C   UNL     1      45.613   4.859  12.164  0.00  0.00    +0.000 A 
ATOM      2  C   UNL     1      46.125   6.041  11.616  0.00  0.00    +0.000 A 
ATOM      3  C   UNL     1      47.136   6.732  12.278  0.00  0.00    +0.000 A 
ATOM      4  C   UNL     1      47.629   6.256  13.492  0.00  0.00    +0.000 A 
ATOM      5  F   UNL     1      48.623   6.953  14.065  0.00  0.00    +0.000 F 
ATOM      6  C   UNL     1      47.119   5.096  14.100  0.00  0.00    +0.000 A 
ATOM      7  C   UNL     1      46.096   4.422  13.408  0.00  0.00    +0.000 A 
ENDROOT
BRANCH   6   8
ATOM      8  C   UNL     1      47.586   4.600  15.418  0.00  0.00    +0.000 A 
ATOM      9  C   UNL     1      47.644   3.227  15.708  0.00  0.00    +0.000 A 
ATOM     10  C   UNL     1      48.123   2.757  16.933  0.00  0.00    +0.000 A 
ATOM     11  C   UNL     1      48.573   3.653  17.897  0.00  0.00    +0.000 A 
ATOM     12  C   UNL     1      48.528   5.018  17.642  0.00  0.00    +0.000 A 
ATOM     13  C   UNL     1      48.031   5.484  16.421  0.00  0.00    +0.000 A 
ENDBRANCH   6   8
BRANCH   1  14
ATOM     14  C   UNL     1      44.495   4.114  11.470  0.00  0.00    +0.000 C 
BRANCH  14  15
ATOM     15  O   UNL     1      44.325   4.605  10.133  0.00  0.00    +0.000 OA
BRANCH  15  19
ATOM     16  C   UNL     1      46.622   2.485   7.459  0.00  0.00    +0.000 A 
ATOM     17  C   UNL     1      45.890   1.800   8.431  0.00  0.00    +0.000 A 
ATOM     18  C   UNL     1      45.104   2.523   9.331  0.00  0.00    +0.000 A 
ATOM     19  C   UNL     1      45.085   3.906   9.221  0.00  0.00    +0.000 A 
ATOM     20  N   UNL     1      45.779   4.588   8.286  0.00  0.00    +0.000 NA
ATOM     21  C   UNL     1      46.529   3.863   7.426  0.00  0.00    +0.000 A 
BRANCH  16  23
ATOM     22  N   UNL     1      48.121   1.254   5.746  0.00  0.00    +0.000 NA
ATOM     23  C   UNL     1      47.456   1.801   6.522  0.00  0.00    +0.000 C 
ENDBRANCH  16  23
ENDBRANCH  15  19
ENDBRANCH  14  15
ENDBRANCH   1  14
TORSDOF 5
ENDMDL
MODEL 4
REMARK VINA RESULT:    -6.923      3.668      7.339
REMARK INTER + INTRA:          -9.886
REMARK INTER:                  -9.206
REMARK INTRA:                  -0.680
REMARK UNBOUND:                -0.939
REMARK  Name = 
REMARK  5 active torsions:
REMARK  status: ('A' for Active; 'I' for Inactive)
REMARK    1  A    between atoms: C_2  and  C_3
REMARK    2  A    between atoms: C_6  and  O_7
REMARK    3  A    between atoms: O_7  and  C_8
REMARK    4  A    between atoms: C_8  and  C_9
REMARK    5  A    between atoms: C_14  and  C_15
REMARK                            x       y       z     vdW  Elec       q    Type
REMARK                         _______ _______ _______ _____ _____    ______ ____
ROOT
ATOM      1  C   UNL     1      44.825   5.168  10.461  0.00  0.00    +0.000 A 
ATOM      2  C   UNL     1      43.863   4.381  11.104  0.00  0.00    +0.000 A 
ATOM      3  C   UNL     1      43.664   3.062  10.704  0.00  0.00    +0.000 A 
ATOM      4  C   UNL     1      44.411   2.530   9.654  0.00  0.00    +0.000 A 
ATOM      5  F   UNL     1      44.192   1.245   9.335  0.00  0.00    +0.000 F 
ATOM      6  C   UNL     1      45.359   3.293   8.952  0.00  0.00    +0.000 A 
ATOM      7  C   UNL     1      45.536   4.623   9.379  0.00  0.00    +0.000 A 
ENDROOT
BRANCH   6   8
ATOM      8  C   UNL     1      46.126   2.769   7.796  0.00  0.00    +0.000 A 
ATOM      9  C   UNL     1      46.682   1.479   7.807  0.00  0.00    +0.000 A 
ATOM     10  C   UNL     1      47.369   0.969   6.703  0.00  0.00    +0.000 A 
ATOM     11  C   UNL     1      47.504   1.733   5.549  0.00  0.00    +0.000 A 
ATOM     12  C   UNL     1      46.966   3.014   5.506  0.00  0.00    +0.000 A 
ATOM     13  C   UNL     1      46.295   3.527   6.620  0.00  0.00    +0.000 A 
ENDBRANCH   6   8
BRANCH   1  14
ATOM     14  C   UNL     1      45.031   6.610  10.867  0.00  0.00    +0.000 C 
BRANCH  14  15
ATOM     15  O   UNL     1      44.863   6.757  12.284  0.00  0.00    +0.000 OA
BRANCH  15  19
ATOM     16  C   UNL     1      48.418   7.379  14.258  0.00  0.00    +0.000 A 
ATOM     17  C   UNL     1      47.988   6.074  14.010  0.00  0.00    +0.000 A 
ATOM     18  C   UNL     1      46.785   5.867  13.332  0.00  0.00    +0.000 A 
ATOM     19  C   UNL     1      46.060   6.979  12.929  0.00  0.00    +0.000 A 
ATOM     20  N   UNL     1      46.459   8.249  13.152  0.00  0.00    +0.000 NA
ATOM     21  C   UNL     1      47.629   8.419  13.808  0.00  0.00    +0.000 A 
BRANCH  16  23
ATOM     22  N   UNL     1      50.606   7.870  15.549  0.00  0.00    +0.000 NA
ATOM     23  C   UNL     1      49.631   7.653  14.961  0.00  0.00    +0.000 C 
ENDBRANCH  16  23
ENDBRANCH  15  19
ENDBRANCH  14  15
ENDBRANCH   1  14
TORSDOF 5
ENDMDL
MODEL 5
REMARK VINA RESULT:    -6.843      3.197      6.795
REMARK INTER + INTRA:          -9.782
REMARK INTER:                  -9.087
REMARK INTRA:                  -0.695
REMARK UNBOUND:                -0.939
REMARK  Name = 
REMARK  5 active torsions:
REMARK  status: ('A' for Active; 'I' for Inactive)
REMARK    1  A    between atoms: C_2  and  C_3
REMARK    2  A    between atoms: C_6  and  O_7
REMARK    3  A    between atoms: O_7  and  C_8
REMARK    4  A    between atoms: C_8  and  C_9
REMARK    5  A    between atoms: C_14  and  C_15
REMARK                            x       y       z     vdW  Elec       q    Type
REMARK                         _______ _______ _______ _____ _____    ______ ____
ROOT
ATOM      1  C   UNL     1      44.390   5.309  11.075  0.00  0.00    +0.000 A 
ATOM      2  C   UNL     1      43.491   4.475  11.750  0.00  0.00    +0.000 A 
ATOM      3  C   UNL     1      43.341   3.148  11.352  0.00  0.00    +0.000 A 
ATOM      4  C   UNL     1      44.075   2.655  10.275  0.00  0.00    +0.000 A 
ATOM      5  F   UNL     1      43.906   1.361   9.960  0.00  0.00    +0.000 F 
ATOM      6  C   UNL     1      44.959   3.465   9.542  0.00  0.00    +0.000 A 
ATOM      7  C   UNL     1      45.086   4.800   9.966  0.00  0.00    +0.000 A 
ENDROOT
BRANCH   6   8
ATOM      8  C   UNL     1      45.708   2.980   8.357  0.00  0.00    +0.000 A 
ATOM      9  C   UNL     1      45.966   3.817   7.258  0.00  0.00    +0.000 A 
ATOM     10  C   UNL     1      46.707   3.373   6.159  0.00  0.00    +0.000 A 
ATOM     11  C   UNL     1      47.224   2.083   6.140  0.00  0.00    +0.000 A 
ATOM     12  C   UNL     1      46.986   1.230   7.211  0.00  0.00    +0.000 A 
ATOM     13  C   UNL     1      46.229   1.672   8.300  0.00  0.00    +0.000 A 
ENDBRANCH   6   8
BRANCH   1  14
ATOM     14  C   UNL     1      44.541   6.758  11.478  0.00  0.00    +0.000 C 
BRANCH  14  15
ATOM     15  O   UNL     1      45.192   6.855  12.753  0.00  0.00    +0.000 OA
BRANCH  15  19
ATOM     16  C   UNL     1      49.138   7.941  12.339  0.00  0.00    +0.000 A 
ATOM     17  C   UNL     1      48.135   8.870  12.055  0.00  0.00    +0.000 A 
ATOM     18  C   UNL     1      46.797   8.500  12.205  0.00  0.00    +0.000 A 
ATOM     19  C   UNL     1      46.517   7.211  12.634  0.00  0.00    +0.000 A 
ATOM     20  N   UNL     1      47.470   6.299  12.920  0.00  0.00    +0.000 NA
ATOM     21  C   UNL     1      48.756   6.684  12.768  0.00  0.00    +0.000 A 
BRANCH  16  23
ATOM     22  N   UNL     1      51.652   8.494  12.076  0.00  0.00    +0.000 NA
ATOM     23  C   UNL     1      50.523   8.255  12.188  0.00  0.00    +0.000 C 
ENDBRANCH  16  23
ENDBRANCH  15  19
ENDBRANCH  14  15
ENDBRANCH   1  14
TORSDOF 5
ENDMDL
MODEL 6
REMARK VINA RESULT:    -6.360      4.445      8.119
REMARK INTER + INTRA:          -9.158
REMARK INTER:                  -8.186
REMARK INTRA:                  -0.972
REMARK UNBOUND:                -0.939
REMARK  Name = 
REMARK  5 active torsions:
REMARK  status: ('A' for Active; 'I' for Inactive)
REMARK    1  A    between atoms: C_2  and  C_3
REMARK    2  A    between atoms: C_6  and  O_7
REMARK    3  A    between atoms: O_7  and  C_8
REMARK    4  A    between atoms: C_8  and  C_9
REMARK    5  A    between atoms: C_14  and  C_15
REMARK                            x       y       z     vdW  Elec       q    Type
REMARK                         _______ _______ _______ _____ _____    ______ ____
ROOT
ATOM      1  C   UNL     1      47.267   7.402  12.978  0.00  0.00    +0.000 A 
ATOM      2  C   UNL     1      46.357   8.452  13.142  0.00  0.00    +0.000 A 
ATOM      3  C   UNL     1      45.116   8.403  12.511  0.00  0.00    +0.000 A 
ATOM      4  C   UNL     1      44.786   7.313  11.706  0.00  0.00    +0.000 A 
ATOM      5  F   UNL     1      43.564   7.312  11.149  0.00  0.00    +0.000 F 
ATOM      6  C   UNL     1      45.681   6.254  11.480  0.00  0.00    +0.000 A 
ATOM      7  C   UNL     1      46.927   6.336  12.129  0.00  0.00    +0.000 A 
ENDROOT
BRANCH   6   8
ATOM      8  C   UNL     1      45.376   5.113  10.583  0.00  0.00    +0.000 A 
ATOM      9  C   UNL     1      44.689   3.978  11.046  0.00  0.00    +0.000 A 
ATOM     10  C   UNL     1      44.365   2.921  10.192  0.00  0.00    +0.000 A 
ATOM     11  C   UNL     1      44.707   2.980   8.845  0.00  0.00    +0.000 A 
ATOM     12  C   UNL     1      45.388   4.088   8.356  0.00  0.00    +0.000 A 
ATOM     13  C   UNL     1      45.727   5.136   9.218  0.00  0.00    +0.000 A 
ENDBRANCH   6   8
BRANCH   1  14
ATOM     14  C   UNL     1      48.627   7.457  13.635  0.00  0.00    +0.000 C 
BRANCH  14  15
ATOM     15  O   UNL     1      48.955   6.185  14.210  0.00  0.00    +0.000 OA
BRANCH  15  19
ATOM     16  C   UNL     1      48.088   6.030  18.229  0.00  0.00    +0.000 A 
ATOM     17  C   UNL     1      48.603   7.206  17.681  0.00  0.00    +0.000 A 
ATOM     18  C   UNL     1      48.888   7.258  16.315  0.00  0.00    +0.000 A 
ATOM     19  C   UNL     1      48.645   6.125  15.551  0.00  0.00    +0.000 A 
ATOM     20  N   UNL     1      48.142   4.979  16.058  0.00  0.00    +0.000 NA
ATOM     21  C   UNL     1      47.874   4.959  17.383  0.00  0.00    +0.000 A 
BRANCH  16  23
ATOM     22  N   UNL     1      47.541   5.833  20.750  0.00  0.00    +0.000 NA
ATOM     23  C   UNL     1      47.793   5.912  19.621  0.00  0.00    +0.000 C 
ENDBRANCH  16  23
ENDBRANCH  15  19
ENDBRANCH  14  15
ENDBRANCH   1  14
TORSDOF 5
ENDMDL
MODEL 7
REMARK VINA RESULT:    -5.765      4.948      8.442
REMARK INTER + INTRA:          -8.389
REMARK INTER:                  -7.499
REMARK INTRA:                  -0.890
REMARK UNBOUND:                -0.939
REMARK  Name = 
REMARK  5 active torsions:
REMARK  status: ('A' for Active; 'I' for Inactive)
REMARK    1  A    between atoms: C_2  and  C_3
REMARK    2  A    between atoms: C_6  and  O_7
REMARK    3  A    between atoms: O_7  and  C_8
REMARK    4  A    between atoms: C_8  and  C_9
REMARK    5  A    between atoms: C_14  and  C_15
REMARK                            x       y       z     vdW  Elec       q    Type
REMARK                         _______ _______ _______ _____ _____    ______ ____
ROOT
ATOM      1  C   UNL     1      47.528   7.387  13.301  0.00  0.00    +0.000 A 
ATOM      2  C   UNL     1      46.787   8.571  13.383  0.00  0.00    +0.000 A 
ATOM      3  C   UNL     1      45.588   8.691  12.684  0.00  0.00    +0.000 A 
ATOM      4  C   UNL     1      45.133   7.637  11.893  0.00  0.00    +0.000 A 
ATOM      5  F   UNL     1      43.956   7.804  11.268  0.00  0.00    +0.000 F 
ATOM      6  C   UNL     1      45.862   6.444  11.748  0.00  0.00    +0.000 A 
ATOM      7  C   UNL     1      47.070   6.356  12.464  0.00  0.00    +0.000 A 
ENDROOT
BRANCH   6   8
ATOM      8  C   UNL     1      45.428   5.332  10.869  0.00  0.00    +0.000 A 
ATOM      9  C   UNL     1      45.679   5.347   9.486  0.00  0.00    +0.000 A 
ATOM     10  C   UNL     1      45.308   4.281   8.663  0.00  0.00    +0.000 A 
ATOM     11  C   UNL     1      44.688   3.161   9.207  0.00  0.00    +0.000 A 
ATOM     12  C   UNL     1      44.425   3.115  10.571  0.00  0.00    +0.000 A 
ATOM     13  C   UNL     1      44.782   4.192  11.388  0.00  0.00    +0.000 A 
ENDBRANCH   6   8
BRANCH   1  14
ATOM     14  C   UNL     1      48.845   7.255  14.031  0.00  0.00    +0.000 C 
BRANCH  14  15
ATOM     15  O   UNL     1      48.856   8.095  15.194  0.00  0.00    +0.000 OA
BRANCH  15  19
ATOM     16  C   UNL     1      48.823   5.870  18.654  0.00  0.00    +0.000 A 
ATOM     17  C   UNL     1      49.168   5.259  17.447  0.00  0.00    +0.000 A 
ATOM     18  C   UNL     1      49.186   6.020  16.276  0.00  0.00    +0.000 A 
ATOM     19  C   UNL     1      48.857   7.365  16.363  0.00  0.00    +0.000 A 
ATOM     20  N   UNL     1      48.527   7.978  17.519  0.00  0.00    +0.000 NA
ATOM     21  C   UNL     1      48.520   7.218  18.637  0.00  0.00    +0.000 A 
BRANCH  16  23
ATOM     22  N   UNL     1      48.708   4.546  20.875  0.00  0.00    +0.000 NA
ATOM     23  C   UNL     1      48.771   5.141  19.881  0.00  0.00    +0.000 C 
ENDBRANCH  16  23
ENDBRANCH  15  19
ENDBRANCH  14  15
ENDBRANCH   1  14
TORSDOF 5
ENDMDL
MODEL 8
REMARK VINA RESULT:    -5.735      4.969      8.125
REMARK INTER + INTRA:          -8.351
REMARK INTER:                  -7.603
REMARK INTRA:                  -0.748
REMARK UNBOUND:                -0.939
REMARK  Name = 
REMARK  5 active torsions:
REMARK  status: ('A' for Active; 'I' for Inactive)
REMARK    1  A    between atoms: C_2  and  C_3
REMARK    2  A    between atoms: C_6  and  O_7
REMARK    3  A    between atoms: O_7  and  C_8
REMARK    4  A    between atoms: C_8  and  C_9
REMARK    5  A    between atoms: C_14  and  C_15
REMARK                            x       y       z     vdW  Elec       q    Type
REMARK                         _______ _______ _______ _____ _____    ______ ____
ROOT
ATOM      1  C   UNL     1      47.352   7.288  13.377  0.00  0.00    +0.000 A 
ATOM      2  C   UNL     1      46.630   8.488  13.400  0.00  0.00    +0.000 A 
ATOM      3  C   UNL     1      45.479   8.621  12.628  0.00  0.00    +0.000 A 
ATOM      4  C   UNL     1      45.051   7.566  11.823  0.00  0.00    +0.000 A 
ATOM      5  F   UNL     1      43.918   7.747  11.126  0.00  0.00    +0.000 F 
ATOM      6  C   UNL     1      45.763   6.358  11.737  0.00  0.00    +0.000 A 
ATOM      7  C   UNL     1      46.924   6.256  12.526  0.00  0.00    +0.000 A 
ENDROOT
BRANCH   6   8
ATOM      8  C   UNL     1      45.362   5.243  10.846  0.00  0.00    +0.000 A 
ATOM      9  C   UNL     1      44.608   4.156  11.322  0.00  0.00    +0.000 A 
ATOM     10  C   UNL     1      44.194   3.126  10.474  0.00  0.00    +0.000 A 
ATOM     11  C   UNL     1      44.511   3.164   9.121  0.00  0.00    +0.000 A 
ATOM     12  C   UNL     1      45.256   4.225   8.619  0.00  0.00    +0.000 A 
ATOM     13  C   UNL     1      45.684   5.244   9.474  0.00  0.00    +0.000 A 
ENDBRANCH   6   8
BRANCH   1  14
ATOM     14  C   UNL     1      48.619   7.141  14.187  0.00  0.00    +0.000 C 
BRANCH  14  15
ATOM     15  O   UNL     1      48.364   6.379  15.376  0.00  0.00    +0.000 OA
BRANCH  15  19
ATOM     16  C   UNL     1      51.860   5.452  17.337  0.00  0.00    +0.000 A 
ATOM     17  C   UNL     1      51.801   6.596  16.540  0.00  0.00    +0.000 A 
ATOM     18  C   UNL     1      50.610   6.912  15.882  0.00  0.00    +0.000 A 
ATOM     19  C   UNL     1      49.524   6.066  16.051  0.00  0.00    +0.000 A 
ATOM     20  N   UNL     1      49.556   4.959  16.822  0.00  0.00    +0.000 NA
ATOM     21  C   UNL     1      50.720   4.679  17.448  0.00  0.00    +0.000 A 
BRANCH  16  23
ATOM     22  N   UNL     1      54.014   4.740  18.581  0.00  0.00    +0.000 NA
ATOM     23  C   UNL     1      53.054   5.069  18.020  0.00  0.00    +0.000 C 
ENDBRANCH  16  23
ENDBRANCH  15  19
ENDBRANCH  14  15
ENDBRANCH   1  14
TORSDOF 5
ENDMDL
MODEL 9
REMARK VINA RESULT:    -5.406      4.573      7.026
REMARK INTER + INTRA:          -7.926
REMARK INTER:                  -7.036
REMARK INTRA:                  -0.890
REMARK UNBOUND:                -0.939
REMARK  Name = 
REMARK  5 active torsions:
REMARK  status: ('A' for Active; 'I' for Inactive)
REMARK    1  A    between atoms: C_2  and  C_3
REMARK    2  A    between atoms: C_6  and  O_7
REMARK    3  A    between atoms: O_7  and  C_8
REMARK    4  A    between atoms: C_8  and  C_9
REMARK    5  A    between atoms: C_14  and  C_15
REMARK                            x       y       z     vdW  Elec       q    Type
REMARK                         _______ _______ _______ _____ _____    ______ ____
ROOT
ATOM      1  C   UNL     1      50.349   8.544  11.813  0.00  0.00    +0.000 A 
ATOM      2  C   UNL     1      50.735   9.887  11.726  0.00  0.00    +0.000 A 
ATOM      3  C   UNL     1      51.728  10.267  10.826  0.00  0.00    +0.000 A 
ATOM      4  C   UNL     1      52.345   9.311  10.021  0.00  0.00    +0.000 A 
ATOM      5  F   UNL     1      53.273   9.746   9.154  0.00  0.00    +0.000 F 
ATOM      6  C   UNL     1      52.018   7.946  10.101  0.00  0.00    +0.000 A 
ATOM      7  C   UNL     1      51.014   7.593  11.022  0.00  0.00    +0.000 A 
ENDROOT
BRANCH   6   8
ATOM      8  C   UNL     1      52.699   6.902   9.297  0.00  0.00    +0.000 A 
ATOM      9  C   UNL     1      52.364   6.675   7.952  0.00  0.00    +0.000 A 
ATOM     10  C   UNL     1      53.033   5.720   7.182  0.00  0.00    +0.000 A 
ATOM     11  C   UNL     1      54.070   4.977   7.737  0.00  0.00    +0.000 A 
ATOM     12  C   UNL     1      54.425   5.177   9.065  0.00  0.00    +0.000 A 
ATOM     13  C   UNL     1      53.740   6.121   9.837  0.00  0.00    +0.000 A 
ENDBRANCH   6   8
BRANCH   1  14
ATOM     14  C   UNL     1      49.293   8.114  12.806  0.00  0.00    +0.000 C 
BRANCH  14  15
ATOM     15  O   UNL     1      49.187   6.683  12.832  0.00  0.00    +0.000 OA
BRANCH  15  19
ATOM     16  C   UNL     1      45.256   5.479  12.960  0.00  0.00    +0.000 A 
ATOM     17  C   UNL     1      45.627   6.529  12.117  0.00  0.00    +0.000 A 
ATOM     18  C   UNL     1      46.964   6.929  12.071  0.00  0.00    +0.000 A 
ATOM     19  C   UNL     1      47.877   6.259  12.872  0.00  0.00    +0.000 A 
ATOM     20  N   UNL     1      47.542   5.239  13.689  0.00  0.00    +0.000 NA
ATOM     21  C   UNL     1      46.242   4.871  13.713  0.00  0.00    +0.000 A 
BRANCH  16  23
ATOM     22  N   UNL     1      42.809   4.659  13.152  0.00  0.00    +0.000 NA
ATOM     23  C   UNL     1      43.902   5.037  13.063  0.00  0.00    +0.000 C 
ENDBRANCH  16  23
ENDBRANCH  15  19
ENDBRANCH  14  15
ENDBRANCH   1  14
TORSDOF 5
ENDMDL
