MODEL 1
REMARK VINA RESULT:    -7.936      0.000      0.000
REMARK INTER + INTRA:         -13.104
REMARK INTER:                 -11.647
REMARK INTRA:                  -1.457
REMARK UNBOUND:                -1.457
REMARK  Name = 
REMARK  9 active torsions:
REMARK  status: ('A' for Active; 'I' for Inactive)
REMARK    1  A    between atoms: C_1  and  C_2
REMARK    2  A    between atoms: C_2  and  N_3
REMARK    3  A    between atoms: N_3  and  C_4
REMARK    4  A    between atoms: N_3  and  C_11
REMARK    5  A    between atoms: C_4  and  C_5
REMARK    6  A    between atoms: C_11  and  C_12
REMARK    7  A    between atoms: C_15  and  C_16
REMARK    8  A    between atoms: C_16  and  N_17
REMARK    9  A    between atoms: C_18  and  C_20
REMARK                            x       y       z     vdW  Elec       q    Type
REMARK                         _______ _______ _______ _____ _____    ______ ____
ROOT
ATOM      1  C   UNL     1      44.894   6.042  11.162  0.00  0.00    +0.000 A 
ATOM      2  C   UNL     1      46.180   5.599  11.498  0.00  0.00    +0.000 A 
ATOM      3  C   UNL     1      47.022   6.378  12.301  0.00  0.00    +0.000 A 
ATOM      4  C   UNL     1      46.598   7.629  12.776  0.00  0.00    +0.000 A 
ATOM      5  C   UNL     1      45.336   8.096  12.391  0.00  0.00    +0.000 A 
ATOM      6  C   UNL     1      44.486   7.309  11.605  0.00  0.00    +0.000 A 
ENDROOT
BRANCH   1   7
ATOM      7  C   UNL     1      43.954   5.154  10.367  0.00  0.00    +0.000 C 
BRANCH   7   8
ATOM      8  N   UNL     1      44.489   3.788  10.108  0.00  0.00    +0.000 NA
BRANCH   8  10
ATOM      9  C   UNL     1      43.663   2.947  12.407  0.00  0.00    +0.000 C 
ATOM     10  C   UNL     1      43.676   2.818  10.887  0.00  0.00    +0.000 C 
ENDBRANCH   8  10
BRANCH   8  11
ATOM     11  C   UNL     1      44.440   3.507   8.659  0.00  0.00    +0.000 C 
BRANCH  11  12
ATOM     12  C   UNL     1      45.686   2.863   8.061  0.00  0.00    +0.000 A 
ATOM     13  C   UNL     1      46.015   1.525   8.320  0.00  0.00    +0.000 A 
ATOM     14  C   UNL     1      47.020   0.886   7.590  0.00  0.00    +0.000 A 
ATOM     15  C   UNL     1      47.735   1.588   6.615  0.00  0.00    +0.000 A 
ATOM     16  C   UNL     1      47.481   2.942   6.413  0.00  0.00    +0.000 A 
ATOM     17  C   UNL     1      46.465   3.575   7.132  0.00  0.00    +0.000 A 
ENDBRANCH  11  12
ENDBRANCH   8  11
ENDBRANCH   7   8
ENDBRANCH   1   7
BRANCH   4  18
ATOM     18  C   UNL     1      47.467   8.466  13.688  0.00  0.00    +0.000 C 
BRANCH  18  19
ATOM     19  N   UNL     1      47.892   7.732  14.853  0.00  0.00    +0.000 N 
ATOM     20  C   UNL     1      49.159   7.206  14.953  0.00  0.00    +0.000 C 
ATOM     21  O   UNL     1      50.000   7.337  14.074  0.00  0.00    +0.000 OA
ATOM     22  H   UNL     1      47.162   7.363  15.448  0.00  0.00    +0.000 HD
BRANCH  20  23
ATOM     23  C   UNL     1      49.461   6.535  16.227  0.00  0.00    +0.000 A 
ATOM     24  C   UNL     1      50.455   7.034  17.060  0.00  0.00    +0.000 A 
ATOM     25  S   UNL     1      50.636   6.153  18.511  0.00  0.00    +0.000 S 
ATOM     26  C   UNL     1      49.426   5.046  18.059  0.00  0.00    +0.000 A 
ATOM     27  N   UNL     1      49.099   3.994  18.860  0.00  0.00    +0.000 NA
ATOM     28  C   UNL     1      48.187   3.219  18.378  0.00  0.00    +0.000 A 
ATOM     29  N   UNL     1      47.560   3.405  17.171  0.00  0.00    +0.000 N 
ATOM     30  C   UNL     1      47.828   4.475  16.351  0.00  0.00    +0.000 A 
ATOM     31  O   UNL     1      47.204   4.646  15.311  0.00  0.00    +0.000 OA
ATOM     32  C   UNL     1      48.871   5.361  16.833  0.00  0.00    +0.000 A 
ATOM     33  H   UNL     1      46.843   2.770  16.858  0.00  0.00    +0.000 HD
ENDBRANCH  20  23
ENDBRANCH  18  19
ENDBRANCH   4  18
TORSDOF 8
ENDMDL
MODEL 2
REMARK VINA RESULT:    -7.358      2.263      2.798
REMARK INTER + INTRA:         -12.257
REMARK INTER:                 -11.059
REMARK INTRA:                  -1.198
REMARK UNBOUND:                -1.457
REMARK  Name = 
REMARK  9 active torsions:
REMARK  status: ('A' for Active; 'I' for Inactive)
REMARK    1  A    between atoms: C_1  and  C_2
REMARK    2  A    between atoms: C_2  and  N_3
REMARK    3  A    between atoms: N_3  and  C_4
REMARK    4  A    between atoms: N_3  and  C_11
REMARK    5  A    between atoms: C_4  and  C_5
REMARK    6  A    between atoms: C_11  and  C_12
REMARK    7  A    between atoms: C_15  and  C_16
REMARK    8  A    between atoms: C_16  and  N_17
REMARK    9  A    between atoms: C_18  and  C_20
REMARK                            x       y       z     vdW  Elec       q    Type
REMARK                         _______ _______ _______ _____ _____    ______ ____
ROOT
ATOM      1  C   UNL     1      45.617   6.117  12.055  0.00  0.00    +0.000 A 
ATOM      2  C   UNL     1      46.231   7.376  12.069  0.00  0.00    +0.000 A 
ATOM      3  C   UNL     1      47.293   7.648  12.940  0.00  0.00    +0.000 A 
ATOM      4  C   UNL     1      47.756   6.664  13.829  0.00  0.00    +0.000 A 
ATOM      5  C   UNL     1      47.103   5.427  13.855  0.00  0.00    +0.000 A 
ATOM      6  C   UNL     1      46.054   5.148  12.970  0.00  0.00    +0.000 A 
ENDROOT
BRANCH   1   7
ATOM      7  C   UNL     1      44.526   5.800  11.046  0.00  0.00    +0.000 C 
BRANCH   7   8
ATOM      8  N   UNL     1      44.458   4.362  10.665  0.00  0.00    +0.000 NA
BRANCH   8  10
ATOM      9  C   UNL     1      43.440   2.479  12.111  0.00  0.00    +0.000 C 
ATOM     10  C   UNL     1      43.261   3.767  11.314  0.00  0.00    +0.000 C 
ENDBRANCH   8  10
BRANCH   8  11
ATOM     11  C   UNL     1      44.399   4.245   9.193  0.00  0.00    +0.000 C 
BRANCH  11  12
ATOM     12  C   UNL     1      45.452   3.350   8.551  0.00  0.00    +0.000 A 
ATOM     13  C   UNL     1      45.499   1.972   8.811  0.00  0.00    +0.000 A 
ATOM     14  C   UNL     1      46.312   1.132   8.047  0.00  0.00    +0.000 A 
ATOM     15  C   UNL     1      47.117   1.663   7.035  0.00  0.00    +0.000 A 
ATOM     16  C   UNL     1      47.150   3.040   6.828  0.00  0.00    +0.000 A 
ATOM     17  C   UNL     1      46.324   3.877   7.582  0.00  0.00    +0.000 A 
ENDBRANCH  11  12
ENDBRANCH   8  11
ENDBRANCH   7   8
ENDBRANCH   1   7
BRANCH   4  18
ATOM     18  C   UNL     1      48.935   6.916  14.743  0.00  0.00    +0.000 C 
BRANCH  18  19
ATOM     19  N   UNL     1      48.617   6.646  16.122  0.00  0.00    +0.000 N 
ATOM     20  C   UNL     1      49.491   5.978  16.947  0.00  0.00    +0.000 C 
ATOM     21  O   UNL     1      50.588   5.585  16.569  0.00  0.00    +0.000 OA
ATOM     22  H   UNL     1      47.640   6.689  16.380  0.00  0.00    +0.000 HD
BRANCH  20  23
ATOM     23  C   UNL     1      49.050   5.830  18.342  0.00  0.00    +0.000 A 
ATOM     24  C   UNL     1      49.197   4.611  18.994  0.00  0.00    +0.000 A 
ATOM     25  S   UNL     1      48.671   4.638  20.618  0.00  0.00    +0.000 S 
ATOM     26  C   UNL     1      48.185   6.264  20.496  0.00  0.00    +0.000 A 
ATOM     27  N   UNL     1      47.608   6.907  21.548  0.00  0.00    +0.000 NA
ATOM     28  C   UNL     1      47.262   8.126  21.305  0.00  0.00    +0.000 A 
ATOM     29  N   UNL     1      47.451   8.769  20.106  0.00  0.00    +0.000 N 
ATOM     30  C   UNL     1      48.067   8.172  19.032  0.00  0.00    +0.000 A 
ATOM     31  O   UNL     1      48.280   8.794  17.998  0.00  0.00    +0.000 OA
ATOM     32  C   UNL     1      48.448   6.788  19.244  0.00  0.00    +0.000 A 
ATOM     33  H   UNL     1      47.172   9.728  19.984  0.00  0.00    +0.000 HD
ENDBRANCH  20  23
ENDBRANCH  18  19
ENDBRANCH   4  18
TORSDOF 8
ENDMDL
MODEL 3
REMARK VINA RESULT:    -7.223      1.422      1.740
REMARK INTER + INTRA:         -12.058
REMARK INTER:                 -10.683
REMARK INTRA:                  -1.375
REMARK UNBOUND:                -1.457
REMARK  Name = 
REMARK  9 active torsions:
REMARK  status: ('A' for Active; 'I' for Inactive)
REMARK    1  A    between atoms: C_1  and  C_2
REMARK    2  A    between atoms: C_2  and  N_3
REMARK    3  A    between atoms: N_3  and  C_4
REMARK    4  A    between atoms: N_3  and  C_11
REMARK    5  A    between atoms: C_4  and  C_5
REMARK    6  A    between atoms: C_11  and  C_12
REMARK    7  A    between atoms: C_15  and  C_16
REMARK    8  A    between atoms: C_16  and  N_17
REMARK    9  A    between atoms: C_18  and  C_20
REMARK                            x       y       z     vdW  Elec       q    Type
REMARK                         _______ _______ _______ _____ _____    ______ ____
ROOT
ATOM      1  C   UNL     1      45.952   6.106  11.765  0.00  0.00    +0.000 A 
ATOM      2  C   UNL     1      46.420   5.306  12.816  0.00  0.00    +0.000 A 
ATOM      3  C   UNL     1      47.583   5.647  13.515  0.00  0.00    +0.000 A 
ATOM      4  C   UNL     1      48.314   6.795  13.168  0.00  0.00    +0.000 A 
ATOM      5  C   UNL     1      47.878   7.559  12.080  0.00  0.00    +0.000 A 
ATOM      6  C   UNL     1      46.704   7.230  11.393  0.00  0.00    +0.000 A 
ENDROOT
BRANCH   1   7
ATOM      7  C   UNL     1      44.641   5.780  11.069  0.00  0.00    +0.000 C 
BRANCH   7   8
ATOM      8  N   UNL     1      44.491   4.342  10.712  0.00  0.00    +0.000 NA
BRANCH   8  10
ATOM      9  C   UNL     1      43.309   2.365  11.881  0.00  0.00    +0.000 C 
ATOM     10  C   UNL     1      43.289   3.815  11.408  0.00  0.00    +0.000 C 
ENDBRANCH   8  10
BRANCH   8  11
ATOM     11  C   UNL     1      44.377   4.209   9.244  0.00  0.00    +0.000 C 
BRANCH  11  12
ATOM     12  C   UNL     1      45.430   3.336   8.569  0.00  0.00    +0.000 A 
ATOM     13  C   UNL     1      45.502   1.957   8.814  0.00  0.00    +0.000 A 
ATOM     14  C   UNL     1      46.310   1.137   8.023  0.00  0.00    +0.000 A 
ATOM     15  C   UNL     1      47.084   1.690   6.999  0.00  0.00    +0.000 A 
ATOM     16  C   UNL     1      47.092   3.069   6.806  0.00  0.00    +0.000 A 
ATOM     17  C   UNL     1      46.272   3.886   7.587  0.00  0.00    +0.000 A 
ENDBRANCH  11  12
ENDBRANCH   8  11
ENDBRANCH   7   8
ENDBRANCH   1   7
BRANCH   4  18
ATOM     18  C   UNL     1      49.544   7.213  13.941  0.00  0.00    +0.000 C 
BRANCH  18  19
ATOM     19  N   UNL     1      49.374   7.043  15.362  0.00  0.00    +0.000 N 
ATOM     20  C   UNL     1      50.418   7.215  16.240  0.00  0.00    +0.000 C 
ATOM     21  O   UNL     1      51.543   7.533  15.876  0.00  0.00    +0.000 OA
ATOM     22  H   UNL     1      48.567   6.512  15.662  0.00  0.00    +0.000 HD
BRANCH  20  23
ATOM     23  C   UNL     1      50.075   7.063  17.662  0.00  0.00    +0.000 A 
ATOM     24  C   UNL     1      50.194   8.143  18.529  0.00  0.00    +0.000 A 
ATOM     25  S   UNL     1      49.711   7.793  20.128  0.00  0.00    +0.000 S 
ATOM     26  C   UNL     1      49.368   6.174  19.732  0.00  0.00    +0.000 A 
ATOM     27  N   UNL     1      48.933   5.296  20.678  0.00  0.00    +0.000 NA
ATOM     28  C   UNL     1      48.742   4.095  20.244  0.00  0.00    +0.000 A 
ATOM     29  N   UNL     1      48.933   3.693  18.945  0.00  0.00    +0.000 N 
ATOM     30  C   UNL     1      49.331   4.555  17.951  0.00  0.00    +0.000 A 
ATOM     31  O   UNL     1      49.429   4.178  16.789  0.00  0.00    +0.000 OA
ATOM     32  C   UNL     1      49.590   5.912  18.394  0.00  0.00    +0.000 A 
ATOM     33  H   UNL     1      48.752   2.742  18.667  0.00  0.00    +0.000 HD
ENDBRANCH  20  23
ENDBRANCH  18  19
ENDBRANCH   4  18
TORSDOF 8
ENDMDL
MODEL 4
REMARK VINA RESULT:    -6.934      3.816     10.035
REMARK INTER + INTRA:         -11.634
REMARK INTER:                  -9.489
REMARK INTRA:                  -2.145
REMARK UNBOUND:                -1.457
REMARK  Name = 
REMARK  9 active torsions:
REMARK  status: ('A' for Active; 'I' for Inactive)
REMARK    1  A    between atoms: C_1  and  C_2
REMARK    2  A    between atoms: C_2  and  N_3
REMARK    3  A    between atoms: N_3  and  C_4
REMARK    4  A    between atoms: N_3  and  C_11
REMARK    5  A    between atoms: C_4  and  C_5
REMARK    6  A    between atoms: C_11  and  C_12
REMARK    7  A    between atoms: C_15  and  C_16
REMARK    8  A    between atoms: C_16  and  N_17
REMARK    9  A    between atoms: C_18  and  C_20
REMARK                            x       y       z     vdW  Elec       q    Type
REMARK                         _______ _______ _______ _____ _____    ______ ____
ROOT
ATOM      1  C   UNL     1      51.189   4.553  17.875  0.00  0.00    +0.000 A 
ATOM      2  C   UNL     1      50.316   5.543  17.405  0.00  0.00    +0.000 A 
ATOM      3  C   UNL     1      49.031   5.214  16.958  0.00  0.00    +0.000 A 
ATOM      4  C   UNL     1      48.594   3.879  16.959  0.00  0.00    +0.000 A 
ATOM      5  C   UNL     1      49.488   2.886  17.373  0.00  0.00    +0.000 A 
ATOM      6  C   UNL     1      50.766   3.216  17.839  0.00  0.00    +0.000 A 
ENDROOT
BRANCH   1   7
ATOM      7  C   UNL     1      52.548   4.926  18.442  0.00  0.00    +0.000 C 
BRANCH   7   8
ATOM      8  N   UNL     1      52.728   4.547  19.871  0.00  0.00    +0.000 NA
BRANCH   8  10
ATOM      9  C   UNL     1      55.060   5.206  20.768  0.00  0.00    +0.000 C 
ATOM     10  C   UNL     1      54.156   4.190  20.078  0.00  0.00    +0.000 C 
ENDBRANCH   8  10
BRANCH   8  11
ATOM     11  C   UNL     1      52.314   5.672  20.735  0.00  0.00    +0.000 C 
BRANCH  11  12
ATOM     12  C   UNL     1      50.810   5.882  20.882  0.00  0.00    +0.000 A 
ATOM     13  C   UNL     1      50.212   7.115  20.589  0.00  0.00    +0.000 A 
ATOM     14  C   UNL     1      48.822   7.228  20.504  0.00  0.00    +0.000 A 
ATOM     15  C   UNL     1      48.010   6.116  20.747  0.00  0.00    +0.000 A 
ATOM     16  C   UNL     1      48.589   4.909  21.131  0.00  0.00    +0.000 A 
ATOM     17  C   UNL     1      49.979   4.793  21.199  0.00  0.00    +0.000 A 
ENDBRANCH  11  12
ENDBRANCH   8  11
ENDBRANCH   7   8
ENDBRANCH   1   7
BRANCH   4  18
ATOM     18  C   UNL     1      47.193   3.505  16.531  0.00  0.00    +0.000 C 
BRANCH  18  19
ATOM     19  N   UNL     1      46.641   4.455  15.599  0.00  0.00    +0.000 N 
ATOM     20  C   UNL     1      46.772   4.293  14.240  0.00  0.00    +0.000 C 
ATOM     21  O   UNL     1      47.350   3.336  13.741  0.00  0.00    +0.000 OA
ATOM     22  H   UNL     1      46.424   5.374  15.962  0.00  0.00    +0.000 HD
BRANCH  20  23
ATOM     23  C   UNL     1      46.105   5.315  13.418  0.00  0.00    +0.000 A 
ATOM     24  C   UNL     1      46.734   6.528  13.167  0.00  0.00    +0.000 A 
ATOM     25  S   UNL     1      45.831   7.570  12.161  0.00  0.00    +0.000 S 
ATOM     26  C   UNL     1      44.548   6.458  12.060  0.00  0.00    +0.000 A 
ATOM     27  N   UNL     1      43.417   6.749  11.359  0.00  0.00    +0.000 NA
ATOM     28  C   UNL     1      42.515   5.827  11.394  0.00  0.00    +0.000 A 
ATOM     29  N   UNL     1      42.643   4.631  12.057  0.00  0.00    +0.000 N 
ATOM     30  C   UNL     1      43.782   4.279  12.741  0.00  0.00    +0.000 A 
ATOM     31  O   UNL     1      43.888   3.178  13.267  0.00  0.00    +0.000 OA
ATOM     32  C   UNL     1      44.816   5.296  12.759  0.00  0.00    +0.000 A 
ATOM     33  H   UNL     1      41.906   3.946  12.033  0.00  0.00    +0.000 HD
ENDBRANCH  20  23
ENDBRANCH  18  19
ENDBRANCH   4  18
TORSDOF 8
ENDMDL
MODEL 5
REMARK VINA RESULT:    -6.872      2.995      8.403
REMARK INTER + INTRA:         -11.543
REMARK INTER:                  -9.605
REMARK INTRA:                  -1.939
REMARK UNBOUND:                -1.457
REMARK  Name = 
REMARK  9 active torsions:
REMARK  status: ('A' for Active; 'I' for Inactive)
REMARK    1  A    between atoms: C_1  and  C_2
REMARK    2  A    between atoms: C_2  and  N_3
REMARK    3  A    between atoms: N_3  and  C_4
REMARK    4  A    between atoms: N_3  and  C_11
REMARK    5  A    between atoms: C_4  and  C_5
REMARK    6  A    between atoms: C_11  and  C_12
REMARK    7  A    between atoms: C_15  and  C_16
REMARK    8  A    between atoms: C_16  and  N_17
REMARK    9  A    between atoms: C_18  and  C_20
REMARK                            x       y       z     vdW  Elec       q    Type
REMARK                         _______ _______ _______ _____ _____    ______ ____
ROOT
ATOM      1  C   UNL     1      49.303   8.352  15.957  0.00  0.00    +0.000 A 
ATOM      2  C   UNL     1      48.212   9.087  15.473  0.00  0.00    +0.000 A 
ATOM      3  C   UNL     1      47.763   8.924  14.158  0.00  0.00    +0.000 A 
ATOM      4  C   UNL     1      48.407   8.028  13.289  0.00  0.00    +0.000 A 
ATOM      5  C   UNL     1      49.532   7.339  13.756  0.00  0.00    +0.000 A 
ATOM      6  C   UNL     1      49.969   7.487  15.078  0.00  0.00    +0.000 A 
ENDROOT
BRANCH   1   7
ATOM      7  C   UNL     1      49.728   8.467  17.411  0.00  0.00    +0.000 C 
BRANCH   7   8
ATOM      8  N   UNL     1      50.279   7.205  17.978  0.00  0.00    +0.000 NA
BRANCH   8  10
ATOM      9  C   UNL     1      51.165   6.647  20.340  0.00  0.00    +0.000 C 
ATOM     10  C   UNL     1      51.166   7.558  19.116  0.00  0.00    +0.000 C 
ENDBRANCH   8  10
BRANCH   8  11
ATOM     11  C   UNL     1      49.166   6.329  18.401  0.00  0.00    +0.000 C 
BRANCH  11  12
ATOM     12  C   UNL     1      49.032   5.009  17.650  0.00  0.00    +0.000 A 
ATOM     13  C   UNL     1      49.928   3.951  17.865  0.00  0.00    +0.000 A 
ATOM     14  C   UNL     1      49.662   2.680  17.350  0.00  0.00    +0.000 A 
ATOM     15  C   UNL     1      48.514   2.458  16.583  0.00  0.00    +0.000 A 
ATOM     16  C   UNL     1      47.666   3.521  16.284  0.00  0.00    +0.000 A 
ATOM     17  C   UNL     1      47.924   4.788  16.813  0.00  0.00    +0.000 A 
ENDBRANCH  11  12
ENDBRANCH   8  11
ENDBRANCH   7   8
ENDBRANCH   1   7
BRANCH   4  18
ATOM     18  C   UNL     1      47.909   7.795  11.880  0.00  0.00    +0.000 C 
BRANCH  18  19
ATOM     19  N   UNL     1      47.108   6.602  11.780  0.00  0.00    +0.000 N 
ATOM     20  C   UNL     1      45.735   6.647  11.833  0.00  0.00    +0.000 C 
ATOM     21  O   UNL     1      45.112   7.694  11.956  0.00  0.00    +0.000 OA
ATOM     22  H   UNL     1      47.575   5.724  11.969  0.00  0.00    +0.000 HD
BRANCH  20  23
ATOM     23  C   UNL     1      45.056   5.354  11.659  0.00  0.00    +0.000 A 
ATOM     24  C   UNL     1      44.352   4.787  12.714  0.00  0.00    +0.000 A 
ATOM     25  S   UNL     1      43.594   3.310  12.316  0.00  0.00    +0.000 S 
ATOM     26  C   UNL     1      44.217   3.350  10.733  0.00  0.00    +0.000 A 
ATOM     27  N   UNL     1      43.968   2.341   9.853  0.00  0.00    +0.000 NA
ATOM     28  C   UNL     1      44.528   2.487   8.700  0.00  0.00    +0.000 A 
ATOM     29  N   UNL     1      45.306   3.559   8.338  0.00  0.00    +0.000 N 
ATOM     30  C   UNL     1      45.549   4.619   9.180  0.00  0.00    +0.000 A 
ATOM     31  O   UNL     1      46.194   5.590   8.804  0.00  0.00    +0.000 OA
ATOM     32  C   UNL     1      44.967   4.488  10.502  0.00  0.00    +0.000 A 
ATOM     33  H   UNL     1      45.704   3.622   7.415  0.00  0.00    +0.000 HD
ENDBRANCH  20  23
ENDBRANCH  18  19
ENDBRANCH   4  18
TORSDOF 8
ENDMDL
MODEL 6
REMARK VINA RESULT:    -6.868      3.314      8.370
REMARK INTER + INTRA:         -11.537
REMARK INTER:                  -9.654
REMARK INTRA:                  -1.883
REMARK UNBOUND:                -1.457
REMARK  Name = 
REMARK  9 active torsions:
REMARK  status: ('A' for Active; 'I' for Inactive)
REMARK    1  A    between atoms: C_1  and  C_2
REMARK    2  A    between atoms: C_2  and  N_3
REMARK    3  A    between atoms: N_3  and  C_4
REMARK    4  A    between atoms: N_3  and  C_11
REMARK    5  A    between atoms: C_4  and  C_5
REMARK    6  A    between atoms: C_11  and  C_12
REMARK    7  A    between atoms: C_15  and  C_16
REMARK    8  A    between atoms: C_16  and  N_17
REMARK    9  A    between atoms: C_18  and  C_20
REMARK                            x       y       z     vdW  Elec       q    Type
REMARK                         _______ _______ _______ _____ _____    ______ ____
ROOT
ATOM      1  C   UNL     1      50.448   6.997  15.799  0.00  0.00    +0.000 A 
ATOM      2  C   UNL     1      51.049   7.771  14.798  0.00  0.00    +0.000 A 
ATOM      3  C   UNL     1      50.352   8.105  13.631  0.00  0.00    +0.000 A 
ATOM      4  C   UNL     1      49.035   7.657  13.433  0.00  0.00    +0.000 A 
ATOM      5  C   UNL     1      48.458   6.835  14.407  0.00  0.00    +0.000 A 
ATOM      6  C   UNL     1      49.147   6.518  15.583  0.00  0.00    +0.000 A 
ENDROOT
BRANCH   1   7
ATOM      7  C   UNL     1      51.177   6.714  17.101  0.00  0.00    +0.000 C 
BRANCH   7   8
ATOM      8  N   UNL     1      51.791   5.359  17.165  0.00  0.00    +0.000 NA
BRANCH   8  10
ATOM      9  C   UNL     1      54.039   6.115  16.142  0.00  0.00    +0.000 C 
ATOM     10  C   UNL     1      53.260   5.523  17.312  0.00  0.00    +0.000 C 
ENDBRANCH   8  10
BRANCH   8  11
ATOM     11  C   UNL     1      51.207   4.607  18.295  0.00  0.00    +0.000 C 
BRANCH  11  12
ATOM     12  C   UNL     1      49.787   4.090  18.090  0.00  0.00    +0.000 A 
ATOM     13  C   UNL     1      48.683   4.740  18.659  0.00  0.00    +0.000 A 
ATOM     14  C   UNL     1      47.383   4.398  18.278  0.00  0.00    +0.000 A 
ATOM     15  C   UNL     1      47.168   3.377  17.349  0.00  0.00    +0.000 A 
ATOM     16  C   UNL     1      48.252   2.661  16.846  0.00  0.00    +0.000 A 
ATOM     17  C   UNL     1      49.552   3.015  17.215  0.00  0.00    +0.000 A 
ENDBRANCH  11  12
ENDBRANCH   8  11
ENDBRANCH   7   8
ENDBRANCH   1   7
BRANCH   4  18
ATOM     18  C   UNL     1      48.243   8.047  12.206  0.00  0.00    +0.000 C 
BRANCH  18  19
ATOM     19  N   UNL     1      47.537   6.927  11.640  0.00  0.00    +0.000 N 
ATOM     20  C   UNL     1      46.169   6.934  11.494  0.00  0.00    +0.000 C 
ATOM     21  O   UNL     1      45.474   7.887  11.823  0.00  0.00    +0.000 OA
ATOM     22  H   UNL     1      48.023   6.040  11.632  0.00  0.00    +0.000 HD
BRANCH  20  23
ATOM     23  C   UNL     1      45.599   5.742  10.848  0.00  0.00    +0.000 A 
ATOM     24  C   UNL     1      45.775   5.537   9.485  0.00  0.00    +0.000 A 
ATOM     25  S   UNL     1      45.084   4.082   8.918  0.00  0.00    +0.000 S 
ATOM     26  C   UNL     1      44.486   3.696  10.463  0.00  0.00    +0.000 A 
ATOM     27  N   UNL     1      43.753   2.567  10.672  0.00  0.00    +0.000 NA
ATOM     28  C   UNL     1      43.339   2.416  11.885  0.00  0.00    +0.000 A 
ATOM     29  N   UNL     1      43.599   3.286  12.915  0.00  0.00    +0.000 N 
ATOM     30  C   UNL     1      44.368   4.415  12.758  0.00  0.00    +0.000 A 
ATOM     31  O   UNL     1      44.636   5.135  13.712  0.00  0.00    +0.000 OA
ATOM     32  C   UNL     1      44.833   4.647  11.404  0.00  0.00    +0.000 A 
ATOM     33  H   UNL     1      43.259   3.103  13.845  0.00  0.00    +0.000 HD
ENDBRANCH  20  23
ENDBRANCH  18  19
ENDBRANCH   4  18
TORSDOF 8
ENDMDL
MODEL 7
REMARK VINA RESULT:    -6.857      3.533      8.564
REMARK INTER + INTRA:         -11.521
REMARK INTER:                  -9.186
REMARK INTRA:                  -2.334
REMARK UNBOUND:                -1.457
REMARK  Name = 
REMARK  9 active torsions:
REMARK  status: ('A' for Active; 'I' for Inactive)
REMARK    1  A    between atoms: C_1  and  C_2
REMARK    2  A    between atoms: C_2  and  N_3
REMARK    3  A    between atoms: N_3  and  C_4
REMARK    4  A    between atoms: N_3  and  C_11
REMARK    5  A    between atoms: C_4  and  C_5
REMARK    6  A    between atoms: C_11  and  C_12
REMARK    7  A    between atoms: C_15  and  C_16
REMARK    8  A    between atoms: C_16  and  N_17
REMARK    9  A    between atoms: C_18  and  C_20
REMARK                            x       y       z     vdW  Elec       q    Type
REMARK                         _______ _______ _______ _____ _____    ______ ____
ROOT
ATOM      1  C   UNL     1      50.023   6.953  18.521  0.00  0.00    +0.000 A 
ATOM      2  C   UNL     1      50.538   6.418  17.333  0.00  0.00    +0.000 A 
ATOM      3  C   UNL     1      50.049   6.828  16.088  0.00  0.00    +0.000 A 
ATOM      4  C   UNL     1      49.018   7.779  16.004  0.00  0.00    +0.000 A 
ATOM      5  C   UNL     1      48.464   8.267  17.193  0.00  0.00    +0.000 A 
ATOM      6  C   UNL     1      48.967   7.872  18.438  0.00  0.00    +0.000 A 
ENDROOT
BRANCH   1   7
ATOM      7  C   UNL     1      50.620   6.570  19.865  0.00  0.00    +0.000 C 
BRANCH   7   8
ATOM      8  N   UNL     1      50.494   5.122  20.189  0.00  0.00    +0.000 NA
BRANCH   8  10
ATOM      9  C   UNL     1      52.581   4.420  21.541  0.00  0.00    +0.000 C 
ATOM     10  C   UNL     1      51.129   4.887  21.511  0.00  0.00    +0.000 C 
ENDBRANCH   8  10
BRANCH   8  11
ATOM     11  C   UNL     1      49.067   4.740  20.189  0.00  0.00    +0.000 C 
BRANCH  11  12
ATOM     12  C   UNL     1      48.541   4.119  18.899  0.00  0.00    +0.000 A 
ATOM     13  C   UNL     1      47.412   4.634  18.247  0.00  0.00    +0.000 A 
ATOM     14  C   UNL     1      47.081   4.208  16.958  0.00  0.00    +0.000 A 
ATOM     15  C   UNL     1      47.854   3.236  16.318  0.00  0.00    +0.000 A 
ATOM     16  C   UNL     1      48.924   2.650  16.991  0.00  0.00    +0.000 A 
ATOM     17  C   UNL     1      49.263   3.088  18.273  0.00  0.00    +0.000 A 
ENDBRANCH  11  12
ENDBRANCH   8  11
ENDBRANCH   7   8
ENDBRANCH   1   7
BRANCH   4  18
ATOM     18  C   UNL     1      48.508   8.277  14.671  0.00  0.00    +0.000 C 
BRANCH  18  19
ATOM     19  N   UNL     1      47.457   7.442  14.148  0.00  0.00    +0.000 N 
ATOM     20  C   UNL     1      47.719   6.411  13.277  0.00  0.00    +0.000 C 
ATOM     21  O   UNL     1      48.852   6.133  12.903  0.00  0.00    +0.000 OA
ATOM     22  H   UNL     1      46.516   7.812  14.197  0.00  0.00    +0.000 HD
BRANCH  20  23
ATOM     23  C   UNL     1      46.550   5.613  12.876  0.00  0.00    +0.000 A 
ATOM     24  C   UNL     1      46.558   4.234  13.040  0.00  0.00    +0.000 A 
ATOM     25  S   UNL     1      45.102   3.481  12.562  0.00  0.00    +0.000 S 
ATOM     26  C   UNL     1      44.426   4.964  12.076  0.00  0.00    +0.000 A 
ATOM     27  N   UNL     1      43.180   5.024  11.530  0.00  0.00    +0.000 NA
ATOM     28  C   UNL     1      42.807   6.209  11.179  0.00  0.00    +0.000 A 
ATOM     29  N   UNL     1      43.562   7.345  11.335  0.00  0.00    +0.000 N 
ATOM     30  C   UNL     1      44.806   7.336  11.918  0.00  0.00    +0.000 A 
ATOM     31  O   UNL     1      45.426   8.377  12.101  0.00  0.00    +0.000 OA
ATOM     32  C   UNL     1      45.286   6.022  12.302  0.00  0.00    +0.000 A 
ATOM     33  H   UNL     1      43.207   8.244  11.053  0.00  0.00    +0.000 HD
ENDBRANCH  20  23
ENDBRANCH  18  19
ENDBRANCH   4  18
TORSDOF 8
ENDMDL
MODEL 8
REMARK VINA RESULT:    -6.827      3.799      9.326
REMARK INTER + INTRA:         -11.477
REMARK INTER:                  -9.135
REMARK INTRA:                  -2.342
REMARK UNBOUND:                -1.457
REMARK  Name = 
REMARK  9 active torsions:
REMARK  status: ('A' for Active; 'I' for Inactive)
REMARK    1  A    between atoms: C_1  and  C_2
REMARK    2  A    between atoms: C_2  and  N_3
REMARK    3  A    between atoms: N_3  and  C_4
REMARK    4  A    between atoms: N_3  and  C_11
REMARK    5  A    between atoms: C_4  and  C_5
REMARK    6  A    between atoms: C_11  and  C_12
REMARK    7  A    between atoms: C_15  and  C_16
REMARK    8  A    between atoms: C_16  and  N_17
REMARK    9  A    between atoms: C_18  and  C_20
REMARK                            x       y       z     vdW  Elec       q    Type
REMARK                         _______ _______ _______ _____ _____    ______ ____
ROOT
ATOM      1  C   UNL     1      48.638   5.753  20.095  0.00  0.00    +0.000 A 
ATOM      2  C   UNL     1      49.386   4.692  19.566  0.00  0.00    +0.000 A 
ATOM      3  C   UNL     1      48.942   3.991  18.439  0.00  0.00    +0.000 A 
ATOM      4  C   UNL     1      47.728   4.330  17.820  0.00  0.00    +0.000 A 
ATOM      5  C   UNL     1      46.954   5.350  18.384  0.00  0.00    +0.000 A 
ATOM      6  C   UNL     1      47.407   6.064  19.500  0.00  0.00    +0.000 A 
ENDROOT
BRANCH   1   7
ATOM      7  C   UNL     1      49.168   6.566  21.262  0.00  0.00    +0.000 C 
BRANCH   7   8
ATOM      8  N   UNL     1      49.236   8.030  20.995  0.00  0.00    +0.000 NA
BRANCH   8  10
ATOM      9  C   UNL     1      49.586  10.246  22.275  0.00  0.00    +0.000 C 
ATOM     10  C   UNL     1      49.488   8.724  22.284  0.00  0.00    +0.000 C 
ENDBRANCH   8  10
BRANCH   8  11
ATOM     11  C   UNL     1      50.303   8.300  20.008  0.00  0.00    +0.000 C 
BRANCH  11  12
ATOM     12  C   UNL     1      49.860   8.374  18.551  0.00  0.00    +0.000 A 
ATOM     13  C   UNL     1      50.435   7.553  17.570  0.00  0.00    +0.000 A 
ATOM     14  C   UNL     1      49.868   7.465  16.296  0.00  0.00    +0.000 A 
ATOM     15  C   UNL     1      48.738   8.223  15.975  0.00  0.00    +0.000 A 
ATOM     16  C   UNL     1      48.213   9.111  16.911  0.00  0.00    +0.000 A 
ATOM     17  C   UNL     1      48.772   9.187  18.189  0.00  0.00    +0.000 A 
ENDBRANCH  11  12
ENDBRANCH   8  11
ENDBRANCH   7   8
ENDBRANCH   1   7
BRANCH   4  18
ATOM     18  C   UNL     1      47.253   3.623  16.571  0.00  0.00    +0.000 C 
BRANCH  18  19
ATOM     19  N   UNL     1      46.716   4.542  15.600  0.00  0.00    +0.000 N 
ATOM     20  C   UNL     1      46.744   4.269  14.253  0.00  0.00    +0.000 C 
ATOM     21  O   UNL     1      47.212   3.233  13.798  0.00  0.00    +0.000 OA
ATOM     22  H   UNL     1      46.595   5.501  15.901  0.00  0.00    +0.000 HD
BRANCH  20  23
ATOM     23  C   UNL     1      46.106   5.277  13.393  0.00  0.00    +0.000 A 
ATOM     24  C   UNL     1      46.773   6.458  13.089  0.00  0.00    +0.000 A 
ATOM     25  S   UNL     1      45.899   7.487  12.045  0.00  0.00    +0.000 S 
ATOM     26  C   UNL     1      44.578   6.415  11.998  0.00  0.00    +0.000 A 
ATOM     27  N   UNL     1      43.453   6.715  11.292  0.00  0.00    +0.000 NA
ATOM     28  C   UNL     1      42.521   5.826  11.369  0.00  0.00    +0.000 A 
ATOM     29  N   UNL     1      42.614   4.655  12.081  0.00  0.00    +0.000 N 
ATOM     30  C   UNL     1      43.745   4.294  12.773  0.00  0.00    +0.000 A 
ATOM     31  O   UNL     1      43.819   3.212  13.343  0.00  0.00    +0.000 OA
ATOM     32  C   UNL     1      44.813   5.275  12.743  0.00  0.00    +0.000 A 
ATOM     33  H   UNL     1      41.854   3.994  12.089  0.00  0.00    +0.000 HD
ENDBRANCH  20  23
ENDBRANCH  18  19
ENDBRANCH   4  18
TORSDOF 8
ENDMDL
MODEL 9
REMARK VINA RESULT:    -6.785      3.810      7.020
REMARK INTER + INTRA:         -11.416
REMARK INTER:                 -10.153
REMARK INTRA:                  -1.263
REMARK UNBOUND:                -1.457
REMARK  Name = 
REMARK  9 active torsions:
REMARK  status: ('A' for Active; 'I' for Inactive)
REMARK    1  A    between atoms: C_1  and  C_2
REMARK    2  A    between atoms: C_2  and  N_3
REMARK    3  A    between atoms: N_3  and  C_4
REMARK    4  A    between atoms: N_3  and  C_11
REMARK    5  A    between atoms: C_4  and  C_5
REMARK    6  A    between atoms: C_11  and  C_12
REMARK    7  A    between atoms: C_15  and  C_16
REMARK    8  A    between atoms: C_16  and  N_17
REMARK    9  A    between atoms: C_18  and  C_20
REMARK                            x       y       z     vdW  Elec       q    Type
REMARK                         _______ _______ _______ _____ _____    ______ ____
ROOT
ATOM      1  C   UNL     1      46.845   1.780   6.227  0.00  0.00    +0.000 A 
ATOM      2  C   UNL     1      46.666   0.829   7.241  0.00  0.00    +0.000 A 
ATOM      3  C   UNL     1      45.973   1.149   8.413  0.00  0.00    +0.000 A 
ATOM      4  C   UNL     1      45.452   2.439   8.605  0.00  0.00    +0.000 A 
ATOM      5  C   UNL     1      45.683   3.404   7.618  0.00  0.00    +0.000 A 
ATOM      6  C   UNL     1      46.359   3.079   6.437  0.00  0.00    +0.000 A 
ENDROOT
BRANCH   1   7
ATOM      7  C   UNL     1      47.519   1.401   4.920  0.00  0.00    +0.000 C 
BRANCH   7   8
ATOM      8  N   UNL     1      46.705   0.495   4.064  0.00  0.00    +0.000 NA
BRANCH   8  10
ATOM      9  C   UNL     1      44.980   0.662   2.147  0.00  0.00    +0.000 C 
ATOM     10  C   UNL     1      45.760   1.329   3.275  0.00  0.00    +0.000 C 
ENDBRANCH   8  10
BRANCH   8  11
ATOM     11  C   UNL     1      47.600  -0.294   3.192  0.00  0.00    +0.000 C 
BRANCH  11  12
ATOM     12  C   UNL     1      47.383  -1.803   3.203  0.00  0.00    +0.000 A 
ATOM     13  C   UNL     1      48.084  -2.649   2.332  0.00  0.00    +0.000 A 
ATOM     14  C   UNL     1      48.050  -4.035   2.508  0.00  0.00    +0.000 A 
ATOM     15  C   UNL     1      47.286  -4.595   3.535  0.00  0.00    +0.000 A 
ATOM     16  C   UNL     1      46.511  -3.771   4.348  0.00  0.00    +0.000 A 
ATOM     17  C   UNL     1      46.558  -2.385   4.182  0.00  0.00    +0.000 A 
ENDBRANCH  11  12
ENDBRANCH   8  11
ENDBRANCH   7   8
ENDBRANCH   1   7
BRANCH   4  18
ATOM     18  C   UNL     1      44.654   2.795   9.839  0.00  0.00    +0.000 C 
BRANCH  18  19
ATOM     19  N   UNL     1      45.210   3.928  10.534  0.00  0.00    +0.000 N 
ATOM     20  C   UNL     1      45.308   3.958  11.905  0.00  0.00    +0.000 C 
ATOM     21  O   UNL     1      44.944   3.029  12.614  0.00  0.00    +0.000 OA
ATOM     22  H   UNL     1      45.245   4.802  10.023  0.00  0.00    +0.000 HD
BRANCH  20  23
ATOM     23  C   UNL     1      45.950   5.158  12.464  0.00  0.00    +0.000 A 
ATOM     24  C   UNL     1      47.107   5.041  13.224  0.00  0.00    +0.000 A 
ATOM     25  S   UNL     1      47.733   6.539  13.751  0.00  0.00    +0.000 S 
ATOM     26  C   UNL     1      46.457   7.395  13.022  0.00  0.00    +0.000 A 
ATOM     27  N   UNL     1      46.370   8.751  13.124  0.00  0.00    +0.000 NA
ATOM     28  C   UNL     1      45.335   9.265  12.550  0.00  0.00    +0.000 A 
ATOM     29  N   UNL     1      44.381   8.548  11.869  0.00  0.00    +0.000 N 
ATOM     30  C   UNL     1      44.452   7.185  11.706  0.00  0.00    +0.000 A 
ATOM     31  O   UNL     1      43.619   6.585  11.038  0.00  0.00    +0.000 OA
ATOM     32  C   UNL     1      45.582   6.554  12.361  0.00  0.00    +0.000 A 
ATOM     33  H   UNL     1      43.603   9.012  11.429  0.00  0.00    +0.000 HD
ENDBRANCH  20  23
ENDBRANCH  18  19
ENDBRANCH   4  18
TORSDOF 8
ENDMDL
