MODEL 1
REMARK VINA RESULT:    -8.356      0.000      0.000
REMARK INTER + INTRA:         -13.194
REMARK INTER:                 -12.019
REMARK INTRA:                  -1.174
REMARK UNBOUND:                -1.174
REMARK  Name = 
REMARK  8 active torsions:
REMARK  status: ('A' for Active; 'I' for Inactive)
REMARK    1  A    between atoms: C_2  and  C_21
REMARK    2  A    between atoms: N_3  and  C_4
REMARK    3  A    between atoms: C_4  and  C_5
REMARK    4  A    between atoms: C_8  and  C_9
REMARK    5  A    between atoms: C_9  and  C_10
REMARK    6  A    between atoms: C_9  and  C_12
REMARK    7  A    between atoms: C_10  and  O_11
REMARK    8  A    between atoms: C_12  and  C_13
REMARK                            x       y       z     vdW  Elec       q    Type
REMARK                         _______ _______ _______ _____ _____    ______ ____
ROOT
ATOM      1  C   UNL     1      47.322   6.126  13.441  0.00  0.00    +0.000 A 
ATOM      2  C   UNL     1      46.491   5.033  13.714  0.00  0.00    +0.000 A 
ATOM      3  C   UNL     1      45.446   4.705  12.848  0.00  0.00    +0.000 A 
ATOM      4  C   UNL     1      45.213   5.457  11.686  0.00  0.00    +0.000 A 
ATOM      5  C   UNL     1      46.089   6.510  11.387  0.00  0.00    +0.000 A 
ATOM      6  C   UNL     1      47.129   6.843  12.256  0.00  0.00    +0.000 A 
ENDROOT
BRANCH   1   7
ATOM      7  C   UNL     1      48.390   6.540  14.409  0.00  0.00    +0.000 C 
BRANCH   7  10
ATOM      8  O   UNL     1      50.253   5.789  16.319  0.00  0.00    +0.000 OA
ATOM      9  C   UNL     1      49.069   5.842  16.644  0.00  0.00    +0.000 C 
ATOM     10  N   UNL     1      48.071   6.193  15.765  0.00  0.00    +0.000 N 
ATOM     11  H   UNL     1      47.118   6.212  16.117  0.00  0.00    +0.000 HD
BRANCH   9  12
ATOM     12  C   UNL     1      48.606   5.551  18.007  0.00  0.00    +0.000 A 
ATOM     13  N   UNL     1      48.499   4.289  18.480  0.00  0.00    +0.000 NA
ATOM     14  N   UNL     1      48.041   4.458  19.736  0.00  0.00    +0.000 N 
ATOM     15  C   UNL     1      47.832   5.759  20.090  0.00  0.00    +0.000 A 
ATOM     16  C   UNL     1      47.362   6.343  21.256  0.00  0.00    +0.000 A 
ATOM     17  N   UNL     1      47.258   7.693  21.311  0.00  0.00    +0.000 NA
ATOM     18  C   UNL     1      47.621   8.429  20.236  0.00  0.00    +0.000 A 
ATOM     19  C   UNL     1      48.102   7.905  19.046  0.00  0.00    +0.000 A 
ATOM     20  C   UNL     1      48.204   6.508  18.982  0.00  0.00    +0.000 A 
ATOM     21  H   UNL     1      47.882   3.632  20.303  0.00  0.00    +0.000 HD
ENDBRANCH   9  12
ENDBRANCH   7  10
ENDBRANCH   1   7
BRANCH   4  22
ATOM     22  C   UNL     1      44.019   5.113  10.801  0.00  0.00    +0.000 C 
BRANCH  22  23
ATOM     23  C   UNL     1      42.704   5.462  11.527  0.00  0.00    +0.000 C 
BRANCH  23  24
ATOM     24  O   UNL     1      42.372   6.843  11.417  0.00  0.00    +0.000 OA
ATOM     25  H   UNL     1      41.668   7.014  12.069  0.00  0.00    +0.000 HD
ENDBRANCH  23  24
ENDBRANCH  22  23
BRANCH  22  26
ATOM     26  C   UNL     1      43.985   3.655  10.267  0.00  0.00    +0.000 C 
BRANCH  26  27
ATOM     27  C   UNL     1      45.000   3.282   9.199  0.00  0.00    +0.000 A 
ATOM     28  C   UNL     1      45.345   1.931   9.030  0.00  0.00    +0.000 A 
ATOM     29  C   UNL     1      46.276   1.543   8.064  0.00  0.00    +0.000 A 
ATOM     30  C   UNL     1      46.869   2.498   7.244  0.00  0.00    +0.000 A 
ATOM     31  C   UNL     1      46.523   3.840   7.385  0.00  0.00    +0.000 A 
ATOM     32  C   UNL     1      45.588   4.229   8.348  0.00  0.00    +0.000 A 
ENDBRANCH  26  27
ENDBRANCH  22  26
ENDBRANCH   4  22
TORSDOF 8
ENDMDL
MODEL 2
REMARK VINA RESULT:    -8.009      1.008      1.786
REMARK INTER + INTRA:         -12.695
REMARK INTER:                 -11.574
REMARK INTRA:                  -1.121
REMARK UNBOUND:                -1.174
REMARK  Name = 
REMARK  8 active torsions:
REMARK  status: ('A' for Active; 'I' for Inactive)
REMARK    1  A    between atoms: C_2  and  C_21
REMARK    2  A    between atoms: N_3  and  C_4
REMARK    3  A    between atoms: C_4  and  C_5
REMARK    4  A    between atoms: C_8  and  C_9
REMARK    5  A    between atoms: C_9  and  C_10
REMARK    6  A    between atoms: C_9  and  C_12
REMARK    7  A    between atoms: C_10  and  O_11
REMARK    8  A    between atoms: C_12  and  C_13
REMARK                            x       y       z     vdW  Elec       q    Type
REMARK                         _______ _______ _______ _____ _____    ______ ____
ROOT
ATOM      1  C   UNL     1      47.224   6.168  13.313  0.00  0.00    +0.000 A 
ATOM      2  C   UNL     1      46.883   6.886  12.160  0.00  0.00    +0.000 A 
ATOM      3  C   UNL     1      45.798   6.492  11.375  0.00  0.00    +0.000 A 
ATOM      4  C   UNL     1      45.025   5.374  11.729  0.00  0.00    +0.000 A 
ATOM      5  C   UNL     1      45.334   4.699  12.918  0.00  0.00    +0.000 A 
ATOM      6  C   UNL     1      46.423   5.089  13.699  0.00  0.00    +0.000 A 
ENDROOT
BRANCH   1   7
ATOM      7  C   UNL     1      48.440   6.530  14.113  0.00  0.00    +0.000 C 
BRANCH   7  10
ATOM      8  O   UNL     1      49.941   5.761  16.313  0.00  0.00    +0.000 OA
ATOM      9  C   UNL     1      48.938   6.447  16.498  0.00  0.00    +0.000 C 
ATOM     10  N   UNL     1      48.125   6.868  15.472  0.00  0.00    +0.000 N 
ATOM     11  H   UNL     1      47.316   7.433  15.715  0.00  0.00    +0.000 HD
BRANCH   9  12
ATOM     12  C   UNL     1      48.521   6.898  17.832  0.00  0.00    +0.000 A 
ATOM     13  N   UNL     1      48.106   8.161  18.072  0.00  0.00    +0.000 NA
ATOM     14  N   UNL     1      47.834   8.163  19.391  0.00  0.00    +0.000 N 
ATOM     15  C   UNL     1      48.067   6.972  20.017  0.00  0.00    +0.000 A 
ATOM     16  C   UNL     1      47.935   6.572  21.337  0.00  0.00    +0.000 A 
ATOM     17  N   UNL     1      48.254   5.297  21.665  0.00  0.00    +0.000 NA
ATOM     18  C   UNL     1      48.684   4.453  20.699  0.00  0.00    +0.000 A 
ATOM     19  C   UNL     1      48.832   4.791  19.363  0.00  0.00    +0.000 A 
ATOM     20  C   UNL     1      48.509   6.112  19.021  0.00  0.00    +0.000 A 
ATOM     21  H   UNL     1      47.495   9.022  19.810  0.00  0.00    +0.000 HD
ENDBRANCH   9  12
ENDBRANCH   7  10
ENDBRANCH   1   7
BRANCH   4  22
ATOM     22  C   UNL     1      43.892   4.931  10.809  0.00  0.00    +0.000 C 
BRANCH  22  23
ATOM     23  C   UNL     1      42.531   5.163  11.497  0.00  0.00    +0.000 C 
BRANCH  23  24
ATOM     24  O   UNL     1      42.197   6.544  11.593  0.00  0.00    +0.000 OA
ATOM     25  H   UNL     1      41.247   6.617  11.390  0.00  0.00    +0.000 HD
ENDBRANCH  23  24
ENDBRANCH  22  23
BRANCH  22  26
ATOM     26  C   UNL     1      44.000   3.477  10.273  0.00  0.00    +0.000 C 
BRANCH  26  27
ATOM     27  C   UNL     1      45.030   3.212   9.188  0.00  0.00    +0.000 A 
ATOM     28  C   UNL     1      45.448   1.891   8.954  0.00  0.00    +0.000 A 
ATOM     29  C   UNL     1      46.395   1.601   7.970  0.00  0.00    +0.000 A 
ATOM     30  C   UNL     1      46.930   2.625   7.194  0.00  0.00    +0.000 A 
ATOM     31  C   UNL     1      46.511   3.937   7.399  0.00  0.00    +0.000 A 
ATOM     32  C   UNL     1      45.560   4.228   8.380  0.00  0.00    +0.000 A 
ENDBRANCH  26  27
ENDBRANCH  22  26
ENDBRANCH   4  22
TORSDOF 8
ENDMDL
MODEL 3
REMARK VINA RESULT:    -7.760      1.837      2.544
REMARK INTER + INTRA:         -12.337
REMARK INTER:                 -11.165
REMARK INTRA:                  -1.172
REMARK UNBOUND:                -1.174
REMARK  Name = 
REMARK  8 active torsions:
REMARK  status: ('A' for Active; 'I' for Inactive)
REMARK    1  A    between atoms: C_2  and  C_21
REMARK    2  A    between atoms: N_3  and  C_4
REMARK    3  A    between atoms: C_4  and  C_5
REMARK    4  A    between atoms: C_8  and  C_9
REMARK    5  A    between atoms: C_9  and  C_10
REMARK    6  A    between atoms: C_9  and  C_12
REMARK    7  A    between atoms: C_10  and  O_11
REMARK    8  A    between atoms: C_12  and  C_13
REMARK                            x       y       z     vdW  Elec       q    Type
REMARK                         _______ _______ _______ _____ _____    ______ ____
ROOT
ATOM      1  C   UNL     1      46.752   7.539  13.035  0.00  0.00    +0.000 A 
ATOM      2  C   UNL     1      46.796   6.141  12.991  0.00  0.00    +0.000 A 
ATOM      3  C   UNL     1      45.823   5.424  12.290  0.00  0.00    +0.000 A 
ATOM      4  C   UNL     1      44.790   6.090  11.613  0.00  0.00    +0.000 A 
ATOM      5  C   UNL     1      44.789   7.492  11.610  0.00  0.00    +0.000 A 
ATOM      6  C   UNL     1      45.757   8.208  12.316  0.00  0.00    +0.000 A 
ENDROOT
BRANCH   1   7
ATOM      7  C   UNL     1      47.739   8.314  13.857  0.00  0.00    +0.000 C 
BRANCH   7  10
ATOM      8  O   UNL     1      50.181   7.120  14.397  0.00  0.00    +0.000 OA
ATOM      9  C   UNL     1      49.314   7.100  15.268  0.00  0.00    +0.000 C 
ATOM     10  N   UNL     1      48.069   7.655  15.089  0.00  0.00    +0.000 N 
ATOM     11  H   UNL     1      47.412   7.595  15.862  0.00  0.00    +0.000 HD
BRANCH   9  12
ATOM     12  C   UNL     1      49.529   6.495  16.588  0.00  0.00    +0.000 A 
ATOM     13  N   UNL     1      50.382   7.022  17.495  0.00  0.00    +0.000 NA
ATOM     14  N   UNL     1      50.296   6.178  18.541  0.00  0.00    +0.000 N 
ATOM     15  C   UNL     1      49.446   5.128  18.351  0.00  0.00    +0.000 A 
ATOM     16  C   UNL     1      49.097   4.054  19.155  0.00  0.00    +0.000 A 
ATOM     17  N   UNL     1      48.209   3.148  18.680  0.00  0.00    +0.000 NA
ATOM     18  C   UNL     1      47.685   3.319  17.445  0.00  0.00    +0.000 A 
ATOM     19  C   UNL     1      47.990   4.373  16.597  0.00  0.00    +0.000 A 
ATOM     20  C   UNL     1      48.914   5.308  17.081  0.00  0.00    +0.000 A 
ATOM     21  H   UNL     1      50.858   6.375  19.363  0.00  0.00    +0.000 HD
ENDBRANCH   9  12
ENDBRANCH   7  10
ENDBRANCH   1   7
BRANCH   4  22
ATOM     22  C   UNL     1      43.705   5.272  10.919  0.00  0.00    +0.000 C 
BRANCH  22  23
ATOM     23  C   UNL     1      42.354   5.467  11.637  0.00  0.00    +0.000 C 
BRANCH  23  24
ATOM     24  O   UNL     1      42.473   5.376  13.054  0.00  0.00    +0.000 OA
ATOM     25  H   UNL     1      43.368   5.685  13.280  0.00  0.00    +0.000 HD
ENDBRANCH  23  24
ENDBRANCH  22  23
BRANCH  22  26
ATOM     26  C   UNL     1      44.023   3.763  10.739  0.00  0.00    +0.000 C 
BRANCH  26  27
ATOM     27  C   UNL     1      44.878   3.371   9.546  0.00  0.00    +0.000 A 
ATOM     28  C   UNL     1      45.405   4.381   8.724  0.00  0.00    +0.000 A 
ATOM     29  C   UNL     1      46.193   4.067   7.615  0.00  0.00    +0.000 A 
ATOM     30  C   UNL     1      46.477   2.737   7.316  0.00  0.00    +0.000 A 
ATOM     31  C   UNL     1      45.979   1.725   8.132  0.00  0.00    +0.000 A 
ATOM     32  C   UNL     1      45.195   2.038   9.245  0.00  0.00    +0.000 A 
ENDBRANCH  26  27
ENDBRANCH  22  26
ENDBRANCH   4  22
TORSDOF 8
ENDMDL
MODEL 4
REMARK VINA RESULT:    -7.754      1.132      1.899
REMARK INTER + INTRA:         -12.329
REMARK INTER:                 -11.216
REMARK INTRA:                  -1.113
REMARK UNBOUND:                -1.174
REMARK  Name = 
REMARK  8 active torsions:
REMARK  status: ('A' for Active; 'I' for Inactive)
REMARK    1  A    between atoms: C_2  and  C_21
REMARK    2  A    between atoms: N_3  and  C_4
REMARK    3  A    between atoms: C_4  and  C_5
REMARK    4  A    between atoms: C_8  and  C_9
REMARK    5  A    between atoms: C_9  and  C_10
REMARK    6  A    between atoms: C_9  and  C_12
REMARK    7  A    between atoms: C_10  and  O_11
REMARK    8  A    between atoms: C_12  and  C_13
REMARK                            x       y       z     vdW  Elec       q    Type
REMARK                         _______ _______ _______ _____ _____    ______ ____
ROOT
ATOM      1  C   UNL     1      47.220   5.966  13.317  0.00  0.00    +0.000 A 
ATOM      2  C   UNL     1      46.816   6.781  12.253  0.00  0.00    +0.000 A 
ATOM      3  C   UNL     1      45.740   6.408  11.445  0.00  0.00    +0.000 A 
ATOM      4  C   UNL     1      45.040   5.215  11.687  0.00  0.00    +0.000 A 
ATOM      5  C   UNL     1      45.411   4.437  12.793  0.00  0.00    +0.000 A 
ATOM      6  C   UNL     1      46.491   4.806  13.596  0.00  0.00    +0.000 A 
ENDROOT
BRANCH   1   7
ATOM      7  C   UNL     1      48.429   6.313  14.135  0.00  0.00    +0.000 C 
BRANCH   7  10
ATOM      8  O   UNL     1      50.180   6.147  16.277  0.00  0.00    +0.000 OA
ATOM      9  C   UNL     1      49.040   6.558  16.482  0.00  0.00    +0.000 C 
ATOM     10  N   UNL     1      48.098   6.666  15.486  0.00  0.00    +0.000 N 
ATOM     11  H   UNL     1      47.179   7.017  15.744  0.00  0.00    +0.000 HD
BRANCH   9  12
ATOM     12  C   UNL     1      48.579   6.990  17.808  0.00  0.00    +0.000 A 
ATOM     13  N   UNL     1      48.462   6.134  18.847  0.00  0.00    +0.000 NA
ATOM     14  N   UNL     1      48.009   6.910  19.851  0.00  0.00    +0.000 N 
ATOM     15  C   UNL     1      47.813   8.217  19.508  0.00  0.00    +0.000 A 
ATOM     16  C   UNL     1      47.351   9.309  20.226  0.00  0.00    +0.000 A 
ATOM     17  N   UNL     1      47.258  10.506  19.600  0.00  0.00    +0.000 NA
ATOM     18  C   UNL     1      47.624  10.605  18.302  0.00  0.00    +0.000 A 
ATOM     19  C   UNL     1      48.098   9.553  17.533  0.00  0.00    +0.000 A 
ATOM     20  C   UNL     1      48.188   8.310  18.175  0.00  0.00    +0.000 A 
ATOM     21  H   UNL     1      47.845   6.479  20.754  0.00  0.00    +0.000 HD
ENDBRANCH   9  12
ENDBRANCH   7  10
ENDBRANCH   1   7
BRANCH   4  22
ATOM     22  C   UNL     1      43.916   4.805  10.741  0.00  0.00    +0.000 C 
BRANCH  22  23
ATOM     23  C   UNL     1      42.547   5.075  11.397  0.00  0.00    +0.000 C 
BRANCH  23  24
ATOM     24  O   UNL     1      42.268   6.467  11.520  0.00  0.00    +0.000 OA
ATOM     25  H   UNL     1      43.093   6.938  11.303  0.00  0.00    +0.000 HD
ENDBRANCH  23  24
ENDBRANCH  22  23
BRANCH  22  26
ATOM     26  C   UNL     1      43.995   3.348  10.206  0.00  0.00    +0.000 C 
BRANCH  26  27
ATOM     27  C   UNL     1      45.023   3.060   9.125  0.00  0.00    +0.000 A 
ATOM     28  C   UNL     1      45.526   4.126   8.362  0.00  0.00    +0.000 A 
ATOM     29  C   UNL     1      46.469   3.907   7.355  0.00  0.00    +0.000 A 
ATOM     30  C   UNL     1      46.933   2.620   7.104  0.00  0.00    +0.000 A 
ATOM     31  C   UNL     1      46.460   1.554   7.865  0.00  0.00    +0.000 A 
ATOM     32  C   UNL     1      45.520   1.773   8.876  0.00  0.00    +0.000 A 
ENDBRANCH  26  27
ENDBRANCH  22  26
ENDBRANCH   4  22
TORSDOF 8
ENDMDL
MODEL 5
REMARK VINA RESULT:    -7.012      2.627      3.728
REMARK INTER + INTRA:         -11.261
REMARK INTER:                  -9.998
REMARK INTRA:                  -1.264
REMARK UNBOUND:                -1.174
REMARK  Name = 
REMARK  8 active torsions:
REMARK  status: ('A' for Active; 'I' for Inactive)
REMARK    1  A    between atoms: C_2  and  C_21
REMARK    2  A    between atoms: N_3  and  C_4
REMARK    3  A    between atoms: C_4  and  C_5
REMARK    4  A    between atoms: C_8  and  C_9
REMARK    5  A    between atoms: C_9  and  C_10
REMARK    6  A    between atoms: C_9  and  C_12
REMARK    7  A    between atoms: C_10  and  O_11
REMARK    8  A    between atoms: C_12  and  C_13
REMARK                            x       y       z     vdW  Elec       q    Type
REMARK                         _______ _______ _______ _____ _____    ______ ____
ROOT
ATOM      1  C   UNL     1      47.096   5.301  14.045  0.00  0.00    +0.000 A 
ATOM      2  C   UNL     1      46.427   4.119  13.706  0.00  0.00    +0.000 A 
ATOM      3  C   UNL     1      45.533   4.095  12.634  0.00  0.00    +0.000 A 
ATOM      4  C   UNL     1      45.294   5.249  11.872  0.00  0.00    +0.000 A 
ATOM      5  C   UNL     1      46.016   6.411  12.178  0.00  0.00    +0.000 A 
ATOM      6  C   UNL     1      46.904   6.438  13.254  0.00  0.00    +0.000 A 
ENDROOT
BRANCH   1   7
ATOM      7  C   UNL     1      47.990   5.361  15.248  0.00  0.00    +0.000 C 
BRANCH   7  10
ATOM      8  O   UNL     1      50.365   6.790  15.269  0.00  0.00    +0.000 OA
ATOM      9  C   UNL     1      49.355   7.326  15.720  0.00  0.00    +0.000 C 
ATOM     10  N   UNL     1      48.134   6.694  15.763  0.00  0.00    +0.000 N 
ATOM     11  H   UNL     1      47.351   7.211  16.151  0.00  0.00    +0.000 HD
BRANCH   9  12
ATOM     12  C   UNL     1      49.351   8.698  16.241  0.00  0.00    +0.000 A 
ATOM     13  N   UNL     1      49.466   8.971  17.560  0.00  0.00    +0.000 NA
ATOM     14  N   UNL     1      49.407  10.316  17.614  0.00  0.00    +0.000 N 
ATOM     15  C   UNL     1      49.243  10.922  16.402  0.00  0.00    +0.000 A 
ATOM     16  C   UNL     1      49.120  12.253  16.035  0.00  0.00    +0.000 A 
ATOM     17  N   UNL     1      48.961  12.554  14.725  0.00  0.00    +0.000 NA
ATOM     18  C   UNL     1      48.934  11.554  13.814  0.00  0.00    +0.000 A 
ATOM     19  C   UNL     1      49.056  10.207  14.117  0.00  0.00    +0.000 A 
ATOM     20  C   UNL     1      49.213   9.890  15.474  0.00  0.00    +0.000 A 
ATOM     21  H   UNL     1      49.478  10.763  18.522  0.00  0.00    +0.000 HD
ENDBRANCH   9  12
ENDBRANCH   7  10
ENDBRANCH   1   7
BRANCH   4  22
ATOM     22  C   UNL     1      44.258   5.202  10.753  0.00  0.00    +0.000 C 
BRANCH  22  23
ATOM     23  C   UNL     1      42.937   5.840  11.229  0.00  0.00    +0.000 C 
BRANCH  23  24
ATOM     24  O   UNL     1      42.134   4.932  11.978  0.00  0.00    +0.000 OA
ATOM     25  H   UNL     1      41.205   5.148  11.776  0.00  0.00    +0.000 HD
ENDBRANCH  23  24
ENDBRANCH  22  23
BRANCH  22  26
ATOM     26  C   UNL     1      44.005   3.799  10.138  0.00  0.00    +0.000 C 
BRANCH  26  27
ATOM     27  C   UNL     1      45.012   3.296   9.117  0.00  0.00    +0.000 A 
ATOM     28  C   UNL     1      45.662   4.225   8.288  0.00  0.00    +0.000 A 
ATOM     29  C   UNL     1      46.592   3.808   7.333  0.00  0.00    +0.000 A 
ATOM     30  C   UNL     1      46.894   2.457   7.198  0.00  0.00    +0.000 A 
ATOM     31  C   UNL     1      46.273   1.525   8.025  0.00  0.00    +0.000 A 
ATOM     32  C   UNL     1      45.347   1.941   8.985  0.00  0.00    +0.000 A 
ENDBRANCH  26  27
ENDBRANCH  22  26
ENDBRANCH   4  22
TORSDOF 8
ENDMDL
MODEL 6
REMARK VINA RESULT:    -6.664      4.881      9.155
REMARK INTER + INTRA:         -10.760
REMARK INTER:                  -9.552
REMARK INTRA:                  -1.208
REMARK UNBOUND:                -1.174
REMARK  Name = 
REMARK  8 active torsions:
REMARK  status: ('A' for Active; 'I' for Inactive)
REMARK    1  A    between atoms: C_2  and  C_21
REMARK    2  A    between atoms: N_3  and  C_4
REMARK    3  A    between atoms: C_4  and  C_5
REMARK    4  A    between atoms: C_8  and  C_9
REMARK    5  A    between atoms: C_9  and  C_10
REMARK    6  A    between atoms: C_9  and  C_12
REMARK    7  A    between atoms: C_10  and  O_11
REMARK    8  A    between atoms: C_12  and  C_13
REMARK                            x       y       z     vdW  Elec       q    Type
REMARK                         _______ _______ _______ _____ _____    ______ ____
ROOT
ATOM      1  C   UNL     1      46.319   7.924  12.331  0.00  0.00    +0.000 A 
ATOM      2  C   UNL     1      47.479   7.255  11.925  0.00  0.00    +0.000 A 
ATOM      3  C   UNL     1      48.633   7.971  11.603  0.00  0.00    +0.000 A 
ATOM      4  C   UNL     1      48.655   9.372  11.687  0.00  0.00    +0.000 A 
ATOM      5  C   UNL     1      47.509  10.030  12.155  0.00  0.00    +0.000 A 
ATOM      6  C   UNL     1      46.353   9.315  12.470  0.00  0.00    +0.000 A 
ENDROOT
BRANCH   1   7
ATOM      7  C   UNL     1      45.048   7.171  12.594  0.00  0.00    +0.000 C 
BRANCH   7  10
ATOM      8  O   UNL     1      42.961   6.100  11.118  0.00  0.00    +0.000 OA
ATOM      9  C   UNL     1      43.971   5.420  11.283  0.00  0.00    +0.000 C 
ATOM     10  N   UNL     1      45.053   5.860  12.009  0.00  0.00    +0.000 N 
ATOM     11  H   UNL     1      45.848   5.233  12.095  0.00  0.00    +0.000 HD
BRANCH   9  12
ATOM     12  C   UNL     1      44.126   4.078  10.708  0.00  0.00    +0.000 A 
ATOM     13  N   UNL     1      43.526   2.989  11.240  0.00  0.00    +0.000 NA
ATOM     14  N   UNL     1      43.926   1.982  10.439  0.00  0.00    +0.000 N 
ATOM     15  C   UNL     1      44.764   2.362   9.430  0.00  0.00    +0.000 A 
ATOM     16  C   UNL     1      45.397   1.647   8.427  0.00  0.00    +0.000 A 
ATOM     17  N   UNL     1      46.190   2.313   7.554  0.00  0.00    +0.000 NA
ATOM     18  C   UNL     1      46.335   3.652   7.681  0.00  0.00    +0.000 A 
ATOM     19  C   UNL     1      45.725   4.423   8.659  0.00  0.00    +0.000 A 
ATOM     20  C   UNL     1      44.909   3.736   9.568  0.00  0.00    +0.000 A 
ATOM     21  H   UNL     1      43.592   1.046  10.643  0.00  0.00    +0.000 HD
ENDBRANCH   9  12
ENDBRANCH   7  10
ENDBRANCH   1   7
BRANCH   4  22
ATOM     22  C   UNL     1      49.911  10.125  11.259  0.00  0.00    +0.000 C 
BRANCH  22  23
ATOM     23  C   UNL     1      51.025   9.937  12.309  0.00  0.00    +0.000 C 
BRANCH  23  24
ATOM     24  O   UNL     1      52.066   9.079  11.851  0.00  0.00    +0.000 OA
ATOM     25  H   UNL     1      52.662   9.627  11.309  0.00  0.00    +0.000 HD
ENDBRANCH  23  24
ENDBRANCH  22  23
BRANCH  22  26
ATOM     26  C   UNL     1      49.706  11.630  10.934  0.00  0.00    +0.000 C 
BRANCH  26  27
ATOM     27  C   UNL     1      49.284  11.984   9.518  0.00  0.00    +0.000 A 
ATOM     28  C   UNL     1      47.922  12.191   9.246  0.00  0.00    +0.000 A 
ATOM     29  C   UNL     1      47.488  12.515   7.958  0.00  0.00    +0.000 A 
ATOM     30  C   UNL     1      48.410  12.647   6.924  0.00  0.00    +0.000 A 
ATOM     31  C   UNL     1      49.766  12.465   7.182  0.00  0.00    +0.000 A 
ATOM     32  C   UNL     1      50.202  12.146   8.471  0.00  0.00    +0.000 A 
ENDBRANCH  26  27
ENDBRANCH  22  26
ENDBRANCH   4  22
TORSDOF 8
ENDMDL
MODEL 7
REMARK VINA RESULT:    -6.532      3.493      9.243
REMARK INTER + INTRA:         -10.570
REMARK INTER:                  -9.704
REMARK INTRA:                  -0.866
REMARK UNBOUND:                -1.174
REMARK  Name = 
REMARK  8 active torsions:
REMARK  status: ('A' for Active; 'I' for Inactive)
REMARK    1  A    between atoms: C_2  and  C_21
REMARK    2  A    between atoms: N_3  and  C_4
REMARK    3  A    between atoms: C_4  and  C_5
REMARK    4  A    between atoms: C_8  and  C_9
REMARK    5  A    between atoms: C_9  and  C_10
REMARK    6  A    between atoms: C_9  and  C_12
REMARK    7  A    between atoms: C_10  and  O_11
REMARK    8  A    between atoms: C_12  and  C_13
REMARK                            x       y       z     vdW  Elec       q    Type
REMARK                         _______ _______ _______ _____ _____    ______ ____
ROOT
ATOM      1  C   UNL     1      48.863   7.250  14.234  0.00  0.00    +0.000 A 
ATOM      2  C   UNL     1      48.491   6.576  15.403  0.00  0.00    +0.000 A 
ATOM      3  C   UNL     1      49.429   6.334  16.409  0.00  0.00    +0.000 A 
ATOM      4  C   UNL     1      50.757   6.768  16.272  0.00  0.00    +0.000 A 
ATOM      5  C   UNL     1      51.105   7.497  15.126  0.00  0.00    +0.000 A 
ATOM      6  C   UNL     1      50.171   7.732  14.117  0.00  0.00    +0.000 A 
ENDROOT
BRANCH   1   7
ATOM      7  C   UNL     1      47.887   7.437  13.110  0.00  0.00    +0.000 C 
BRANCH   7  10
ATOM      8  O   UNL     1      45.142   7.088  12.959  0.00  0.00    +0.000 OA
ATOM      9  C   UNL     1      45.869   6.139  12.675  0.00  0.00    +0.000 C 
ATOM     10  N   UNL     1      47.241   6.212  12.731  0.00  0.00    +0.000 N 
ATOM     11  H   UNL     1      47.767   5.380  12.478  0.00  0.00    +0.000 HD
BRANCH   9  12
ATOM     12  C   UNL     1      45.344   4.841  12.234  0.00  0.00    +0.000 A 
ATOM     13  N   UNL     1      44.980   3.874  13.106  0.00  0.00    +0.000 NA
ATOM     14  N   UNL     1      44.573   2.865  12.311  0.00  0.00    +0.000 N 
ATOM     15  C   UNL     1      44.673   3.125  10.975  0.00  0.00    +0.000 A 
ATOM     16  C   UNL     1      44.383   2.363   9.854  0.00  0.00    +0.000 A 
ATOM     17  N   UNL     1      44.593   2.902   8.629  0.00  0.00    +0.000 NA
ATOM     18  C   UNL     1      45.070   4.163   8.534  0.00  0.00    +0.000 A 
ATOM     19  C   UNL     1      45.374   4.976   9.616  0.00  0.00    +0.000 A 
ATOM     20  C   UNL     1      45.165   4.419  10.885  0.00  0.00    +0.000 A 
ATOM     21  H   UNL     1      44.243   2.012  12.750  0.00  0.00    +0.000 HD
ENDBRANCH   9  12
ENDBRANCH   7  10
ENDBRANCH   1   7
BRANCH   4  22
ATOM     22  C   UNL     1      51.769   6.423  17.359  0.00  0.00    +0.000 C 
BRANCH  22  23
ATOM     23  C   UNL     1      53.099   5.974  16.721  0.00  0.00    +0.000 C 
BRANCH  23  24
ATOM     24  O   UNL     1      54.146   6.919  16.921  0.00  0.00    +0.000 OA
ATOM     25  H   UNL     1      53.722   7.753  17.191  0.00  0.00    +0.000 HD
ENDBRANCH  23  24
ENDBRANCH  22  23
BRANCH  22  26
ATOM     26  C   UNL     1      51.287   5.392  18.415  0.00  0.00    +0.000 C 
BRANCH  26  27
ATOM     27  C   UNL     1      51.525   3.922  18.110  0.00  0.00    +0.000 A 
ATOM     28  C   UNL     1      50.520   3.191  17.456  0.00  0.00    +0.000 A 
ATOM     29  C   UNL     1      50.694   1.838  17.159  0.00  0.00    +0.000 A 
ATOM     30  C   UNL     1      51.880   1.196  17.501  0.00  0.00    +0.000 A 
ATOM     31  C   UNL     1      52.895   1.911  18.131  0.00  0.00    +0.000 A 
ATOM     32  C   UNL     1      52.724   3.267  18.425  0.00  0.00    +0.000 A 
ENDBRANCH  26  27
ENDBRANCH  22  26
ENDBRANCH   4  22
TORSDOF 8
ENDMDL
MODEL 8
REMARK VINA RESULT:    -6.455      4.724      6.421
REMARK INTER + INTRA:         -10.460
REMARK INTER:                  -9.427
REMARK INTRA:                  -1.033
REMARK UNBOUND:                -1.174
REMARK  Name = 
REMARK  8 active torsions:
REMARK  status: ('A' for Active; 'I' for Inactive)
REMARK    1  A    between atoms: C_2  and  C_21
REMARK    2  A    between atoms: N_3  and  C_4
REMARK    3  A    between atoms: C_4  and  C_5
REMARK    4  A    between atoms: C_8  and  C_9
REMARK    5  A    between atoms: C_9  and  C_10
REMARK    6  A    between atoms: C_9  and  C_12
REMARK    7  A    between atoms: C_10  and  O_11
REMARK    8  A    between atoms: C_12  and  C_13
REMARK                            x       y       z     vdW  Elec       q    Type
REMARK                         _______ _______ _______ _____ _____    ______ ____
ROOT
ATOM      1  C   UNL     1      46.868   8.350  12.267  0.00  0.00    +0.000 A 
ATOM      2  C   UNL     1      45.599   8.785  11.868  0.00  0.00    +0.000 A 
ATOM      3  C   UNL     1      44.631   7.864  11.462  0.00  0.00    +0.000 A 
ATOM      4  C   UNL     1      44.908   6.488  11.453  0.00  0.00    +0.000 A 
ATOM      5  C   UNL     1      46.160   6.057  11.914  0.00  0.00    +0.000 A 
ATOM      6  C   UNL     1      47.130   6.977  12.313  0.00  0.00    +0.000 A 
ENDROOT
BRANCH   1   7
ATOM      7  C   UNL     1      47.943   9.336  12.620  0.00  0.00    +0.000 C 
BRANCH   7  10
ATOM      8  O   UNL     1      50.159  10.492  11.423  0.00  0.00    +0.000 OA
ATOM      9  C   UNL     1      50.296   9.409  11.988  0.00  0.00    +0.000 C 
ATOM     10  N   UNL     1      49.255   8.753  12.600  0.00  0.00    +0.000 N 
ATOM     11  H   UNL     1      49.457   7.861  13.044  0.00  0.00    +0.000 HD
BRANCH   9  12
ATOM     12  C   UNL     1      51.590   8.720  12.077  0.00  0.00    +0.000 A 
ATOM     13  N   UNL     1      52.182   8.444  13.260  0.00  0.00    +0.000 NA
ATOM     14  N   UNL     1      53.329   7.831  12.908  0.00  0.00    +0.000 N 
ATOM     15  C   UNL     1      53.513   7.712  11.561  0.00  0.00    +0.000 A 
ATOM     16  C   UNL     1      54.543   7.173  10.806  0.00  0.00    +0.000 A 
ATOM     17  N   UNL     1      54.444   7.204   9.456  0.00  0.00    +0.000 NA
ATOM     18  C   UNL     1      53.347   7.749   8.884  0.00  0.00    +0.000 A 
ATOM     19  C   UNL     1      52.283   8.298   9.584  0.00  0.00    +0.000 A 
ATOM     20  C   UNL     1      52.385   8.275  10.981  0.00  0.00    +0.000 A 
ATOM     21  H   UNL     1      53.953   7.521  13.645  0.00  0.00    +0.000 HD
ENDBRANCH   9  12
ENDBRANCH   7  10
ENDBRANCH   1   7
BRANCH   4  22
ATOM     22  C   UNL     1      43.851   5.518  10.935  0.00  0.00    +0.000 C 
BRANCH  22  23
ATOM     23  C   UNL     1      42.531   5.711  11.711  0.00  0.00    +0.000 C 
BRANCH  23  24
ATOM     24  O   UNL     1      42.689   5.508  13.112  0.00  0.00    +0.000 OA
ATOM     25  H   UNL     1      43.589   5.803  13.338  0.00  0.00    +0.000 HD
ENDBRANCH  23  24
ENDBRANCH  22  23
BRANCH  22  26
ATOM     26  C   UNL     1      44.270   4.022  10.921  0.00  0.00    +0.000 C 
BRANCH  26  27
ATOM     27  C   UNL     1      44.990   3.515   9.683  0.00  0.00    +0.000 A 
ATOM     28  C   UNL     1      45.484   4.445   8.754  0.00  0.00    +0.000 A 
ATOM     29  C   UNL     1      46.149   4.023   7.600  0.00  0.00    +0.000 A 
ATOM     30  C   UNL     1      46.340   2.665   7.362  0.00  0.00    +0.000 A 
ATOM     31  C   UNL     1      45.874   1.731   8.284  0.00  0.00    +0.000 A 
ATOM     32  C   UNL     1      45.213   2.152   9.441  0.00  0.00    +0.000 A 
ENDBRANCH  26  27
ENDBRANCH  22  26
ENDBRANCH   4  22
TORSDOF 8
ENDMDL
MODEL 9
REMARK VINA RESULT:    -6.419      3.849      9.027
REMARK INTER + INTRA:         -10.408
REMARK INTER:                  -9.246
REMARK INTRA:                  -1.162
REMARK UNBOUND:                -1.174
REMARK  Name = 
REMARK  8 active torsions:
REMARK  status: ('A' for Active; 'I' for Inactive)
REMARK    1  A    between atoms: C_2  and  C_21
REMARK    2  A    between atoms: N_3  and  C_4
REMARK    3  A    between atoms: C_4  and  C_5
REMARK    4  A    between atoms: C_8  and  C_9
REMARK    5  A    between atoms: C_9  and  C_10
REMARK    6  A    between atoms: C_9  and  C_12
REMARK    7  A    between atoms: C_10  and  O_11
REMARK    8  A    between atoms: C_12  and  C_13
REMARK                            x       y       z     vdW  Elec       q    Type
REMARK                         _______ _______ _______ _____ _____    ______ ____
ROOT
ATOM      1  C   UNL     1      48.985   6.840  15.229  0.00  0.00    +0.000 A 
ATOM      2  C   UNL     1      48.119   5.863  15.736  0.00  0.00    +0.000 A 
ATOM      3  C   UNL     1      48.511   5.058  16.807  0.00  0.00    +0.000 A 
ATOM      4  C   UNL     1      49.773   5.216  17.401  0.00  0.00    +0.000 A 
ATOM      5  C   UNL     1      50.608   6.238  16.929  0.00  0.00    +0.000 A 
ATOM      6  C   UNL     1      50.221   7.038  15.853  0.00  0.00    +0.000 A 
ENDROOT
BRANCH   1   7
ATOM      7  C   UNL     1      48.610   7.649  14.023  0.00  0.00    +0.000 C 
BRANCH   7  10
ATOM      8  O   UNL     1      47.919   7.249  11.369  0.00  0.00    +0.000 OA
ATOM      9  C   UNL     1      47.037   7.174  12.222  0.00  0.00    +0.000 C 
ATOM     10  N   UNL     1      47.280   7.367  13.561  0.00  0.00    +0.000 N 
ATOM     11  H   UNL     1      46.493   7.285  14.199  0.00  0.00    +0.000 HD
BRANCH   9  12
ATOM     12  C   UNL     1      45.642   6.854  11.894  0.00  0.00    +0.000 A 
ATOM     13  N   UNL     1      44.755   7.798  11.508  0.00  0.00    +0.000 NA
ATOM     14  N   UNL     1      43.615   7.106  11.319  0.00  0.00    +0.000 N 
ATOM     15  C   UNL     1      43.717   5.770  11.579  0.00  0.00    +0.000 A 
ATOM     16  C   UNL     1      42.793   4.738  11.526  0.00  0.00    +0.000 A 
ATOM     17  N   UNL     1      43.197   3.487  11.852  0.00  0.00    +0.000 NA
ATOM     18  C   UNL     1      44.484   3.279  12.211  0.00  0.00    +0.000 A 
ATOM     19  C   UNL     1      45.454   4.267  12.279  0.00  0.00    +0.000 A 
ATOM     20  C   UNL     1      45.039   5.564  11.949  0.00  0.00    +0.000 A 
ATOM     21  H   UNL     1      42.791   7.613  11.016  0.00  0.00    +0.000 HD
ENDBRANCH   9  12
ENDBRANCH   7  10
ENDBRANCH   1   7
BRANCH   4  22
ATOM     22  C   UNL     1      50.193   4.271  18.523  0.00  0.00    +0.000 C 
BRANCH  22  23
ATOM     23  C   UNL     1      49.359   4.550  19.790  0.00  0.00    +0.000 C 
BRANCH  23  24
ATOM     24  O   UNL     1      48.505   3.462  20.130  0.00  0.00    +0.000 OA
ATOM     25  H   UNL     1      49.084   2.729  20.408  0.00  0.00    +0.000 HD
ENDBRANCH  23  24
ENDBRANCH  22  23
BRANCH  22  26
ATOM     26  C   UNL     1      51.711   4.262  18.851  0.00  0.00    +0.000 C 
BRANCH  26  27
ATOM     27  C   UNL     1      52.534   3.111  18.298  0.00  0.00    +0.000 A 
ATOM     28  C   UNL     1      51.872   1.966  17.825  0.00  0.00    +0.000 A 
ATOM     29  C   UNL     1      52.588   0.882  17.312  0.00  0.00    +0.000 A 
ATOM     30  C   UNL     1      53.978   0.930  17.252  0.00  0.00    +0.000 A 
ATOM     31  C   UNL     1      54.648   2.066  17.698  0.00  0.00    +0.000 A 
ATOM     32  C   UNL     1      53.932   3.153  18.207  0.00  0.00    +0.000 A 
ENDBRANCH  26  27
ENDBRANCH  22  26
ENDBRANCH   4  22
TORSDOF 8
ENDMDL
