MODEL 1
REMARK VINA RESULT:    -7.582      0.000      0.000
REMARK INTER + INTRA:         -11.544
REMARK INTER:                 -10.685
REMARK INTRA:                  -0.859
REMARK UNBOUND:                -0.859
REMARK  Name = 
REMARK  8 active torsions:
REMARK  status: ('A' for Active; 'I' for Inactive)
REMARK    1  A    between atoms: C_1  and  O_2
REMARK    2  A    between atoms: O_2  and  C_3
REMARK    3  A    between atoms: C_6  and  C_7
REMARK    4  A    between atoms: C_10  and  C_11
REMARK    5  A    between atoms: C_11  and  C_12
REMARK    6  A    between atoms: C_12  and  O_13
REMARK    7  A    between atoms: O_13  and  C_14
REMARK    8  A    between atoms: C_17  and  C_18
REMARK                            x       y       z     vdW  Elec       q    Type
REMARK                         _______ _______ _______ _____ _____    ______ ____
ROOT
ATOM      1  C   UNL     1      43.179   4.599  10.993  0.00  0.00    +0.000 C 
ENDROOT
BRANCH   1   2
ATOM      2  C   UNL     1      43.353   5.756  11.973  0.00  0.00    +0.000 C 
BRANCH   2   8
ATOM      3  C   UNL     1      45.576   7.015  12.150  0.00  0.00    +0.000 A 
ATOM      4  C   UNL     1      46.902   7.074  12.600  0.00  0.00    +0.000 A 
ATOM      5  C   UNL     1      47.452   6.022  13.337  0.00  0.00    +0.000 A 
ATOM      6  C   UNL     1      46.678   4.904  13.645  0.00  0.00    +0.000 A 
ATOM      7  C   UNL     1      45.356   4.834  13.195  0.00  0.00    +0.000 A 
ATOM      8  C   UNL     1      44.794   5.879  12.434  0.00  0.00    +0.000 A 
BRANCH   3  10
ATOM      9  C   UNL     1      45.098   9.341  11.999  0.00  0.00    +0.000 C 
ATOM     10  O   UNL     1      44.956   8.027  11.466  0.00  0.00    +0.000 OA
ENDBRANCH   3  10
BRANCH   6  11
ATOM     11  C   UNL     1      47.236   3.838  14.423  0.00  0.00    +0.000 C 
ATOM     12  N   UNL     1      47.690   2.981  15.064  0.00  0.00    +0.000 NA
ENDBRANCH   6  11
ENDBRANCH   2   8
ENDBRANCH   1   2
BRANCH   1  13
ATOM     13  O   UNL     1      43.585   4.979   9.667  0.00  0.00    +0.000 OA
BRANCH  13  14
ATOM     14  C   UNL     1      44.448   4.043   9.126  0.00  0.00    +0.000 A 
ATOM     15  C   UNL     1      44.362   2.730   9.569  0.00  0.00    +0.000 A 
ATOM     16  C   UNL     1      45.232   1.786   9.011  0.00  0.00    +0.000 A 
ATOM     17  C   UNL     1      46.155   2.176   8.033  0.00  0.00    +0.000 A 
ATOM     18  C   UNL     1      46.158   3.509   7.664  0.00  0.00    +0.000 A 
ATOM     19  N   UNL     1      45.331   4.443   8.185  0.00  0.00    +0.000 NA
BRANCH  17  20
ATOM     20  C   UNL     1      47.075   1.179   7.434  0.00  0.00    +0.000 C 
ATOM     21  N   UNL     1      48.077   1.617   6.608  0.00  0.00    +0.000 N 
ATOM     22  O   UNL     1      46.948  -0.016   7.663  0.00  0.00    +0.000 OA
ATOM     23  H   UNL     1      48.270   2.572   6.352  0.00  0.00    +0.000 HD
ATOM     24  H   UNL     1      48.681   0.907   6.212  0.00  0.00    +0.000 HD
ENDBRANCH  17  20
ENDBRANCH  13  14
ENDBRANCH   1  13
TORSDOF 7
ENDMDL
MODEL 2
REMARK VINA RESULT:    -7.224      2.090      3.367
REMARK INTER + INTRA:         -11.039
REMARK INTER:                 -10.351
REMARK INTRA:                  -0.687
REMARK UNBOUND:                -0.859
REMARK  Name = 
REMARK  8 active torsions:
REMARK  status: ('A' for Active; 'I' for Inactive)
REMARK    1  A    between atoms: C_1  and  O_2
REMARK    2  A    between atoms: O_2  and  C_3
REMARK    3  A    between atoms: C_6  and  C_7
REMARK    4  A    between atoms: C_10  and  C_11
REMARK    5  A    between atoms: C_11  and  C_12
REMARK    6  A    between atoms: C_12  and  O_13
REMARK    7  A    between atoms: O_13  and  C_14
REMARK    8  A    between atoms: C_17  and  C_18
REMARK                            x       y       z     vdW  Elec       q    Type
REMARK                         _______ _______ _______ _____ _____    ______ ____
ROOT
ATOM      1  C   UNL     1      43.728   2.903  11.490  0.00  0.00    +0.000 C 
ENDROOT
BRANCH   1   2
ATOM      2  C   UNL     1      43.523   3.883  12.642  0.00  0.00    +0.000 C 
BRANCH   2   8
ATOM      3  C   UNL     1      45.831   4.922  13.037  0.00  0.00    +0.000 A 
ATOM      4  C   UNL     1      46.697   6.021  12.946  0.00  0.00    +0.000 A 
ATOM      5  C   UNL     1      46.263   7.225  12.386  0.00  0.00    +0.000 A 
ATOM      6  C   UNL     1      44.962   7.341  11.898  0.00  0.00    +0.000 A 
ATOM      7  C   UNL     1      44.090   6.251  11.990  0.00  0.00    +0.000 A 
ATOM      8  C   UNL     1      44.507   5.037  12.569  0.00  0.00    +0.000 A 
BRANCH   3  10
ATOM      9  C   UNL     1      47.158   3.693  14.582  0.00  0.00    +0.000 C 
ATOM     10  O   UNL     1      46.200   3.697  13.528  0.00  0.00    +0.000 OA
ENDBRANCH   3  10
BRANCH   6  11
ATOM     11  C   UNL     1      44.528   8.569  11.300  0.00  0.00    +0.000 C 
ATOM     12  N   UNL     1      44.184   9.564  10.808  0.00  0.00    +0.000 NA
ENDBRANCH   6  11
ENDBRANCH   2   8
ENDBRANCH   1   2
BRANCH   1  13
ATOM     13  O   UNL     1      43.550   3.553  10.220  0.00  0.00    +0.000 OA
BRANCH  13  14
ATOM     14  C   UNL     1      44.526   3.161   9.322  0.00  0.00    +0.000 A 
ATOM     15  C   UNL     1      45.145   4.135   8.550  0.00  0.00    +0.000 A 
ATOM     16  C   UNL     1      46.139   3.732   7.650  0.00  0.00    +0.000 A 
ATOM     17  C   UNL     1      46.484   2.379   7.548  0.00  0.00    +0.000 A 
ATOM     18  C   UNL     1      45.805   1.491   8.363  0.00  0.00    +0.000 A 
ATOM     19  N   UNL     1      44.842   1.850   9.240  0.00  0.00    +0.000 NA
BRANCH  17  20
ATOM     20  C   UNL     1      47.541   1.947   6.601  0.00  0.00    +0.000 C 
ATOM     21  N   UNL     1      48.615   2.773   6.389  0.00  0.00    +0.000 N 
ATOM     22  O   UNL     1      47.464   0.878   6.012  0.00  0.00    +0.000 OA
ATOM     23  H   UNL     1      48.776   3.671   6.818  0.00  0.00    +0.000 HD
ATOM     24  H   UNL     1      49.313   2.448   5.732  0.00  0.00    +0.000 HD
ENDBRANCH  17  20
ENDBRANCH  13  14
ENDBRANCH   1  13
TORSDOF 7
ENDMDL
MODEL 3
REMARK VINA RESULT:    -6.957      2.163      3.375
REMARK INTER + INTRA:         -10.662
REMARK INTER:                  -9.985
REMARK INTRA:                  -0.678
REMARK UNBOUND:                -0.859
REMARK  Name = 
REMARK  8 active torsions:
REMARK  status: ('A' for Active; 'I' for Inactive)
REMARK    1  A    between atoms: C_1  and  O_2
REMARK    2  A    between atoms: O_2  and  C_3
REMARK    3  A    between atoms: C_6  and  C_7
REMARK    4  A    between atoms: C_10  and  C_11
REMARK    5  A    between atoms: C_11  and  C_12
REMARK    6  A    between atoms: C_12  and  O_13
REMARK    7  A    between atoms: O_13  and  C_14
REMARK    8  A    between atoms: C_17  and  C_18
REMARK                            x       y       z     vdW  Elec       q    Type
REMARK                         _______ _______ _______ _____ _____    ______ ____
ROOT
ATOM      1  C   UNL     1      43.930   4.895  10.834  0.00  0.00    +0.000 C 
ENDROOT
BRANCH   1   2
ATOM      2  C   UNL     1      44.651   4.691  12.164  0.00  0.00    +0.000 C 
BRANCH   2   8
ATOM      3  C   UNL     1      46.657   5.860  13.247  0.00  0.00    +0.000 A 
ATOM      4  C   UNL     1      47.324   7.041  13.601  0.00  0.00    +0.000 A 
ATOM      5  C   UNL     1      46.783   8.289  13.281  0.00  0.00    +0.000 A 
ATOM      6  C   UNL     1      45.574   8.371  12.591  0.00  0.00    +0.000 A 
ATOM      7  C   UNL     1      44.898   7.198  12.239  0.00  0.00    +0.000 A 
ATOM      8  C   UNL     1      45.422   5.933  12.572  0.00  0.00    +0.000 A 
BRANCH   3  10
ATOM      9  C   UNL     1      47.178   4.175  14.842  0.00  0.00    +0.000 C 
ATOM     10  O   UNL     1      47.148   4.604  13.484  0.00  0.00    +0.000 OA
ENDBRANCH   3  10
BRANCH   6  11
ATOM     11  C   UNL     1      45.035   9.652  12.241  0.00  0.00    +0.000 C 
ATOM     12  N   UNL     1      44.602  10.695  11.967  0.00  0.00    +0.000 NA
ENDBRANCH   6  11
ENDBRANCH   2   8
ENDBRANCH   1   2
BRANCH   1  13
ATOM     13  O   UNL     1      43.586   3.635  10.233  0.00  0.00    +0.000 OA
BRANCH  13  14
ATOM     14  C   UNL     1      44.557   3.236   9.332  0.00  0.00    +0.000 A 
ATOM     15  C   UNL     1      45.141   4.198   8.519  0.00  0.00    +0.000 A 
ATOM     16  C   UNL     1      46.129   3.789   7.616  0.00  0.00    +0.000 A 
ATOM     17  C   UNL     1      46.503   2.441   7.550  0.00  0.00    +0.000 A 
ATOM     18  C   UNL     1      45.858   1.565   8.404  0.00  0.00    +0.000 A 
ATOM     19  N   UNL     1      44.900   1.930   9.286  0.00  0.00    +0.000 NA
BRANCH  17  20
ATOM     20  C   UNL     1      47.554   2.003   6.600  0.00  0.00    +0.000 C 
ATOM     21  N   UNL     1      48.657   2.798   6.421  0.00  0.00    +0.000 N 
ATOM     22  O   UNL     1      47.448   0.955   5.979  0.00  0.00    +0.000 OA
ATOM     23  H   UNL     1      48.843   3.677   6.878  0.00  0.00    +0.000 HD
ATOM     24  H   UNL     1      49.349   2.471   5.760  0.00  0.00    +0.000 HD
ENDBRANCH  17  20
ENDBRANCH  13  14
ENDBRANCH   1  13
TORSDOF 7
ENDMDL
MODEL 4
REMARK VINA RESULT:    -6.630      1.595      2.000
REMARK INTER + INTRA:         -10.202
REMARK INTER:                  -9.600
REMARK INTRA:                  -0.602
REMARK UNBOUND:                -0.859
REMARK  Name = 
REMARK  8 active torsions:
REMARK  status: ('A' for Active; 'I' for Inactive)
REMARK    1  A    between atoms: C_1  and  O_2
REMARK    2  A    between atoms: O_2  and  C_3
REMARK    3  A    between atoms: C_6  and  C_7
REMARK    4  A    between atoms: C_10  and  C_11
REMARK    5  A    between atoms: C_11  and  C_12
REMARK    6  A    between atoms: C_12  and  O_13
REMARK    7  A    between atoms: O_13  and  C_14
REMARK    8  A    between atoms: C_17  and  C_18
REMARK                            x       y       z     vdW  Elec       q    Type
REMARK                         _______ _______ _______ _____ _____    ______ ____
ROOT
ATOM      1  C   UNL     1      44.263   4.184  11.158  0.00  0.00    +0.000 C 
ENDROOT
BRANCH   1   2
ATOM      2  C   UNL     1      43.695   5.600  11.187  0.00  0.00    +0.000 C 
BRANCH   2   8
ATOM      3  C   UNL     1      44.589   7.977  11.525  0.00  0.00    +0.000 A 
ATOM      4  C   UNL     1      45.551   8.845  12.060  0.00  0.00    +0.000 A 
ATOM      5  C   UNL     1      46.617   8.349  12.814  0.00  0.00    +0.000 A 
ATOM      6  C   UNL     1      46.726   6.979  13.056  0.00  0.00    +0.000 A 
ATOM      7  C   UNL     1      45.773   6.106  12.521  0.00  0.00    +0.000 A 
ATOM      8  C   UNL     1      44.704   6.590  11.741  0.00  0.00    +0.000 A 
BRANCH   3  10
ATOM      9  C   UNL     1      43.302   9.802  10.704  0.00  0.00    +0.000 C 
ATOM     10  O   UNL     1      43.493   8.394  10.817  0.00  0.00    +0.000 OA
ENDBRANCH   3  10
BRANCH   6  11
ATOM     11  C   UNL     1      47.805   6.476  13.852  0.00  0.00    +0.000 C 
ATOM     12  N   UNL     1      48.687   6.065  14.488  0.00  0.00    +0.000 NA
ENDBRANCH   6  11
ENDBRANCH   2   8
ENDBRANCH   1   2
BRANCH   1  13
ATOM     13  O   UNL     1      43.672   3.411  10.098  0.00  0.00    +0.000 OA
BRANCH  13  14
ATOM     14  C   UNL     1      44.622   3.058   9.156  0.00  0.00    +0.000 A 
ATOM     15  C   UNL     1      45.003   4.002   8.213  0.00  0.00    +0.000 A 
ATOM     16  C   UNL     1      45.971   3.641   7.269  0.00  0.00    +0.000 A 
ATOM     17  C   UNL     1      46.527   2.355   7.294  0.00  0.00    +0.000 A 
ATOM     18  C   UNL     1      46.076   1.491   8.275  0.00  0.00    +0.000 A 
ATOM     19  N   UNL     1      45.143   1.812   9.199  0.00  0.00    +0.000 NA
BRANCH  17  20
ATOM     20  C   UNL     1      47.558   1.969   6.300  0.00  0.00    +0.000 C 
ATOM     21  N   UNL     1      48.792   2.564   6.362  0.00  0.00    +0.000 N 
ATOM     22  O   UNL     1      47.322   1.138   5.434  0.00  0.00    +0.000 OA
ATOM     23  H   UNL     1      49.091   3.258   7.029  0.00  0.00    +0.000 HD
ATOM     24  H   UNL     1      49.467   2.280   5.664  0.00  0.00    +0.000 HD
ENDBRANCH  17  20
ENDBRANCH  13  14
ENDBRANCH   1  13
TORSDOF 7
ENDMDL
MODEL 5
REMARK VINA RESULT:    -6.013      2.526      6.619
REMARK INTER + INTRA:          -9.333
REMARK INTER:                  -8.848
REMARK INTRA:                  -0.485
REMARK UNBOUND:                -0.859
REMARK  Name = 
REMARK  8 active torsions:
REMARK  status: ('A' for Active; 'I' for Inactive)
REMARK    1  A    between atoms: C_1  and  O_2
REMARK    2  A    between atoms: O_2  and  C_3
REMARK    3  A    between atoms: C_6  and  C_7
REMARK    4  A    between atoms: C_10  and  C_11
REMARK    5  A    between atoms: C_11  and  C_12
REMARK    6  A    between atoms: C_12  and  O_13
REMARK    7  A    between atoms: O_13  and  C_14
REMARK    8  A    between atoms: C_17  and  C_18
REMARK                            x       y       z     vdW  Elec       q    Type
REMARK                         _______ _______ _______ _____ _____    ______ ____
ROOT
ATOM      1  C   UNL     1      46.975   6.550  11.534  0.00  0.00    +0.000 C 
ENDROOT
BRANCH   1   2
ATOM      2  C   UNL     1      45.553   6.559  10.980  0.00  0.00    +0.000 C 
BRANCH   2   8
ATOM      3  C   UNL     1      44.301   4.328  10.843  0.00  0.00    +0.000 A 
ATOM      4  C   UNL     1      44.030   3.130  10.166  0.00  0.00    +0.000 A 
ATOM      5  C   UNL     1      44.653   2.843   8.949  0.00  0.00    +0.000 A 
ATOM      6  C   UNL     1      45.543   3.757   8.385  0.00  0.00    +0.000 A 
ATOM      7  C   UNL     1      45.823   4.952   9.057  0.00  0.00    +0.000 A 
ATOM      8  C   UNL     1      45.218   5.246  10.295  0.00  0.00    +0.000 A 
BRANCH   3  10
ATOM      9  C   UNL     1      42.426   5.338  11.902  0.00  0.00    +0.000 C 
ATOM     10  O   UNL     1      43.694   4.698  12.014  0.00  0.00    +0.000 OA
ENDBRANCH   3  10
BRANCH   6  11
ATOM     11  C   UNL     1      46.159   3.473   7.124  0.00  0.00    +0.000 C 
ATOM     12  N   UNL     1      46.668   3.250   6.103  0.00  0.00    +0.000 NA
ENDBRANCH   6  11
ENDBRANCH   2   8
ENDBRANCH   1   2
BRANCH   1  13
ATOM     13  O   UNL     1      47.023   7.139  12.845  0.00  0.00    +0.000 OA
BRANCH  13  14
ATOM     14  C   UNL     1      47.261   6.178  13.811  0.00  0.00    +0.000 A 
ATOM     15  C   UNL     1      46.673   4.929  13.660  0.00  0.00    +0.000 A 
ATOM     16  C   UNL     1      46.925   3.958  14.637  0.00  0.00    +0.000 A 
ATOM     17  C   UNL     1      47.751   4.259  15.727  0.00  0.00    +0.000 A 
ATOM     18  C   UNL     1      48.286   5.534  15.780  0.00  0.00    +0.000 A 
ATOM     19  N   UNL     1      48.060   6.492  14.854  0.00  0.00    +0.000 NA
BRANCH  17  20
ATOM     20  C   UNL     1      48.027   3.232  16.761  0.00  0.00    +0.000 C 
ATOM     21  N   UNL     1      47.013   2.851  17.601  0.00  0.00    +0.000 N 
ATOM     22  O   UNL     1      49.136   2.729  16.872  0.00  0.00    +0.000 OA
ATOM     23  H   UNL     1      46.067   3.200  17.598  0.00  0.00    +0.000 HD
ATOM     24  H   UNL     1      47.240   2.153  18.298  0.00  0.00    +0.000 HD
ENDBRANCH  17  20
ENDBRANCH  13  14
ENDBRANCH   1  13
TORSDOF 7
ENDMDL
MODEL 6
REMARK VINA RESULT:    -5.936      4.523      7.037
REMARK INTER + INTRA:          -9.224
REMARK INTER:                  -8.672
REMARK INTRA:                  -0.552
REMARK UNBOUND:                -0.859
REMARK  Name = 
REMARK  8 active torsions:
REMARK  status: ('A' for Active; 'I' for Inactive)
REMARK    1  A    between atoms: C_1  and  O_2
REMARK    2  A    between atoms: O_2  and  C_3
REMARK    3  A    between atoms: C_6  and  C_7
REMARK    4  A    between atoms: C_10  and  C_11
REMARK    5  A    between atoms: C_11  and  C_12
REMARK    6  A    between atoms: C_12  and  O_13
REMARK    7  A    between atoms: O_13  and  C_14
REMARK    8  A    between atoms: C_17  and  C_18
REMARK                            x       y       z     vdW  Elec       q    Type
REMARK                         _______ _______ _______ _____ _____    ______ ____
ROOT
ATOM      1  C   UNL     1      47.352   3.590  15.917  0.00  0.00    +0.000 C 
ENDROOT
BRANCH   1   2
ATOM      2  C   UNL     1      48.236   2.768  16.850  0.00  0.00    +0.000 C 
BRANCH   2   8
ATOM      3  C   UNL     1      50.724   2.891  17.452  0.00  0.00    +0.000 A 
ATOM      4  C   UNL     1      51.846   3.647  17.816  0.00  0.00    +0.000 A 
ATOM      5  C   UNL     1      51.753   5.033  17.965  0.00  0.00    +0.000 A 
ATOM      6  C   UNL     1      50.539   5.682  17.737  0.00  0.00    +0.000 A 
ATOM      7  C   UNL     1      49.413   4.934  17.379  0.00  0.00    +0.000 A 
ATOM      8  C   UNL     1      49.487   3.533  17.244  0.00  0.00    +0.000 A 
BRANCH   3  10
ATOM      9  C   UNL     1      51.971   0.867  17.541  0.00  0.00    +0.000 C 
ATOM     10  O   UNL     1      50.750   1.537  17.241  0.00  0.00    +0.000 OA
ENDBRANCH   3  10
BRANCH   6  11
ATOM     11  C   UNL     1      50.453   7.106  17.864  0.00  0.00    +0.000 C 
ATOM     12  N   UNL     1      50.371   8.261  17.966  0.00  0.00    +0.000 NA
ENDBRANCH   6  11
ENDBRANCH   2   8
ENDBRANCH   1   2
BRANCH   1  13
ATOM     13  O   UNL     1      47.576   3.232  14.543  0.00  0.00    +0.000 OA
BRANCH  13  14
ATOM     14  C   UNL     1      46.635   3.822  13.718  0.00  0.00    +0.000 A 
ATOM     15  C   UNL     1      46.531   5.206  13.719  0.00  0.00    +0.000 A 
ATOM     16  C   UNL     1      45.583   5.798  12.875  0.00  0.00    +0.000 A 
ATOM     17  C   UNL     1      44.773   4.996  12.061  0.00  0.00    +0.000 A 
ATOM     18  C   UNL     1      44.959   3.627  12.138  0.00  0.00    +0.000 A 
ATOM     19  N   UNL     1      45.864   3.028  12.943  0.00  0.00    +0.000 NA
BRANCH  17  20
ATOM     20  C   UNL     1      43.772   5.618  11.160  0.00  0.00    +0.000 C 
ATOM     21  N   UNL     1      43.489   6.951  11.307  0.00  0.00    +0.000 N 
ATOM     22  O   UNL     1      43.200   4.961  10.301  0.00  0.00    +0.000 OA
ATOM     23  H   UNL     1      43.898   7.581  11.979  0.00  0.00    +0.000 HD
ATOM     24  H   UNL     1      42.796   7.339  10.679  0.00  0.00    +0.000 HD
ENDBRANCH  17  20
ENDBRANCH  13  14
ENDBRANCH   1  13
TORSDOF 7
ENDMDL
MODEL 7
REMARK VINA RESULT:    -5.916      4.224      6.506
REMARK INTER + INTRA:          -9.196
REMARK INTER:                  -8.764
REMARK INTRA:                  -0.432
REMARK UNBOUND:                -0.859
REMARK  Name = 
REMARK  8 active torsions:
REMARK  status: ('A' for Active; 'I' for Inactive)
REMARK    1  A    between atoms: C_1  and  O_2
REMARK    2  A    between atoms: O_2  and  C_3
REMARK    3  A    between atoms: C_6  and  C_7
REMARK    4  A    between atoms: C_10  and  C_11
REMARK    5  A    between atoms: C_11  and  C_12
REMARK    6  A    between atoms: C_12  and  O_13
REMARK    7  A    between atoms: O_13  and  C_14
REMARK    8  A    between atoms: C_17  and  C_18
REMARK                            x       y       z     vdW  Elec       q    Type
REMARK                         _______ _______ _______ _____ _____    ______ ____
ROOT
ATOM      1  C   UNL     1      47.332   4.214  15.786  0.00  0.00    +0.000 C 
ENDROOT
BRANCH   1   2
ATOM      2  C   UNL     1      47.595   3.370  17.030  0.00  0.00    +0.000 C 
BRANCH   2   8
ATOM      3  C   UNL     1      49.473   4.655  18.207  0.00  0.00    +0.000 A 
ATOM      4  C   UNL     1      50.809   4.738  18.620  0.00  0.00    +0.000 A 
ATOM      5  C   UNL     1      51.703   3.698  18.354  0.00  0.00    +0.000 A 
ATOM      6  C   UNL     1      51.268   2.555  17.683  0.00  0.00    +0.000 A 
ATOM      7  C   UNL     1      49.937   2.467  17.261  0.00  0.00    +0.000 A 
ATOM      8  C   UNL     1      49.030   3.517  17.505  0.00  0.00    +0.000 A 
BRANCH   3  10
ATOM      9  C   UNL     1      48.188   5.810  19.842  0.00  0.00    +0.000 C 
ATOM     10  O   UNL     1      48.530   5.612  18.473  0.00  0.00    +0.000 OA
ENDBRANCH   3  10
BRANCH   6  11
ATOM     11  C   UNL     1      52.180   1.479  17.435  0.00  0.00    +0.000 C 
ATOM     12  N   UNL     1      52.914   0.602  17.224  0.00  0.00    +0.000 NA
ENDBRANCH   6  11
ENDBRANCH   2   8
ENDBRANCH   1   2
BRANCH   1  13
ATOM     13  O   UNL     1      47.458   3.425  14.590  0.00  0.00    +0.000 OA
BRANCH  13  14
ATOM     14  C   UNL     1      46.554   3.838  13.628  0.00  0.00    +0.000 A 
ATOM     15  C   UNL     1      46.352   5.200  13.450  0.00  0.00    +0.000 A 
ATOM     16  C   UNL     1      45.442   5.611  12.468  0.00  0.00    +0.000 A 
ATOM     17  C   UNL     1      44.765   4.656  11.699  0.00  0.00    +0.000 A 
ATOM     18  C   UNL     1      45.039   3.326  11.958  0.00  0.00    +0.000 A 
ATOM     19  N   UNL     1      45.911   2.899  12.899  0.00  0.00    +0.000 NA
BRANCH  17  20
ATOM     20  C   UNL     1      43.804   5.086  10.653  0.00  0.00    +0.000 C 
ATOM     21  N   UNL     1      44.012   4.683   9.359  0.00  0.00    +0.000 N 
ATOM     22  O   UNL     1      42.843   5.790  10.928  0.00  0.00    +0.000 OA
ATOM     23  H   UNL     1      44.769   4.107   9.024  0.00  0.00    +0.000 HD
ATOM     24  H   UNL     1      43.341   5.001   8.672  0.00  0.00    +0.000 HD
ENDBRANCH  17  20
ENDBRANCH  13  14
ENDBRANCH   1  13
TORSDOF 7
ENDMDL
MODEL 8
REMARK VINA RESULT:    -5.756      4.424      7.763
REMARK INTER + INTRA:          -8.971
REMARK INTER:                  -8.459
REMARK INTRA:                  -0.511
REMARK UNBOUND:                -0.859
REMARK  Name = 
REMARK  8 active torsions:
REMARK  status: ('A' for Active; 'I' for Inactive)
REMARK    1  A    between atoms: C_1  and  O_2
REMARK    2  A    between atoms: O_2  and  C_3
REMARK    3  A    between atoms: C_6  and  C_7
REMARK    4  A    between atoms: C_10  and  C_11
REMARK    5  A    between atoms: C_11  and  C_12
REMARK    6  A    between atoms: C_12  and  O_13
REMARK    7  A    between atoms: O_13  and  C_14
REMARK    8  A    between atoms: C_17  and  C_18
REMARK                            x       y       z     vdW  Elec       q    Type
REMARK                         _______ _______ _______ _____ _____    ______ ____
ROOT
ATOM      1  C   UNL     1      47.151   4.333  15.199  0.00  0.00    +0.000 C 
ENDROOT
BRANCH   1   2
ATOM      2  C   UNL     1      46.837   3.781  13.811  0.00  0.00    +0.000 C 
BRANCH   2   8
ATOM      3  C   UNL     1      45.222   4.551  11.977  0.00  0.00    +0.000 A 
ATOM      4  C   UNL     1      44.697   5.575  11.176  0.00  0.00    +0.000 A 
ATOM      5  C   UNL     1      45.154   6.888  11.309  0.00  0.00    +0.000 A 
ATOM      6  C   UNL     1      46.132   7.197  12.254  0.00  0.00    +0.000 A 
ATOM      7  C   UNL     1      46.665   6.180  13.054  0.00  0.00    +0.000 A 
ATOM      8  C   UNL     1      46.228   4.847  12.917  0.00  0.00    +0.000 A 
BRANCH   3  10
ATOM      9  C   UNL     1      43.380   3.047  11.909  0.00  0.00    +0.000 C 
ATOM     10  O   UNL     1      44.790   3.252  11.936  0.00  0.00    +0.000 OA
ENDBRANCH   3  10
BRANCH   6  11
ATOM     11  C   UNL     1      46.580   8.549  12.407  0.00  0.00    +0.000 C 
ATOM     12  N   UNL     1      46.932   9.650  12.529  0.00  0.00    +0.000 NA
ENDBRANCH   6  11
ENDBRANCH   2   8
ENDBRANCH   1   2
BRANCH   1  13
ATOM     13  O   UNL     1      47.181   3.281  16.179  0.00  0.00    +0.000 OA
BRANCH  13  14
ATOM     14  C   UNL     1      48.471   3.058  16.626  0.00  0.00    +0.000 A 
ATOM     15  C   UNL     1      49.057   4.007  17.454  0.00  0.00    +0.000 A 
ATOM     16  C   UNL     1      50.359   3.771  17.911  0.00  0.00    +0.000 A 
ATOM     17  C   UNL     1      51.034   2.604  17.531  0.00  0.00    +0.000 A 
ATOM     18  C   UNL     1      50.359   1.726  16.702  0.00  0.00    +0.000 A 
ATOM     19  N   UNL     1      49.103   1.926  16.245  0.00  0.00    +0.000 NA
BRANCH  17  20
ATOM     20  C   UNL     1      52.411   2.346  18.017  0.00  0.00    +0.000 C 
ATOM     21  N   UNL     1      52.862   1.053  18.071  0.00  0.00    +0.000 N 
ATOM     22  O   UNL     1      53.140   3.264  18.369  0.00  0.00    +0.000 OA
ATOM     23  H   UNL     1      52.348   0.226  17.808  0.00  0.00    +0.000 HD
ATOM     24  H   UNL     1      53.804   0.915  18.414  0.00  0.00    +0.000 HD
ENDBRANCH  17  20
ENDBRANCH  13  14
ENDBRANCH   1  13
TORSDOF 7
ENDMDL
MODEL 9
REMARK VINA RESULT:    -5.435      4.159      6.565
REMARK INTER + INTRA:          -8.517
REMARK INTER:                  -7.759
REMARK INTRA:                  -0.758
REMARK UNBOUND:                -0.859
REMARK  Name = 
REMARK  8 active torsions:
REMARK  status: ('A' for Active; 'I' for Inactive)
REMARK    1  A    between atoms: C_1  and  O_2
REMARK    2  A    between atoms: O_2  and  C_3
REMARK    3  A    between atoms: C_6  and  C_7
REMARK    4  A    between atoms: C_10  and  C_11
REMARK    5  A    between atoms: C_11  and  C_12
REMARK    6  A    between atoms: C_12  and  O_13
REMARK    7  A    between atoms: O_13  and  C_14
REMARK    8  A    between atoms: C_17  and  C_18
REMARK                            x       y       z     vdW  Elec       q    Type
REMARK                         _______ _______ _______ _____ _____    ______ ____
ROOT
ATOM      1  C   UNL     1      48.726   7.192  14.384  0.00  0.00    +0.000 C 
ENDROOT
BRANCH   1   2
ATOM      2  C   UNL     1      49.624   6.834  15.566  0.00  0.00    +0.000 C 
BRANCH   2   8
ATOM      3  C   UNL     1      48.403   5.341  17.252  0.00  0.00    +0.000 A 
ATOM      4  C   UNL     1      47.655   5.204  18.430  0.00  0.00    +0.000 A 
ATOM      5  C   UNL     1      47.322   6.323  19.196  0.00  0.00    +0.000 A 
ATOM      6  C   UNL     1      47.745   7.593  18.803  0.00  0.00    +0.000 A 
ATOM      7  C   UNL     1      48.487   7.739  17.626  0.00  0.00    +0.000 A 
ATOM      8  C   UNL     1      48.813   6.622  16.832  0.00  0.00    +0.000 A 
BRANCH   3  10
ATOM      9  C   UNL     1      47.975   3.130  16.487  0.00  0.00    +0.000 C 
ATOM     10  O   UNL     1      48.807   4.287  16.476  0.00  0.00    +0.000 OA
ENDBRANCH   3  10
BRANCH   6  11
ATOM     11  C   UNL     1      47.426   8.736  19.605  0.00  0.00    +0.000 C 
ATOM     12  N   UNL     1      47.173   9.670  20.249  0.00  0.00    +0.000 NA
ENDBRANCH   6  11
ENDBRANCH   2   8
ENDBRANCH   1   2
BRANCH   1  13
ATOM     13  O   UNL     1      48.703   6.132  13.413  0.00  0.00    +0.000 OA
BRANCH  13  14
ATOM     14  C   UNL     1      47.409   5.863  13.005  0.00  0.00    +0.000 A 
ATOM     15  C   UNL     1      46.942   6.466  11.845  0.00  0.00    +0.000 A 
ATOM     16  C   UNL     1      45.634   6.183  11.434  0.00  0.00    +0.000 A 
ATOM     17  C   UNL     1      44.837   5.311  12.186  0.00  0.00    +0.000 A 
ATOM     18  C   UNL     1      45.400   4.765  13.325  0.00  0.00    +0.000 A 
ATOM     19  N   UNL     1      46.658   5.020  13.748  0.00  0.00    +0.000 NA
BRANCH  17  20
ATOM     20  C   UNL     1      43.453   5.002  11.751  0.00  0.00    +0.000 C 
ATOM     21  N   UNL     1      42.446   5.870  12.084  0.00  0.00    +0.000 N 
ATOM     22  O   UNL     1      43.203   3.991  11.109  0.00  0.00    +0.000 OA
ATOM     23  H   UNL     1      42.539   6.725  12.609  0.00  0.00    +0.000 HD
ATOM     24  H   UNL     1      41.514   5.623  11.776  0.00  0.00    +0.000 HD
ENDBRANCH  17  20
ENDBRANCH  13  14
ENDBRANCH   1  13
TORSDOF 7
ENDMDL
