MODEL 1
REMARK VINA RESULT:    -7.949      0.000      0.000
REMARK INTER + INTRA:         -12.465
REMARK INTER:                 -11.434
REMARK INTRA:                  -1.031
REMARK UNBOUND:                -1.031
REMARK  Name = 
REMARK  8 active torsions:
REMARK  status: ('A' for Active; 'I' for Inactive)
REMARK    1  A    between atoms: N_1  and  C_2
REMARK    2  A    between atoms: C_2  and  C_3
REMARK    3  A    between atoms: C_2  and  C_24
REMARK    4  A    between atoms: C_3  and  C_4
REMARK    5  A    between atoms: C_7  and  C_8
REMARK    6  A    between atoms: C_8  and  N_9
REMARK    7  A    between atoms: C_10  and  C_12
REMARK    8  A    between atoms: C_24  and  C_26
REMARK                            x       y       z     vdW  Elec       q    Type
REMARK                         _______ _______ _______ _____ _____    ______ ____
ROOT
ATOM      1  C   UNL     1      45.770   4.579  12.152  0.00  0.00    +0.000 A 
ATOM      2  C   UNL     1      46.114   5.880  11.786  0.00  0.00    +0.000 A 
ATOM      3  C   UNL     1      47.022   6.599  12.562  0.00  0.00    +0.000 A 
ATOM      4  C   UNL     1      47.542   6.009  13.709  0.00  0.00    +0.000 A 
ATOM      5  N   UNL     1      47.237   4.738  14.074  0.00  0.00    +0.000 NA
ATOM      6  C   UNL     1      46.378   4.054  13.287  0.00  0.00    +0.000 A 
ENDROOT
BRANCH   1   7
ATOM      7  C   UNL     1      44.768   3.777  11.365  0.00  0.00    +0.000 C 
BRANCH   7   8
ATOM      8  C   UNL     1      44.846   3.996   9.835  0.00  0.00    +0.000 C 
BRANCH   8   9
ATOM      9  N   UNL     1      43.676   4.716   9.291  0.00  0.00    +0.000 NA
ATOM     10  H   UNL     1      43.805   4.858   8.288  0.00  0.00    +0.000 HD
ATOM     11  H   UNL     1      43.644   5.652   9.704  0.00  0.00    +0.000 HD
ENDBRANCH   8   9
BRANCH   8  12
ATOM     12  C   UNL     1      44.932   2.628   9.142  0.00  0.00    +0.000 C 
ATOM     13  O   UNL     1      44.246   1.668   9.493  0.00  0.00    +0.000 OA
BRANCH  12  14
ATOM     14  C   UNL     1      45.876   2.449   8.012  0.00  0.00    +0.000 A 
ATOM     15  C   UNL     1      46.094   3.416   7.032  0.00  0.00    +0.000 A 
ATOM     16  C   UNL     1      46.989   3.147   5.996  0.00  0.00    +0.000 A 
ATOM     17  C   UNL     1      47.642   1.923   5.986  0.00  0.00    +0.000 A 
ATOM     18  N   UNL     1      47.455   0.969   6.922  0.00  0.00    +0.000 NA
ATOM     19  C   UNL     1      46.566   1.247   7.907  0.00  0.00    +0.000 A 
ENDBRANCH  12  14
ENDBRANCH   8  12
ENDBRANCH   7   8
ENDBRANCH   1   7
BRANCH   4  20
ATOM     20  C   UNL     1      48.488   6.776  14.599  0.00  0.00    +0.000 C 
BRANCH  20  21
ATOM     21  N   UNL     1      48.273   6.505  16.001  0.00  0.00    +0.000 N 
ATOM     22  C   UNL     1      49.256   6.010  16.813  0.00  0.00    +0.000 C 
ATOM     23  O   UNL     1      50.380   5.747  16.388  0.00  0.00    +0.000 OA
ATOM     24  H   UNL     1      47.304   6.499  16.309  0.00  0.00    +0.000 HD
BRANCH  22  25
ATOM     25  C   UNL     1      48.929   5.874  18.239  0.00  0.00    +0.000 A 
ATOM     26  C   UNL     1      49.176   4.671  18.884  0.00  0.00    +0.000 A 
ATOM     27  S   UNL     1      48.776   4.686  20.541  0.00  0.00    +0.000 S 
ATOM     28  C   UNL     1      48.218   6.291  20.447  0.00  0.00    +0.000 A 
ATOM     29  N   UNL     1      47.700   6.915  21.538  0.00  0.00    +0.000 NA
ATOM     30  C   UNL     1      47.287   8.119  21.319  0.00  0.00    +0.000 A 
ATOM     31  N   UNL     1      47.358   8.759  20.109  0.00  0.00    +0.000 N 
ATOM     32  C   UNL     1      47.922   8.187  18.995  0.00  0.00    +0.000 A 
ATOM     33  O   UNL     1      48.053   8.821  17.952  0.00  0.00    +0.000 OA
ATOM     34  C   UNL     1      48.365   6.818  19.175  0.00  0.00    +0.000 A 
ATOM     35  H   UNL     1      47.040   9.712  20.009  0.00  0.00    +0.000 HD
ENDBRANCH  22  25
ENDBRANCH  20  21
ENDBRANCH   4  20
TORSDOF 8
ENDMDL
MODEL 2
REMARK VINA RESULT:    -7.861      2.604      3.735
REMARK INTER + INTRA:         -12.339
REMARK INTER:                 -11.529
REMARK INTRA:                  -0.811
REMARK UNBOUND:                -1.031
REMARK  Name = 
REMARK  8 active torsions:
REMARK  status: ('A' for Active; 'I' for Inactive)
REMARK    1  A    between atoms: N_1  and  C_2
REMARK    2  A    between atoms: C_2  and  C_3
REMARK    3  A    between atoms: C_2  and  C_24
REMARK    4  A    between atoms: C_3  and  C_4
REMARK    5  A    between atoms: C_7  and  C_8
REMARK    6  A    between atoms: C_8  and  N_9
REMARK    7  A    between atoms: C_10  and  C_12
REMARK    8  A    between atoms: C_24  and  C_26
REMARK                            x       y       z     vdW  Elec       q    Type
REMARK                         _______ _______ _______ _____ _____    ______ ____
ROOT
ATOM      1  C   UNL     1      46.177   5.053  13.053  0.00  0.00    +0.000 A 
ATOM      2  C   UNL     1      46.550   6.317  12.595  0.00  0.00    +0.000 A 
ATOM      3  C   UNL     1      47.503   7.052  13.298  0.00  0.00    +0.000 A 
ATOM      4  C   UNL     1      48.039   6.518  14.465  0.00  0.00    +0.000 A 
ATOM      5  N   UNL     1      47.705   5.283  14.918  0.00  0.00    +0.000 NA
ATOM      6  C   UNL     1      46.802   4.580  14.200  0.00  0.00    +0.000 A 
ENDROOT
BRANCH   1   7
ATOM      7  C   UNL     1      45.126   4.238  12.346  0.00  0.00    +0.000 C 
BRANCH   7   8
ATOM      8  C   UNL     1      44.885   4.656  10.876  0.00  0.00    +0.000 C 
BRANCH   8   9
ATOM      9  N   UNL     1      43.767   5.606  10.718  0.00  0.00    +0.000 NA
ATOM     10  H   UNL     1      43.023   5.165  10.174  0.00  0.00    +0.000 HD
ATOM     11  H   UNL     1      44.086   6.402  10.158  0.00  0.00    +0.000 HD
ENDBRANCH   8   9
BRANCH   8  12
ATOM     12  C   UNL     1      44.568   3.400  10.050  0.00  0.00    +0.000 C 
ATOM     13  O   UNL     1      43.631   2.650  10.325  0.00  0.00    +0.000 OA
BRANCH  12  14
ATOM     14  C   UNL     1      45.419   3.070   8.881  0.00  0.00    +0.000 A 
ATOM     15  C   UNL     1      45.828   4.011   7.937  0.00  0.00    +0.000 A 
ATOM     16  C   UNL     1      46.613   3.601   6.859  0.00  0.00    +0.000 A 
ATOM     17  C   UNL     1      46.970   2.264   6.772  0.00  0.00    +0.000 A 
ATOM     18  N   UNL     1      46.593   1.329   7.671  0.00  0.00    +0.000 NA
ATOM     19  C   UNL     1      45.815   1.751   8.698  0.00  0.00    +0.000 A 
ENDBRANCH  12  14
ENDBRANCH   8  12
ENDBRANCH   7   8
ENDBRANCH   1   7
BRANCH   4  20
ATOM     20  C   UNL     1      49.035   7.307  15.277  0.00  0.00    +0.000 C 
BRANCH  20  21
ATOM     21  N   UNL     1      50.085   6.479  15.823  0.00  0.00    +0.000 N 
ATOM     22  C   UNL     1      50.047   5.991  17.100  0.00  0.00    +0.000 C 
ATOM     23  O   UNL     1      49.122   6.249  17.867  0.00  0.00    +0.000 OA
ATOM     24  H   UNL     1      50.950   6.448  15.289  0.00  0.00    +0.000 HD
BRANCH  22  25
ATOM     25  C   UNL     1      51.132   5.081  17.492  0.00  0.00    +0.000 A 
ATOM     26  C   UNL     1      52.334   5.608  17.943  0.00  0.00    +0.000 A 
ATOM     27  S   UNL     1      53.476   4.424  18.392  0.00  0.00    +0.000 S 
ATOM     28  C   UNL     1      52.419   3.163  17.959  0.00  0.00    +0.000 A 
ATOM     29  N   UNL     1      52.801   1.863  18.070  0.00  0.00    +0.000 NA
ATOM     30  C   UNL     1      51.913   1.009  17.679  0.00  0.00    +0.000 A 
ATOM     31  N   UNL     1      50.674   1.341  17.198  0.00  0.00    +0.000 N 
ATOM     32  C   UNL     1      50.226   2.637  17.119  0.00  0.00    +0.000 A 
ATOM     33  O   UNL     1      49.077   2.893  16.771  0.00  0.00    +0.000 OA
ATOM     34  C   UNL     1      51.200   3.638  17.508  0.00  0.00    +0.000 A 
ATOM     35  H   UNL     1      50.014   0.624  16.931  0.00  0.00    +0.000 HD
ENDBRANCH  22  25
ENDBRANCH  20  21
ENDBRANCH   4  20
TORSDOF 8
ENDMDL
MODEL 3
REMARK VINA RESULT:    -7.814      1.621      2.038
REMARK INTER + INTRA:         -12.271
REMARK INTER:                 -11.277
REMARK INTRA:                  -0.994
REMARK UNBOUND:                -1.031
REMARK  Name = 
REMARK  8 active torsions:
REMARK  status: ('A' for Active; 'I' for Inactive)
REMARK    1  A    between atoms: N_1  and  C_2
REMARK    2  A    between atoms: C_2  and  C_3
REMARK    3  A    between atoms: C_2  and  C_24
REMARK    4  A    between atoms: C_3  and  C_4
REMARK    5  A    between atoms: C_7  and  C_8
REMARK    6  A    between atoms: C_8  and  N_9
REMARK    7  A    between atoms: C_10  and  C_12
REMARK    8  A    between atoms: C_24  and  C_26
REMARK                            x       y       z     vdW  Elec       q    Type
REMARK                         _______ _______ _______ _____ _____    ______ ____
ROOT
ATOM      1  C   UNL     1      45.898   5.191  12.675  0.00  0.00    +0.000 A 
ATOM      2  C   UNL     1      46.315   6.413  12.148  0.00  0.00    +0.000 A 
ATOM      3  C   UNL     1      47.417   7.064  12.700  0.00  0.00    +0.000 A 
ATOM      4  C   UNL     1      48.059   6.490  13.793  0.00  0.00    +0.000 A 
ATOM      5  N   UNL     1      47.684   5.293  14.310  0.00  0.00    +0.000 NA
ATOM      6  C   UNL     1      46.632   4.671  13.735  0.00  0.00    +0.000 A 
ENDROOT
BRANCH   1   7
ATOM      7  C   UNL     1      44.693   4.469  12.134  0.00  0.00    +0.000 C 
BRANCH   7   8
ATOM      8  C   UNL     1      44.480   4.647  10.612  0.00  0.00    +0.000 C 
BRANCH   8   9
ATOM      9  N   UNL     1      43.237   5.371  10.279  0.00  0.00    +0.000 NA
ATOM     10  H   UNL     1      42.520   4.699   9.999  0.00  0.00    +0.000 HD
ATOM     11  H   UNL     1      43.406   5.957   9.458  0.00  0.00    +0.000 HD
ENDBRANCH   8   9
BRANCH   8  12
ATOM     12  C   UNL     1      44.419   3.260   9.955  0.00  0.00    +0.000 C 
ATOM     13  O   UNL     1      43.638   2.387  10.333  0.00  0.00    +0.000 OA
BRANCH  12  14
ATOM     14  C   UNL     1      45.331   2.954   8.826  0.00  0.00    +0.000 A 
ATOM     15  C   UNL     1      45.752   3.905   7.898  0.00  0.00    +0.000 A 
ATOM     16  C   UNL     1      46.598   3.516   6.858  0.00  0.00    +0.000 A 
ATOM     17  C   UNL     1      47.000   2.191   6.793  0.00  0.00    +0.000 A 
ATOM     18  N   UNL     1      46.613   1.248   7.678  0.00  0.00    +0.000 NA
ATOM     19  C   UNL     1      45.776   1.647   8.668  0.00  0.00    +0.000 A 
ENDBRANCH  12  14
ENDBRANCH   8  12
ENDBRANCH   7   8
ENDBRANCH   1   7
BRANCH   4  20
ATOM     20  C   UNL     1      49.224   7.192  14.446  0.00  0.00    +0.000 C 
BRANCH  20  21
ATOM     21  N   UNL     1      49.102   7.245  15.884  0.00  0.00    +0.000 N 
ATOM     22  C   UNL     1      49.983   6.616  16.720  0.00  0.00    +0.000 C 
ATOM     23  O   UNL     1      50.921   5.946  16.291  0.00  0.00    +0.000 OA
ATOM     24  H   UNL     1      48.218   7.595  16.243  0.00  0.00    +0.000 HD
BRANCH  22  25
ATOM     25  C   UNL     1      49.797   6.835  18.161  0.00  0.00    +0.000 A 
ATOM     26  C   UNL     1      50.103   8.074  18.707  0.00  0.00    +0.000 A 
ATOM     27  S   UNL     1      49.799   8.179  20.382  0.00  0.00    +0.000 S 
ATOM     28  C   UNL     1      49.287   6.558  20.445  0.00  0.00    +0.000 A 
ATOM     29  N   UNL     1      48.908   5.991  21.621  0.00  0.00    +0.000 NA
ATOM     30  C   UNL     1      48.571   4.747  21.532  0.00  0.00    +0.000 A 
ATOM     31  N   UNL     1      48.568   4.023  20.368  0.00  0.00    +0.000 N 
ATOM     32  C   UNL     1      48.891   4.569  19.149  0.00  0.00    +0.000 A 
ATOM     33  O   UNL     1      48.789   3.918  18.113  0.00  0.00    +0.000 OA
ATOM     34  C   UNL     1      49.317   5.954  19.200  0.00  0.00    +0.000 A 
ATOM     35  H   UNL     1      48.269   3.059  20.360  0.00  0.00    +0.000 HD
ENDBRANCH  22  25
ENDBRANCH  20  21
ENDBRANCH   4  20
TORSDOF 8
ENDMDL
MODEL 4
REMARK VINA RESULT:    -7.732      2.955      3.668
REMARK INTER + INTRA:         -12.153
REMARK INTER:                 -10.911
REMARK INTRA:                  -1.242
REMARK UNBOUND:                -1.031
REMARK  Name = 
REMARK  8 active torsions:
REMARK  status: ('A' for Active; 'I' for Inactive)
REMARK    1  A    between atoms: N_1  and  C_2
REMARK    2  A    between atoms: C_2  and  C_3
REMARK    3  A    between atoms: C_2  and  C_24
REMARK    4  A    between atoms: C_3  and  C_4
REMARK    5  A    between atoms: C_7  and  C_8
REMARK    6  A    between atoms: C_8  and  N_9
REMARK    7  A    between atoms: C_10  and  C_12
REMARK    8  A    between atoms: C_24  and  C_26
REMARK                            x       y       z     vdW  Elec       q    Type
REMARK                         _______ _______ _______ _____ _____    ______ ____
ROOT
ATOM      1  C   UNL     1      45.723   5.679  12.804  0.00  0.00    +0.000 A 
ATOM      2  C   UNL     1      45.733   6.939  12.205  0.00  0.00    +0.000 A 
ATOM      3  C   UNL     1      46.927   7.652  12.116  0.00  0.00    +0.000 A 
ATOM      4  C   UNL     1      48.083   7.100  12.659  0.00  0.00    +0.000 A 
ATOM      5  N   UNL     1      48.101   5.868  13.228  0.00  0.00    +0.000 NA
ATOM      6  C   UNL     1      46.935   5.187  13.273  0.00  0.00    +0.000 A 
ENDROOT
BRANCH   1   7
ATOM      7  C   UNL     1      44.451   4.888  12.953  0.00  0.00    +0.000 C 
BRANCH   7   8
ATOM      8  C   UNL     1      43.559   4.879  11.689  0.00  0.00    +0.000 C 
BRANCH   8   9
ATOM      9  N   UNL     1      42.131   5.109  11.984  0.00  0.00    +0.000 NA
ATOM     10  H   UNL     1      42.020   6.026  12.422  0.00  0.00    +0.000 HD
ATOM     11  H   UNL     1      41.824   4.428  12.683  0.00  0.00    +0.000 HD
ENDBRANCH   8   9
BRANCH   8  12
ATOM     12  C   UNL     1      43.693   3.514  10.998  0.00  0.00    +0.000 C 
ATOM     13  O   UNL     1      43.096   2.513  11.396  0.00  0.00    +0.000 OA
BRANCH  12  14
ATOM     14  C   UNL     1      44.573   3.388   9.811  0.00  0.00    +0.000 A 
ATOM     15  C   UNL     1      45.002   2.164   9.298  0.00  0.00    +0.000 A 
ATOM     16  C   UNL     1      45.846   2.148   8.187  0.00  0.00    +0.000 A 
ATOM     17  C   UNL     1      46.220   3.359   7.623  0.00  0.00    +0.000 A 
ATOM     18  N   UNL     1      45.819   4.559   8.094  0.00  0.00    +0.000 NA
ATOM     19  C   UNL     1      45.015   4.547   9.186  0.00  0.00    +0.000 A 
ENDBRANCH  12  14
ENDBRANCH   8  12
ENDBRANCH   7   8
ENDBRANCH   1   7
BRANCH   4  20
ATOM     20  C   UNL     1      49.382   7.866  12.624  0.00  0.00    +0.000 C 
BRANCH  20  21
ATOM     21  N   UNL     1      50.346   7.364  13.575  0.00  0.00    +0.000 N 
ATOM     22  C   UNL     1      50.468   7.877  14.837  0.00  0.00    +0.000 C 
ATOM     23  O   UNL     1      49.775   8.814  15.229  0.00  0.00    +0.000 OA
ATOM     24  H   UNL     1      51.069   6.757  13.198  0.00  0.00    +0.000 HD
BRANCH  22  25
ATOM     25  C   UNL     1      51.421   7.207  15.733  0.00  0.00    +0.000 A 
ATOM     26  C   UNL     1      52.734   7.653  15.789  0.00  0.00    +0.000 A 
ATOM     27  S   UNL     1      53.703   6.796  16.900  0.00  0.00    +0.000 S 
ATOM     28  C   UNL     1      52.411   5.770  17.317  0.00  0.00    +0.000 A 
ATOM     29  N   UNL     1      52.580   4.766  18.218  0.00  0.00    +0.000 NA
ATOM     30  C   UNL     1      51.527   4.045  18.420  0.00  0.00    +0.000 A 
ATOM     31  N   UNL     1      50.317   4.247  17.809  0.00  0.00    +0.000 N 
ATOM     32  C   UNL     1      50.087   5.281  16.934  0.00  0.00    +0.000 A 
ATOM     33  O   UNL     1      48.966   5.489  16.476  0.00  0.00    +0.000 OA
ATOM     34  C   UNL     1      51.248   6.097  16.641  0.00  0.00    +0.000 A 
ATOM     35  H   UNL     1      49.524   3.663  18.028  0.00  0.00    +0.000 HD
ENDBRANCH  22  25
ENDBRANCH  20  21
ENDBRANCH   4  20
TORSDOF 8
ENDMDL
MODEL 5
REMARK VINA RESULT:    -7.387      3.561      9.022
REMARK INTER + INTRA:         -11.657
REMARK INTER:                 -10.137
REMARK INTRA:                  -1.520
REMARK UNBOUND:                -1.031
REMARK  Name = 
REMARK  8 active torsions:
REMARK  status: ('A' for Active; 'I' for Inactive)
REMARK    1  A    between atoms: N_1  and  C_2
REMARK    2  A    between atoms: C_2  and  C_3
REMARK    3  A    between atoms: C_2  and  C_24
REMARK    4  A    between atoms: C_3  and  C_4
REMARK    5  A    between atoms: C_7  and  C_8
REMARK    6  A    between atoms: C_8  and  N_9
REMARK    7  A    between atoms: C_10  and  C_12
REMARK    8  A    between atoms: C_24  and  C_26
REMARK                            x       y       z     vdW  Elec       q    Type
REMARK                         _______ _______ _______ _____ _____    ______ ____
ROOT
ATOM      1  C   UNL     1      48.964   7.700  16.418  0.00  0.00    +0.000 A 
ATOM      2  C   UNL     1      48.448   8.879  15.880  0.00  0.00    +0.000 A 
ATOM      3  C   UNL     1      48.252   8.981  14.504  0.00  0.00    +0.000 A 
ATOM      4  C   UNL     1      48.608   7.910  13.691  0.00  0.00    +0.000 A 
ATOM      5  N   UNL     1      49.093   6.747  14.195  0.00  0.00    +0.000 NA
ATOM      6  C   UNL     1      49.244   6.665  15.534  0.00  0.00    +0.000 A 
ENDROOT
BRANCH   1   7
ATOM      7  C   UNL     1      49.226   7.556  17.894  0.00  0.00    +0.000 C 
BRANCH   7   8
ATOM      8  C   UNL     1      47.974   7.185  18.724  0.00  0.00    +0.000 C 
BRANCH   8   9
ATOM      9  N   UNL     1      47.726   8.112  19.847  0.00  0.00    +0.000 NA
ATOM     10  H   UNL     1      47.219   7.619  20.585  0.00  0.00    +0.000 HD
ATOM     11  H   UNL     1      47.100   8.856  19.528  0.00  0.00    +0.000 HD
ENDBRANCH   8   9
BRANCH   8  12
ATOM     12  C   UNL     1      48.162   5.773  19.300  0.00  0.00    +0.000 C 
ATOM     13  O   UNL     1      48.208   5.557  20.511  0.00  0.00    +0.000 OA
BRANCH  12  14
ATOM     14  C   UNL     1      48.297   4.626  18.370  0.00  0.00    +0.000 A 
ATOM     15  C   UNL     1      49.462   3.869  18.247  0.00  0.00    +0.000 A 
ATOM     16  C   UNL     1      49.499   2.819  17.329  0.00  0.00    +0.000 A 
ATOM     17  C   UNL     1      48.365   2.558  16.576  0.00  0.00    +0.000 A 
ATOM     18  N   UNL     1      47.222   3.270  16.674  0.00  0.00    +0.000 NA
ATOM     19  C   UNL     1      47.218   4.297  17.559  0.00  0.00    +0.000 A 
ENDBRANCH  12  14
ENDBRANCH   8  12
ENDBRANCH   7   8
ENDBRANCH   1   7
BRANCH   4  20
ATOM     20  C   UNL     1      48.456   8.006  12.193  0.00  0.00    +0.000 C 
BRANCH  20  21
ATOM     21  N   UNL     1      47.700   6.905  11.642  0.00  0.00    +0.000 N 
ATOM     22  C   UNL     1      46.334   6.911  11.578  0.00  0.00    +0.000 C 
ATOM     23  O   UNL     1      45.667   7.850  12.009  0.00  0.00    +0.000 OA
ATOM     24  H   UNL     1      48.215   6.041  11.497  0.00  0.00    +0.000 HD
BRANCH  22  25
ATOM     25  C   UNL     1      45.700   5.770  10.904  0.00  0.00    +0.000 A 
ATOM     26  C   UNL     1      45.849   5.620   9.532  0.00  0.00    +0.000 A 
ATOM     27  S   UNL     1      45.084   4.230   8.907  0.00  0.00    +0.000 S 
ATOM     28  C   UNL     1      44.491   3.800  10.443  0.00  0.00    +0.000 A 
ATOM     29  N   UNL     1      43.713   2.697  10.607  0.00  0.00    +0.000 NA
ATOM     30  C   UNL     1      43.307   2.505  11.818  0.00  0.00    +0.000 A 
ATOM     31  N   UNL     1      43.620   3.310  12.882  0.00  0.00    +0.000 N 
ATOM     32  C   UNL     1      44.446   4.403  12.772  0.00  0.00    +0.000 A 
ATOM     33  O   UNL     1      44.781   5.049  13.761  0.00  0.00    +0.000 OA
ATOM     34  C   UNL     1      44.897   4.688  11.424  0.00  0.00    +0.000 A 
ATOM     35  H   UNL     1      43.291   3.091  13.811  0.00  0.00    +0.000 HD
ENDBRANCH  22  25
ENDBRANCH  20  21
ENDBRANCH   4  20
TORSDOF 8
ENDMDL
MODEL 6
REMARK VINA RESULT:    -7.181      2.927      9.481
REMARK INTER + INTRA:         -11.360
REMARK INTER:                  -9.901
REMARK INTRA:                  -1.460
REMARK UNBOUND:                -1.031
REMARK  Name = 
REMARK  8 active torsions:
REMARK  status: ('A' for Active; 'I' for Inactive)
REMARK    1  A    between atoms: N_1  and  C_2
REMARK    2  A    between atoms: C_2  and  C_3
REMARK    3  A    between atoms: C_2  and  C_24
REMARK    4  A    between atoms: C_3  and  C_4
REMARK    5  A    between atoms: C_7  and  C_8
REMARK    6  A    between atoms: C_8  and  N_9
REMARK    7  A    between atoms: C_10  and  C_12
REMARK    8  A    between atoms: C_24  and  C_26
REMARK                            x       y       z     vdW  Elec       q    Type
REMARK                         _______ _______ _______ _____ _____    ______ ____
ROOT
ATOM      1  C   UNL     1      49.001   7.852  16.402  0.00  0.00    +0.000 A 
ATOM      2  C   UNL     1      48.445   8.981  15.799  0.00  0.00    +0.000 A 
ATOM      3  C   UNL     1      48.008   8.913  14.478  0.00  0.00    +0.000 A 
ATOM      4  C   UNL     1      48.167   7.722  13.776  0.00  0.00    +0.000 A 
ATOM      5  N   UNL     1      48.686   6.607  14.348  0.00  0.00    +0.000 NA
ATOM      6  C   UNL     1      49.073   6.692  15.639  0.00  0.00    +0.000 A 
ENDROOT
BRANCH   1   7
ATOM      7  C   UNL     1      49.519   7.888  17.815  0.00  0.00    +0.000 C 
BRANCH   7   8
ATOM      8  C   UNL     1      48.473   7.485  18.882  0.00  0.00    +0.000 C 
BRANCH   8   9
ATOM      9  N   UNL     1      48.425   8.414  20.028  0.00  0.00    +0.000 NA
ATOM     10  H   UNL     1      49.274   8.306  20.586  0.00  0.00    +0.000 HD
ATOM     11  H   UNL     1      47.652   8.141  20.642  0.00  0.00    +0.000 HD
ENDBRANCH   8   9
BRANCH   8  12
ATOM     12  C   UNL     1      48.821   6.086  19.413  0.00  0.00    +0.000 C 
ATOM     13  O   UNL     1      49.334   5.910  20.518  0.00  0.00    +0.000 OA
BRANCH  12  14
ATOM     14  C   UNL     1      48.536   4.901  18.568  0.00  0.00    +0.000 A 
ATOM     15  C   UNL     1      49.504   3.965  18.203  0.00  0.00    +0.000 A 
ATOM     16  C   UNL     1      49.143   2.892  17.388  0.00  0.00    +0.000 A 
ATOM     17  C   UNL     1      47.822   2.788  16.977  0.00  0.00    +0.000 A 
ATOM     18  N   UNL     1      46.862   3.675  17.316  0.00  0.00    +0.000 NA
ATOM     19  C   UNL     1      47.243   4.719  18.093  0.00  0.00    +0.000 A 
ENDBRANCH  12  14
ENDBRANCH   8  12
ENDBRANCH   7   8
ENDBRANCH   1   7
BRANCH   4  20
ATOM     20  C   UNL     1      47.750   7.629  12.329  0.00  0.00    +0.000 C 
BRANCH  20  21
ATOM     21  N   UNL     1      47.001   6.428  12.045  0.00  0.00    +0.000 N 
ATOM     22  C   UNL     1      45.650   6.341  12.241  0.00  0.00    +0.000 C 
ATOM     23  O   UNL     1      44.996   7.279  12.694  0.00  0.00    +0.000 OA
ATOM     24  H   UNL     1      47.550   5.586  11.893  0.00  0.00    +0.000 HD
BRANCH  22  25
ATOM     25  C   UNL     1      45.000   5.093  11.818  0.00  0.00    +0.000 A 
ATOM     26  C   UNL     1      44.263   4.362  12.738  0.00  0.00    +0.000 A 
ATOM     27  S   UNL     1      43.544   2.961  12.083  0.00  0.00    +0.000 S 
ATOM     28  C   UNL     1      44.228   3.260  10.554  0.00  0.00    +0.000 A 
ATOM     29  N   UNL     1      44.025   2.402   9.519  0.00  0.00    +0.000 NA
ATOM     30  C   UNL     1      44.625   2.733   8.424  0.00  0.00    +0.000 A 
ATOM     31  N   UNL     1      45.400   3.853   8.269  0.00  0.00    +0.000 N 
ATOM     32  C   UNL     1      45.588   4.775   9.271  0.00  0.00    +0.000 A 
ATOM     33  O   UNL     1      46.211   5.813   9.071  0.00  0.00    +0.000 OA
ATOM     34  C   UNL     1      44.968   4.429  10.535  0.00  0.00    +0.000 A 
ATOM     35  H   UNL     1      45.823   4.070   7.379  0.00  0.00    +0.000 HD
ENDBRANCH  22  25
ENDBRANCH  20  21
ENDBRANCH   4  20
TORSDOF 8
ENDMDL
MODEL 7
REMARK VINA RESULT:    -7.124      4.535      9.903
REMARK INTER + INTRA:         -11.279
REMARK INTER:                  -9.962
REMARK INTRA:                  -1.317
REMARK UNBOUND:                -1.031
REMARK  Name = 
REMARK  8 active torsions:
REMARK  status: ('A' for Active; 'I' for Inactive)
REMARK    1  A    between atoms: N_1  and  C_2
REMARK    2  A    between atoms: C_2  and  C_3
REMARK    3  A    between atoms: C_2  and  C_24
REMARK    4  A    between atoms: C_3  and  C_4
REMARK    5  A    between atoms: C_7  and  C_8
REMARK    6  A    between atoms: C_8  and  N_9
REMARK    7  A    between atoms: C_10  and  C_12
REMARK    8  A    between atoms: C_24  and  C_26
REMARK                            x       y       z     vdW  Elec       q    Type
REMARK                         _______ _______ _______ _____ _____    ______ ____
ROOT
ATOM      1  C   UNL     1      50.567   5.222  18.768  0.00  0.00    +0.000 A 
ATOM      2  C   UNL     1      49.652   4.389  19.412  0.00  0.00    +0.000 A 
ATOM      3  C   UNL     1      48.613   3.813  18.684  0.00  0.00    +0.000 A 
ATOM      4  C   UNL     1      48.494   4.110  17.330  0.00  0.00    +0.000 A 
ATOM      5  N   UNL     1      49.383   4.902  16.679  0.00  0.00    +0.000 NA
ATOM      6  C   UNL     1      50.398   5.422  17.403  0.00  0.00    +0.000 A 
ENDROOT
BRANCH   1   7
ATOM      7  C   UNL     1      51.685   5.895  19.521  0.00  0.00    +0.000 C 
BRANCH   7   8
ATOM      8  C   UNL     1      52.783   4.926  20.019  0.00  0.00    +0.000 C 
BRANCH   8   9
ATOM      9  N   UNL     1      53.793   5.582  20.875  0.00  0.00    +0.000 NA
ATOM     10  H   UNL     1      53.423   6.475  21.208  0.00  0.00    +0.000 HD
ATOM     11  H   UNL     1      54.609   5.814  20.303  0.00  0.00    +0.000 HD
ENDBRANCH   8   9
BRANCH   8  12
ATOM     12  C   UNL     1      53.503   4.325  18.803  0.00  0.00    +0.000 C 
ATOM     13  O   UNL     1      54.176   5.009  18.032  0.00  0.00    +0.000 OA
BRANCH  12  14
ATOM     14  C   UNL     1      53.385   2.870  18.539  0.00  0.00    +0.000 A 
ATOM     15  C   UNL     1      52.347   2.305  17.799  0.00  0.00    +0.000 A 
ATOM     16  C   UNL     1      52.311   0.922  17.621  0.00  0.00    +0.000 A 
ATOM     17  C   UNL     1      53.322   0.156  18.180  0.00  0.00    +0.000 A 
ATOM     18  N   UNL     1      54.342   0.673  18.897  0.00  0.00    +0.000 NA
ATOM     19  C   UNL     1      54.343   2.018  19.072  0.00  0.00    +0.000 A 
ENDBRANCH  12  14
ENDBRANCH   8  12
ENDBRANCH   7   8
ENDBRANCH   1   7
BRANCH   4  20
ATOM     20  C   UNL     1      47.352   3.543  16.523  0.00  0.00    +0.000 C 
BRANCH  20  21
ATOM     21  N   UNL     1      46.810   4.498  15.584  0.00  0.00    +0.000 N 
ATOM     22  C   UNL     1      46.747   4.252  14.240  0.00  0.00    +0.000 C 
ATOM     23  O   UNL     1      47.171   3.208  13.750  0.00  0.00    +0.000 OA
ATOM     24  H   UNL     1      46.670   5.440  15.939  0.00  0.00    +0.000 HD
BRANCH  22  25
ATOM     25  C   UNL     1      46.081   5.269  13.414  0.00  0.00    +0.000 A 
ATOM     26  C   UNL     1      46.727   6.471  13.160  0.00  0.00    +0.000 A 
ATOM     27  S   UNL     1      45.840   7.527  12.158  0.00  0.00    +0.000 S 
ATOM     28  C   UNL     1      44.541   6.432  12.061  0.00  0.00    +0.000 A 
ATOM     29  N   UNL     1      43.417   6.741  11.362  0.00  0.00    +0.000 NA
ATOM     30  C   UNL     1      42.499   5.833  11.395  0.00  0.00    +0.000 A 
ATOM     31  N   UNL     1      42.610   4.638  12.056  0.00  0.00    +0.000 N 
ATOM     32  C   UNL     1      43.747   4.261  12.730  0.00  0.00    +0.000 A 
ATOM     33  O   UNL     1      43.848   3.145  13.233  0.00  0.00    +0.000 OA
ATOM     34  C   UNL     1      44.795   5.262  12.758  0.00  0.00    +0.000 A 
ATOM     35  H   UNL     1      41.865   3.958  12.024  0.00  0.00    +0.000 HD
ENDBRANCH  22  25
ENDBRANCH  20  21
ENDBRANCH   4  20
TORSDOF 8
ENDMDL
MODEL 8
REMARK VINA RESULT:    -7.035      4.156      8.680
REMARK INTER + INTRA:         -11.151
REMARK INTER:                  -9.344
REMARK INTRA:                  -1.807
REMARK UNBOUND:                -1.031
REMARK  Name = 
REMARK  8 active torsions:
REMARK  status: ('A' for Active; 'I' for Inactive)
REMARK    1  A    between atoms: N_1  and  C_2
REMARK    2  A    between atoms: C_2  and  C_3
REMARK    3  A    between atoms: C_2  and  C_24
REMARK    4  A    between atoms: C_3  and  C_4
REMARK    5  A    between atoms: C_7  and  C_8
REMARK    6  A    between atoms: C_8  and  N_9
REMARK    7  A    between atoms: C_10  and  C_12
REMARK    8  A    between atoms: C_24  and  C_26
REMARK                            x       y       z     vdW  Elec       q    Type
REMARK                         _______ _______ _______ _____ _____    ______ ____
ROOT
ATOM      1  C   UNL     1      50.636   7.046  18.002  0.00  0.00    +0.000 A 
ATOM      2  C   UNL     1      51.281   7.033  16.765  0.00  0.00    +0.000 A 
ATOM      3  C   UNL     1      50.635   7.552  15.644  0.00  0.00    +0.000 A 
ATOM      4  C   UNL     1      49.341   8.045  15.780  0.00  0.00    +0.000 A 
ATOM      5  N   UNL     1      48.702   8.086  16.977  0.00  0.00    +0.000 NA
ATOM      6  C   UNL     1      49.364   7.604  18.051  0.00  0.00    +0.000 A 
ENDROOT
BRANCH   1   7
ATOM      7  C   UNL     1      51.280   6.465  19.232  0.00  0.00    +0.000 C 
BRANCH   7   8
ATOM      8  C   UNL     1      50.712   5.089  19.653  0.00  0.00    +0.000 C 
BRANCH   8   9
ATOM      9  N   UNL     1      51.209   4.632  20.966  0.00  0.00    +0.000 NA
ATOM     10  H   UNL     1      52.145   5.009  21.122  0.00  0.00    +0.000 HD
ATOM     11  H   UNL     1      51.319   3.615  20.941  0.00  0.00    +0.000 HD
ENDBRANCH   8   9
BRANCH   8  12
ATOM     12  C   UNL     1      51.111   4.045  18.599  0.00  0.00    +0.000 C 
ATOM     13  O   UNL     1      52.277   3.680  18.442  0.00  0.00    +0.000 OA
BRANCH  12  14
ATOM     14  C   UNL     1      50.062   3.454  17.733  0.00  0.00    +0.000 A 
ATOM     15  C   UNL     1      48.775   3.979  17.617  0.00  0.00    +0.000 A 
ATOM     16  C   UNL     1      47.850   3.341  16.790  0.00  0.00    +0.000 A 
ATOM     17  C   UNL     1      48.250   2.205  16.102  0.00  0.00    +0.000 A 
ATOM     18  N   UNL     1      49.489   1.675  16.191  0.00  0.00    +0.000 NA
ATOM     19  C   UNL     1      50.363   2.303  17.016  0.00  0.00    +0.000 A 
ENDBRANCH  12  14
ENDBRANCH   8  12
ENDBRANCH   7   8
ENDBRANCH   1   7
BRANCH   4  20
ATOM     20  C   UNL     1      48.595   8.569  14.579  0.00  0.00    +0.000 C 
BRANCH  20  21
ATOM     21  N   UNL     1      47.572   7.657  14.122  0.00  0.00    +0.000 N 
ATOM     22  C   UNL     1      47.835   6.635  13.252  0.00  0.00    +0.000 C 
ATOM     23  O   UNL     1      48.960   6.447  12.790  0.00  0.00    +0.000 OA
ATOM     24  H   UNL     1      46.613   7.934  14.310  0.00  0.00    +0.000 HD
BRANCH  22  25
ATOM     25  C   UNL     1      46.723   5.724  12.948  0.00  0.00    +0.000 A 
ATOM     26  C   UNL     1      46.851   4.372  13.234  0.00  0.00    +0.000 A 
ATOM     27  S   UNL     1      45.463   3.456  12.857  0.00  0.00    +0.000 S 
ATOM     28  C   UNL     1      44.655   4.828  12.258  0.00  0.00    +0.000 A 
ATOM     29  N   UNL     1      43.402   4.730  11.739  0.00  0.00    +0.000 NA
ATOM     30  C   UNL     1      42.919   5.841  11.294  0.00  0.00    +0.000 A 
ATOM     31  N   UNL     1      43.572   7.045  11.331  0.00  0.00    +0.000 N 
ATOM     32  C   UNL     1      44.816   7.202  11.894  0.00  0.00    +0.000 A 
ATOM     33  O   UNL     1      45.334   8.310  11.994  0.00  0.00    +0.000 OA
ATOM     34  C   UNL     1      45.422   5.975  12.373  0.00  0.00    +0.000 A 
ATOM     35  H   UNL     1      43.129   7.885  10.988  0.00  0.00    +0.000 HD
ENDBRANCH  22  25
ENDBRANCH  20  21
ENDBRANCH   4  20
TORSDOF 8
ENDMDL
MODEL 9
REMARK VINA RESULT:    -7.025      2.509      3.177
REMARK INTER + INTRA:         -11.136
REMARK INTER:                  -9.844
REMARK INTRA:                  -1.292
REMARK UNBOUND:                -1.031
REMARK  Name = 
REMARK  8 active torsions:
REMARK  status: ('A' for Active; 'I' for Inactive)
REMARK    1  A    between atoms: N_1  and  C_2
REMARK    2  A    between atoms: C_2  and  C_3
REMARK    3  A    between atoms: C_2  and  C_24
REMARK    4  A    between atoms: C_3  and  C_4
REMARK    5  A    between atoms: C_7  and  C_8
REMARK    6  A    between atoms: C_8  and  N_9
REMARK    7  A    between atoms: C_10  and  C_12
REMARK    8  A    between atoms: C_24  and  C_26
REMARK                            x       y       z     vdW  Elec       q    Type
REMARK                         _______ _______ _______ _____ _____    ______ ____
ROOT
ATOM      1  C   UNL     1      46.002   5.201  13.041  0.00  0.00    +0.000 A 
ATOM      2  C   UNL     1      46.278   6.124  12.032  0.00  0.00    +0.000 A 
ATOM      3  C   UNL     1      47.458   6.863  12.076  0.00  0.00    +0.000 A 
ATOM      4  C   UNL     1      48.325   6.684  13.150  0.00  0.00    +0.000 A 
ATOM      5  N   UNL     1      48.087   5.778  14.132  0.00  0.00    +0.000 NA
ATOM      6  C   UNL     1      46.950   5.055  14.047  0.00  0.00    +0.000 A 
ENDROOT
BRANCH   1   7
ATOM      7  C   UNL     1      44.723   4.406  13.054  0.00  0.00    +0.000 C 
BRANCH   7   8
ATOM      8  C   UNL     1      43.800   4.674  11.841  0.00  0.00    +0.000 C 
BRANCH   8   9
ATOM      9  N   UNL     1      42.418   5.021  12.228  0.00  0.00    +0.000 NA
ATOM     10  H   UNL     1      42.258   6.015  12.052  0.00  0.00    +0.000 HD
ATOM     11  H   UNL     1      42.318   4.897  13.239  0.00  0.00    +0.000 HD
ENDBRANCH   8   9
BRANCH   8  12
ATOM     12  C   UNL     1      43.752   3.412  10.967  0.00  0.00    +0.000 C 
ATOM     13  O   UNL     1      43.008   2.464  11.222  0.00  0.00    +0.000 OA
BRANCH  12  14
ATOM     14  C   UNL     1      44.631   3.323   9.776  0.00  0.00    +0.000 A 
ATOM     15  C   UNL     1      45.119   2.120   9.269  0.00  0.00    +0.000 A 
ATOM     16  C   UNL     1      45.957   2.139   8.153  0.00  0.00    +0.000 A 
ATOM     17  C   UNL     1      46.265   3.363   7.579  0.00  0.00    +0.000 A 
ATOM     18  N   UNL     1      45.805   4.544   8.044  0.00  0.00    +0.000 NA
ATOM     19  C   UNL     1      45.009   4.499   9.141  0.00  0.00    +0.000 A 
ENDBRANCH  12  14
ENDBRANCH   8  12
ENDBRANCH   7   8
ENDBRANCH   1   7
BRANCH   4  20
ATOM     20  C   UNL     1      49.588   7.503  13.254  0.00  0.00    +0.000 C 
BRANCH  20  21
ATOM     21  N   UNL     1      49.878   7.902  14.612  0.00  0.00    +0.000 N 
ATOM     22  C   UNL     1      51.156   8.062  15.073  0.00  0.00    +0.000 C 
ATOM     23  O   UNL     1      52.136   7.853  14.360  0.00  0.00    +0.000 OA
ATOM     24  H   UNL     1      49.101   7.854  15.265  0.00  0.00    +0.000 HD
BRANCH  22  25
ATOM     25  C   UNL     1      51.304   8.566  16.445  0.00  0.00    +0.000 A 
ATOM     26  C   UNL     1      51.966   9.766  16.663  0.00  0.00    +0.000 A 
ATOM     27  S   UNL     1      52.022  10.230  18.302  0.00  0.00    +0.000 S 
ATOM     28  C   UNL     1      51.199   8.822  18.785  0.00  0.00    +0.000 A 
ATOM     29  N   UNL     1      50.943   8.578  20.099  0.00  0.00    +0.000 NA
ATOM     30  C   UNL     1      50.339   7.459  20.327  0.00  0.00    +0.000 A 
ATOM     31  N   UNL     1      49.957   6.569  19.358  0.00  0.00    +0.000 N 
ATOM     32  C   UNL     1      50.146   6.799  18.017  0.00  0.00    +0.000 A 
ATOM     33  O   UNL     1      49.709   6.024  17.170  0.00  0.00    +0.000 OA
ATOM     34  C   UNL     1      50.858   8.023  17.707  0.00  0.00    +0.000 A 
ATOM     35  H   UNL     1      49.464   5.721  19.600  0.00  0.00    +0.000 HD
ENDBRANCH  22  25
ENDBRANCH  20  21
ENDBRANCH   4  20
TORSDOF 8
ENDMDL
