MODEL 1
REMARK VINA RESULT:    -7.546      0.000      0.000
REMARK INTER + INTRA:         -11.551
REMARK INTER:                 -10.635
REMARK INTRA:                  -0.917
REMARK UNBOUND:                -0.917
REMARK  Name = 
REMARK  7 active torsions:
REMARK  status: ('A' for Active; 'I' for Inactive)
REMARK    1  A    between atoms: C_2  and  C_3
REMARK    2  A    between atoms: C_2  and  C_19
REMARK    3  A    between atoms: C_3  and  C_4
REMARK    4  A    between atoms: C_4  and  C_5
REMARK    5  A    between atoms: C_8  and  C_9
REMARK    6  A    between atoms: C_9  and  S_10
REMARK    7  A    between atoms: S_10  and  C_11
REMARK                            x       y       z     vdW  Elec       q    Type
REMARK                         _______ _______ _______ _____ _____    ______ ____
ROOT
ATOM      1  C   UNL     1      47.912   5.024  15.481  0.00  0.00    +0.000 C 
ENDROOT
BRANCH   1   2
ATOM      2  C   UNL     1      47.233   5.155  14.142  0.00  0.00    +0.000 A 
ATOM      3  C   UNL     1      46.266   4.230  13.736  0.00  0.00    +0.000 A 
ATOM      4  C   UNL     1      45.592   4.390  12.523  0.00  0.00    +0.000 A 
ATOM      5  C   UNL     1      45.833   5.503  11.705  0.00  0.00    +0.000 A 
ATOM      6  C   UNL     1      46.827   6.412  12.103  0.00  0.00    +0.000 A 
ATOM      7  C   UNL     1      47.514   6.243  13.307  0.00  0.00    +0.000 A 
BRANCH   5   8
ATOM      8  C   UNL     1      45.125   5.717  10.383  0.00  0.00    +0.000 C 
BRANCH   8   9
ATOM      9  S   UNL     1      44.065   4.324   9.864  0.00  0.00    +0.000 S 
BRANCH   9  10
ATOM     10  C   UNL     1      45.204   3.420   8.842  0.00  0.00    +0.000 A 
ATOM     11  C   UNL     1      45.368   2.050   9.025  0.00  0.00    +0.000 A 
ATOM     12  N   UNL     1      46.202   1.293   8.266  0.00  0.00    +0.000 NA
ATOM     13  C   UNL     1      46.869   1.967   7.306  0.00  0.00    +0.000 A 
ATOM     14  C   UNL     1      46.717   3.330   7.119  0.00  0.00    +0.000 A 
ATOM     15  N   UNL     1      45.888   4.083   7.879  0.00  0.00    +0.000 NA
ENDBRANCH   9  10
ENDBRANCH   8   9
ENDBRANCH   5   8
ENDBRANCH   1   2
BRANCH   1  16
ATOM     16  C   UNL     1      46.970   4.614  16.614  0.00  0.00    +0.000 C 
BRANCH  16  18
ATOM     17  O   UNL     1      47.045   2.611  17.932  0.00  0.00    +0.000 OA
ATOM     18  C   UNL     1      47.646   3.606  17.531  0.00  0.00    +0.000 C 
BRANCH  18  19
ATOM     19  C   UNL     1      49.016   3.873  17.981  0.00  0.00    +0.000 A 
ATOM     20  C   UNL     1      49.367   4.946  18.782  0.00  0.00    +0.000 A 
ATOM     21  S   UNL     1      51.005   4.901  19.275  0.00  0.00    +0.000 S 
ATOM     22  C   UNL     1      51.292   3.468  18.401  0.00  0.00    +0.000 A 
ATOM     23  N   UNL     1      52.512   2.865  18.412  0.00  0.00    +0.000 NA
ATOM     24  C   UNL     1      52.571   1.782  17.711  0.00  0.00    +0.000 A 
ATOM     25  N   UNL     1      51.531   1.257  16.986  0.00  0.00    +0.000 N 
ATOM     26  C   UNL     1      50.315   1.892  16.853  0.00  0.00    +0.000 A 
ATOM     27  O   UNL     1      49.503   1.525  16.017  0.00  0.00    +0.000 OA
ATOM     28  C   UNL     1      50.166   3.052  17.715  0.00  0.00    +0.000 A 
ATOM     29  H   UNL     1      51.668   0.452  16.395  0.00  0.00    +0.000 HD
ENDBRANCH  18  19
ENDBRANCH  16  18
ENDBRANCH   1  16
TORSDOF 7
ENDMDL
MODEL 2
REMARK VINA RESULT:    -7.526      0.914      1.553
REMARK INTER + INTRA:         -11.522
REMARK INTER:                 -11.055
REMARK INTRA:                  -0.467
REMARK UNBOUND:                -0.917
REMARK  Name = 
REMARK  7 active torsions:
REMARK  status: ('A' for Active; 'I' for Inactive)
REMARK    1  A    between atoms: C_2  and  C_3
REMARK    2  A    between atoms: C_2  and  C_19
REMARK    3  A    between atoms: C_3  and  C_4
REMARK    4  A    between atoms: C_4  and  C_5
REMARK    5  A    between atoms: C_8  and  C_9
REMARK    6  A    between atoms: C_9  and  S_10
REMARK    7  A    between atoms: S_10  and  C_11
REMARK                            x       y       z     vdW  Elec       q    Type
REMARK                         _______ _______ _______ _____ _____    ______ ____
ROOT
ATOM      1  C   UNL     1      47.434   5.371  14.916  0.00  0.00    +0.000 C 
ENDROOT
BRANCH   1   2
ATOM      2  C   UNL     1      46.757   5.302  13.571  0.00  0.00    +0.000 A 
ATOM      3  C   UNL     1      46.914   6.331  12.637  0.00  0.00    +0.000 A 
ATOM      4  C   UNL     1      46.338   6.235  11.368  0.00  0.00    +0.000 A 
ATOM      5  C   UNL     1      45.630   5.088  10.981  0.00  0.00    +0.000 A 
ATOM      6  C   UNL     1      45.451   4.071  11.933  0.00  0.00    +0.000 A 
ATOM      7  C   UNL     1      46.010   4.175  13.209  0.00  0.00    +0.000 A 
BRANCH   5   8
ATOM      8  C   UNL     1      44.991   4.941   9.616  0.00  0.00    +0.000 C 
BRANCH   8   9
ATOM      9  S   UNL     1      44.340   3.272   9.268  0.00  0.00    +0.000 S 
BRANCH   9  10
ATOM     10  C   UNL     1      45.655   2.619   8.267  0.00  0.00    +0.000 A 
ATOM     11  C   UNL     1      46.354   3.457   7.402  0.00  0.00    +0.000 A 
ATOM     12  N   UNL     1      47.383   3.031   6.626  0.00  0.00    +0.000 NA
ATOM     13  C   UNL     1      47.692   1.724   6.753  0.00  0.00    +0.000 A 
ATOM     14  C   UNL     1      47.002   0.882   7.606  0.00  0.00    +0.000 A 
ATOM     15  N   UNL     1      45.973   1.307   8.376  0.00  0.00    +0.000 NA
ENDBRANCH   9  10
ENDBRANCH   8   9
ENDBRANCH   5   8
ENDBRANCH   1   2
BRANCH   1  16
ATOM     16  C   UNL     1      47.402   4.053  15.690  0.00  0.00    +0.000 C 
BRANCH  16  18
ATOM     17  O   UNL     1      46.841   4.414  17.995  0.00  0.00    +0.000 OA
ATOM     18  C   UNL     1      47.732   4.287  17.157  0.00  0.00    +0.000 C 
BRANCH  18  19
ATOM     19  C   UNL     1      49.140   4.420  17.548  0.00  0.00    +0.000 A 
ATOM     20  C   UNL     1      49.679   5.567  18.102  0.00  0.00    +0.000 A 
ATOM     21  S   UNL     1      51.302   5.365  18.604  0.00  0.00    +0.000 S 
ATOM     22  C   UNL     1      51.333   3.752  18.061  0.00  0.00    +0.000 A 
ATOM     23  N   UNL     1      52.441   2.975  18.210  0.00  0.00    +0.000 NA
ATOM     24  C   UNL     1      52.307   1.773  17.758  0.00  0.00    +0.000 A 
ATOM     25  N   UNL     1      51.178   1.280  17.156  0.00  0.00    +0.000 N 
ATOM     26  C   UNL     1      50.075   2.060  16.882  0.00  0.00    +0.000 A 
ATOM     27  O   UNL     1      49.191   1.659  16.138  0.00  0.00    +0.000 OA
ATOM     28  C   UNL     1      50.137   3.386  17.472  0.00  0.00    +0.000 A 
ATOM     29  H   UNL     1      51.167   0.356  16.753  0.00  0.00    +0.000 HD
ENDBRANCH  18  19
ENDBRANCH  16  18
ENDBRANCH   1  16
TORSDOF 7
ENDMDL
MODEL 3
REMARK VINA RESULT:    -7.018      2.415      3.218
REMARK INTER + INTRA:         -10.807
REMARK INTER:                 -10.021
REMARK INTRA:                  -0.786
REMARK UNBOUND:                -0.917
REMARK  Name = 
REMARK  7 active torsions:
REMARK  status: ('A' for Active; 'I' for Inactive)
REMARK    1  A    between atoms: C_2  and  C_3
REMARK    2  A    between atoms: C_2  and  C_19
REMARK    3  A    between atoms: C_3  and  C_4
REMARK    4  A    between atoms: C_4  and  C_5
REMARK    5  A    between atoms: C_8  and  C_9
REMARK    6  A    between atoms: C_9  and  S_10
REMARK    7  A    between atoms: S_10  and  C_11
REMARK                            x       y       z     vdW  Elec       q    Type
REMARK                         _______ _______ _______ _____ _____    ______ ____
ROOT
ATOM      1  C   UNL     1      48.090   6.433  14.321  0.00  0.00    +0.000 C 
ENDROOT
BRANCH   1   2
ATOM      2  C   UNL     1      47.134   5.883  13.293  0.00  0.00    +0.000 A 
ATOM      3  C   UNL     1      46.406   4.717  13.544  0.00  0.00    +0.000 A 
ATOM      4  C   UNL     1      45.474   4.246  12.617  0.00  0.00    +0.000 A 
ATOM      5  C   UNL     1      45.210   4.952  11.435  0.00  0.00    +0.000 A 
ATOM      6  C   UNL     1      45.965   6.108  11.175  0.00  0.00    +0.000 A 
ATOM      7  C   UNL     1      46.912   6.569  12.093  0.00  0.00    +0.000 A 
BRANCH   5   8
ATOM      8  C   UNL     1      44.207   4.479  10.403  0.00  0.00    +0.000 C 
BRANCH   8   9
ATOM      9  S   UNL     1      44.259   2.684  10.074  0.00  0.00    +0.000 S 
BRANCH   9  10
ATOM     10  C   UNL     1      45.405   2.642   8.717  0.00  0.00    +0.000 A 
ATOM     11  C   UNL     1      45.625   3.786   7.955  0.00  0.00    +0.000 A 
ATOM     12  N   UNL     1      46.502   3.833   6.919  0.00  0.00    +0.000 NA
ATOM     13  C   UNL     1      47.160   2.680   6.677  0.00  0.00    +0.000 A 
ATOM     14  C   UNL     1      46.946   1.536   7.425  0.00  0.00    +0.000 A 
ATOM     15  N   UNL     1      46.068   1.491   8.454  0.00  0.00    +0.000 NA
ENDBRANCH   9  10
ENDBRANCH   8   9
ENDBRANCH   5   8
ENDBRANCH   1   2
BRANCH   1  16
ATOM     16  C   UNL     1      48.072   5.675  15.648  0.00  0.00    +0.000 C 
BRANCH  16  18
ATOM     17  O   UNL     1      50.381   6.042  16.191  0.00  0.00    +0.000 OA
ATOM     18  C   UNL     1      49.208   6.144  16.546  0.00  0.00    +0.000 C 
BRANCH  18  19
ATOM     19  C   UNL     1      48.881   6.670  17.876  0.00  0.00    +0.000 A 
ATOM     20  C   UNL     1      48.586   7.998  18.126  0.00  0.00    +0.000 A 
ATOM     21  S   UNL     1      48.086   8.278  19.739  0.00  0.00    +0.000 S 
ATOM     22  C   UNL     1      48.286   6.637  20.148  0.00  0.00    +0.000 A 
ATOM     23  N   UNL     1      48.004   6.181  21.399  0.00  0.00    +0.000 NA
ATOM     24  C   UNL     1      48.195   4.913  21.554  0.00  0.00    +0.000 A 
ATOM     25  N   UNL     1      48.661   4.064  20.582  0.00  0.00    +0.000 N 
ATOM     26  C   UNL     1      49.067   4.499  19.339  0.00  0.00    +0.000 A 
ATOM     27  O   UNL     1      49.694   3.764  18.590  0.00  0.00    +0.000 OA
ATOM     28  C   UNL     1      48.763   5.896  19.083  0.00  0.00    +0.000 A 
ATOM     29  H   UNL     1      48.865   3.099  20.793  0.00  0.00    +0.000 HD
ENDBRANCH  18  19
ENDBRANCH  16  18
ENDBRANCH   1  16
TORSDOF 7
ENDMDL
MODEL 4
REMARK VINA RESULT:    -6.821      2.941      3.746
REMARK INTER + INTRA:         -10.529
REMARK INTER:                  -9.301
REMARK INTRA:                  -1.228
REMARK UNBOUND:                -0.917
REMARK  Name = 
REMARK  7 active torsions:
REMARK  status: ('A' for Active; 'I' for Inactive)
REMARK    1  A    between atoms: C_2  and  C_3
REMARK    2  A    between atoms: C_2  and  C_19
REMARK    3  A    between atoms: C_3  and  C_4
REMARK    4  A    between atoms: C_4  and  C_5
REMARK    5  A    between atoms: C_8  and  C_9
REMARK    6  A    between atoms: C_9  and  S_10
REMARK    7  A    between atoms: S_10  and  C_11
REMARK                            x       y       z     vdW  Elec       q    Type
REMARK                         _______ _______ _______ _____ _____    ______ ____
ROOT
ATOM      1  C   UNL     1      49.011   7.635  13.489  0.00  0.00    +0.000 C 
ENDROOT
BRANCH   1   2
ATOM      2  C   UNL     1      47.857   6.770  13.048  0.00  0.00    +0.000 A 
ATOM      3  C   UNL     1      47.252   6.965  11.803  0.00  0.00    +0.000 A 
ATOM      4  C   UNL     1      46.226   6.121  11.371  0.00  0.00    +0.000 A 
ATOM      5  C   UNL     1      45.811   5.031  12.149  0.00  0.00    +0.000 A 
ATOM      6  C   UNL     1      46.403   4.858  13.412  0.00  0.00    +0.000 A 
ATOM      7  C   UNL     1      47.415   5.714  13.853  0.00  0.00    +0.000 A 
BRANCH   5   8
ATOM      8  C   UNL     1      44.705   4.090  11.719  0.00  0.00    +0.000 C 
BRANCH   8   9
ATOM      9  S   UNL     1      43.982   4.477  10.088  0.00  0.00    +0.000 S 
BRANCH   9  10
ATOM     10  C   UNL     1      45.091   3.582   9.027  0.00  0.00    +0.000 A 
ATOM     11  C   UNL     1      45.246   2.207   9.183  0.00  0.00    +0.000 A 
ATOM     12  N   UNL     1      46.057   1.457   8.394  0.00  0.00    +0.000 NA
ATOM     13  C   UNL     1      46.710   2.141   7.431  0.00  0.00    +0.000 A 
ATOM     14  C   UNL     1      46.567   3.508   7.271  0.00  0.00    +0.000 A 
ATOM     15  N   UNL     1      45.760   4.255   8.061  0.00  0.00    +0.000 NA
ENDBRANCH   9  10
ENDBRANCH   8   9
ENDBRANCH   5   8
ENDBRANCH   1   2
BRANCH   1  16
ATOM     16  C   UNL     1      48.603   8.784  14.413  0.00  0.00    +0.000 C 
BRANCH  16  18
ATOM     17  O   UNL     1      50.661   9.039  15.619  0.00  0.00    +0.000 OA
ATOM     18  C   UNL     1      49.459   8.787  15.671  0.00  0.00    +0.000 C 
BRANCH  18  19
ATOM     19  C   UNL     1      48.833   8.423  16.947  0.00  0.00    +0.000 A 
ATOM     20  C   UNL     1      48.178   9.325  17.766  0.00  0.00    +0.000 A 
ATOM     21  S   UNL     1      47.412   8.578  19.102  0.00  0.00    +0.000 S 
ATOM     22  C   UNL     1      47.969   7.038  18.636  0.00  0.00    +0.000 A 
ATOM     23  N   UNL     1      47.648   5.923  19.349  0.00  0.00    +0.000 NA
ATOM     24  C   UNL     1      48.135   4.830  18.866  0.00  0.00    +0.000 A 
ATOM     25  N   UNL     1      48.927   4.747  17.749  0.00  0.00    +0.000 N 
ATOM     26  C   UNL     1      49.371   5.857  17.062  0.00  0.00    +0.000 A 
ATOM     27  O   UNL     1      50.259   5.766  16.228  0.00  0.00    +0.000 OA
ATOM     28  C   UNL     1      48.757   7.098  17.502  0.00  0.00    +0.000 A 
ATOM     29  H   UNL     1      49.341   3.871  17.472  0.00  0.00    +0.000 HD
ENDBRANCH  18  19
ENDBRANCH  16  18
ENDBRANCH   1  16
TORSDOF 7
ENDMDL
MODEL 5
REMARK VINA RESULT:    -6.641      2.067      2.669
REMARK INTER + INTRA:         -10.275
REMARK INTER:                  -9.604
REMARK INTRA:                  -0.671
REMARK UNBOUND:                -0.917
REMARK  Name = 
REMARK  7 active torsions:
REMARK  status: ('A' for Active; 'I' for Inactive)
REMARK    1  A    between atoms: C_2  and  C_3
REMARK    2  A    between atoms: C_2  and  C_19
REMARK    3  A    between atoms: C_3  and  C_4
REMARK    4  A    between atoms: C_4  and  C_5
REMARK    5  A    between atoms: C_8  and  C_9
REMARK    6  A    between atoms: C_9  and  S_10
REMARK    7  A    between atoms: S_10  and  C_11
REMARK                            x       y       z     vdW  Elec       q    Type
REMARK                         _______ _______ _______ _____ _____    ______ ____
ROOT
ATOM      1  C   UNL     1      48.135   6.815  14.015  0.00  0.00    +0.000 C 
ENDROOT
BRANCH   1   2
ATOM      2  C   UNL     1      47.026   6.298  13.133  0.00  0.00    +0.000 A 
ATOM      3  C   UNL     1      46.699   6.947  11.939  0.00  0.00    +0.000 A 
ATOM      4  C   UNL     1      45.716   6.429  11.093  0.00  0.00    +0.000 A 
ATOM      5  C   UNL     1      45.066   5.224  11.394  0.00  0.00    +0.000 A 
ATOM      6  C   UNL     1      45.378   4.591  12.609  0.00  0.00    +0.000 A 
ATOM      7  C   UNL     1      46.348   5.119  13.465  0.00  0.00    +0.000 A 
BRANCH   5   8
ATOM      8  C   UNL     1      43.995   4.625  10.505  0.00  0.00    +0.000 C 
BRANCH   8   9
ATOM      9  S   UNL     1      44.136   2.821  10.272  0.00  0.00    +0.000 S 
BRANCH   9  10
ATOM     10  C   UNL     1      45.267   2.763   8.902  0.00  0.00    +0.000 A 
ATOM     11  C   UNL     1      45.494   3.905   8.139  0.00  0.00    +0.000 A 
ATOM     12  N   UNL     1      46.360   3.939   7.094  0.00  0.00    +0.000 NA
ATOM     13  C   UNL     1      47.000   2.777   6.844  0.00  0.00    +0.000 A 
ATOM     14  C   UNL     1      46.778   1.636   7.594  0.00  0.00    +0.000 A 
ATOM     15  N   UNL     1      45.911   1.603   8.633  0.00  0.00    +0.000 NA
ENDBRANCH   9  10
ENDBRANCH   8   9
ENDBRANCH   5   8
ENDBRANCH   1   2
BRANCH   1  16
ATOM     16  C   UNL     1      48.370   5.972  15.269  0.00  0.00    +0.000 C 
BRANCH  16  18
ATOM     17  O   UNL     1      48.704   7.658  16.942  0.00  0.00    +0.000 OA
ATOM     18  C   UNL     1      49.198   6.745  16.284  0.00  0.00    +0.000 C 
BRANCH  18  19
ATOM     19  C   UNL     1      50.622   6.420  16.424  0.00  0.00    +0.000 A 
ATOM     20  C   UNL     1      51.642   7.192  15.895  0.00  0.00    +0.000 A 
ATOM     21  S   UNL     1      53.197   6.650  16.361  0.00  0.00    +0.000 S 
ATOM     22  C   UNL     1      52.545   5.352  17.250  0.00  0.00    +0.000 A 
ATOM     23  N   UNL     1      53.345   4.489  17.933  0.00  0.00    +0.000 NA
ATOM     24  C   UNL     1      52.704   3.565  18.567  0.00  0.00    +0.000 A 
ATOM     25  N   UNL     1      51.341   3.411  18.566  0.00  0.00    +0.000 N 
ATOM     26  C   UNL     1      50.500   4.189  17.800  0.00  0.00    +0.000 A 
ATOM     27  O   UNL     1      49.330   3.877  17.637  0.00  0.00    +0.000 OA
ATOM     28  C   UNL     1      51.166   5.311  17.161  0.00  0.00    +0.000 A 
ATOM     29  H   UNL     1      50.910   2.619  19.017  0.00  0.00    +0.000 HD
ENDBRANCH  18  19
ENDBRANCH  16  18
ENDBRANCH   1  16
TORSDOF 7
ENDMDL
MODEL 6
REMARK VINA RESULT:    -6.585      2.530      3.284
REMARK INTER + INTRA:         -10.197
REMARK INTER:                  -9.068
REMARK INTRA:                  -1.128
REMARK UNBOUND:                -0.917
REMARK  Name = 
REMARK  7 active torsions:
REMARK  status: ('A' for Active; 'I' for Inactive)
REMARK    1  A    between atoms: C_2  and  C_3
REMARK    2  A    between atoms: C_2  and  C_19
REMARK    3  A    between atoms: C_3  and  C_4
REMARK    4  A    between atoms: C_4  and  C_5
REMARK    5  A    between atoms: C_8  and  C_9
REMARK    6  A    between atoms: C_9  and  S_10
REMARK    7  A    between atoms: S_10  and  C_11
REMARK                            x       y       z     vdW  Elec       q    Type
REMARK                         _______ _______ _______ _____ _____    ______ ____
ROOT
ATOM      1  C   UNL     1      49.502   8.583  13.898  0.00  0.00    +0.000 C 
ENDROOT
BRANCH   1   2
ATOM      2  C   UNL     1      48.239   8.138  13.204  0.00  0.00    +0.000 A 
ATOM      3  C   UNL     1      48.253   7.055  12.320  0.00  0.00    +0.000 A 
ATOM      4  C   UNL     1      47.070   6.604  11.729  0.00  0.00    +0.000 A 
ATOM      5  C   UNL     1      45.836   7.192  12.043  0.00  0.00    +0.000 A 
ATOM      6  C   UNL     1      45.833   8.297  12.910  0.00  0.00    +0.000 A 
ATOM      7  C   UNL     1      47.018   8.761  13.486  0.00  0.00    +0.000 A 
BRANCH   5   8
ATOM      8  C   UNL     1      44.530   6.734  11.427  0.00  0.00    +0.000 C 
BRANCH   8   9
ATOM      9  S   UNL     1      44.039   5.036  11.884  0.00  0.00    +0.000 S 
BRANCH   9  10
ATOM     10  C   UNL     1      44.556   4.152  10.432  0.00  0.00    +0.000 A 
ATOM     11  C   UNL     1      44.293   2.790  10.315  0.00  0.00    +0.000 A 
ATOM     12  N   UNL     1      44.639   2.058   9.226  0.00  0.00    +0.000 NA
ATOM     13  C   UNL     1      45.260   2.748   8.247  0.00  0.00    +0.000 A 
ATOM     14  C   UNL     1      45.530   4.101   8.355  0.00  0.00    +0.000 A 
ATOM     15  N   UNL     1      45.188   4.829   9.443  0.00  0.00    +0.000 NA
ENDBRANCH   9  10
ENDBRANCH   8   9
ENDBRANCH   5   8
ENDBRANCH   1   2
BRANCH   1  16
ATOM     16  C   UNL     1      50.109   7.523  14.817  0.00  0.00    +0.000 C 
BRANCH  16  18
ATOM     17  O   UNL     1      48.682   8.432  16.518  0.00  0.00    +0.000 OA
ATOM     18  C   UNL     1      49.371   7.484  16.147  0.00  0.00    +0.000 C 
BRANCH  18  19
ATOM     19  C   UNL     1      49.543   6.311  17.012  0.00  0.00    +0.000 A 
ATOM     20  C   UNL     1      50.485   6.234  18.023  0.00  0.00    +0.000 A 
ATOM     21  S   UNL     1      50.337   4.812  18.964  0.00  0.00    +0.000 S 
ATOM     22  C   UNL     1      49.035   4.252  18.021  0.00  0.00    +0.000 A 
ATOM     23  N   UNL     1      48.410   3.076  18.305  0.00  0.00    +0.000 NA
ATOM     24  C   UNL     1      47.435   2.791  17.507  0.00  0.00    +0.000 A 
ATOM     25  N   UNL     1      47.039   3.560  16.442  0.00  0.00    +0.000 N 
ATOM     26  C   UNL     1      47.712   4.697  16.049  0.00  0.00    +0.000 A 
ATOM     27  O   UNL     1      47.483   5.220  14.968  0.00  0.00    +0.000 OA
ATOM     28  C   UNL     1      48.743   5.117  16.982  0.00  0.00    +0.000 A 
ATOM     29  H   UNL     1      46.322   3.240  15.810  0.00  0.00    +0.000 HD
ENDBRANCH  18  19
ENDBRANCH  16  18
ENDBRANCH   1  16
TORSDOF 7
ENDMDL
MODEL 7
REMARK VINA RESULT:    -6.526      3.039      4.099
REMARK INTER + INTRA:         -10.113
REMARK INTER:                  -9.116
REMARK INTRA:                  -0.998
REMARK UNBOUND:                -0.917
REMARK  Name = 
REMARK  7 active torsions:
REMARK  status: ('A' for Active; 'I' for Inactive)
REMARK    1  A    between atoms: C_2  and  C_3
REMARK    2  A    between atoms: C_2  and  C_19
REMARK    3  A    between atoms: C_3  and  C_4
REMARK    4  A    between atoms: C_4  and  C_5
REMARK    5  A    between atoms: C_8  and  C_9
REMARK    6  A    between atoms: C_9  and  S_10
REMARK    7  A    between atoms: S_10  and  C_11
REMARK                            x       y       z     vdW  Elec       q    Type
REMARK                         _______ _______ _______ _____ _____    ______ ____
ROOT
ATOM      1  C   UNL     1      48.820   6.907  14.049  0.00  0.00    +0.000 C 
ENDROOT
BRANCH   1   2
ATOM      2  C   UNL     1      47.637   6.198  13.440  0.00  0.00    +0.000 A 
ATOM      3  C   UNL     1      47.076   6.643  12.239  0.00  0.00    +0.000 A 
ATOM      4  C   UNL     1      46.022   5.946  11.645  0.00  0.00    +0.000 A 
ATOM      5  C   UNL     1      45.531   4.760  12.210  0.00  0.00    +0.000 A 
ATOM      6  C   UNL     1      46.078   4.335  13.431  0.00  0.00    +0.000 A 
ATOM      7  C   UNL     1      47.120   5.042  14.036  0.00  0.00    +0.000 A 
BRANCH   5   8
ATOM      8  C   UNL     1      44.390   3.972  11.599  0.00  0.00    +0.000 C 
BRANCH   8   9
ATOM      9  S   UNL     1      43.910   4.521   9.925  0.00  0.00    +0.000 S 
BRANCH   9  10
ATOM     10  C   UNL     1      45.056   3.585   8.941  0.00  0.00    +0.000 A 
ATOM     11  C   UNL     1      45.190   2.214   9.144  0.00  0.00    +0.000 A 
ATOM     12  N   UNL     1      46.028   1.433   8.414  0.00  0.00    +0.000 NA
ATOM     13  C   UNL     1      46.730   2.083   7.463  0.00  0.00    +0.000 A 
ATOM     14  C   UNL     1      46.608   3.446   7.257  0.00  0.00    +0.000 A 
ATOM     15  N   UNL     1      45.775   4.223   7.988  0.00  0.00    +0.000 NA
ENDBRANCH   9  10
ENDBRANCH   8   9
ENDBRANCH   5   8
ENDBRANCH   1   2
BRANCH   1  16
ATOM     16  C   UNL     1      48.452   7.852  15.194  0.00  0.00    +0.000 C 
BRANCH  16  18
ATOM     17  O   UNL     1      50.430   8.139  16.521  0.00  0.00    +0.000 OA
ATOM     18  C   UNL     1      49.335   7.591  16.405  0.00  0.00    +0.000 C 
BRANCH  18  19
ATOM     19  C   UNL     1      48.882   6.624  17.411  0.00  0.00    +0.000 A 
ATOM     20  C   UNL     1      49.032   5.254  17.282  0.00  0.00    +0.000 A 
ATOM     21  S   UNL     1      48.556   4.398  18.685  0.00  0.00    +0.000 S 
ATOM     22  C   UNL     1      48.105   5.834  19.482  0.00  0.00    +0.000 A 
ATOM     23  N   UNL     1      47.626   5.816  20.756  0.00  0.00    +0.000 NA
ATOM     24  C   UNL     1      47.339   6.982  21.228  0.00  0.00    +0.000 A 
ATOM     25  N   UNL     1      47.466   8.163  20.540  0.00  0.00    +0.000 N 
ATOM     26  C   UNL     1      47.838   8.219  19.214  0.00  0.00    +0.000 A 
ATOM     27  O   UNL     1      47.711   9.251  18.570  0.00  0.00    +0.000 OA
ATOM     28  C   UNL     1      48.280   6.944  18.677  0.00  0.00    +0.000 A 
ATOM     29  H   UNL     1      47.147   9.031  20.939  0.00  0.00    +0.000 HD
ENDBRANCH  18  19
ENDBRANCH  16  18
ENDBRANCH   1  16
TORSDOF 7
ENDMDL
MODEL 8
REMARK VINA RESULT:    -6.441      2.645      3.149
REMARK INTER + INTRA:          -9.993
REMARK INTER:                  -9.119
REMARK INTRA:                  -0.874
REMARK UNBOUND:                -0.917
REMARK  Name = 
REMARK  7 active torsions:
REMARK  status: ('A' for Active; 'I' for Inactive)
REMARK    1  A    between atoms: C_2  and  C_3
REMARK    2  A    between atoms: C_2  and  C_19
REMARK    3  A    between atoms: C_3  and  C_4
REMARK    4  A    between atoms: C_4  and  C_5
REMARK    5  A    between atoms: C_8  and  C_9
REMARK    6  A    between atoms: C_9  and  S_10
REMARK    7  A    between atoms: S_10  and  C_11
REMARK                            x       y       z     vdW  Elec       q    Type
REMARK                         _______ _______ _______ _____ _____    ______ ____
ROOT
ATOM      1  C   UNL     1      48.262   6.250  14.558  0.00  0.00    +0.000 C 
ENDROOT
BRANCH   1   2
ATOM      2  C   UNL     1      47.180   5.905  13.567  0.00  0.00    +0.000 A 
ATOM      3  C   UNL     1      47.106   6.556  12.332  0.00  0.00    +0.000 A 
ATOM      4  C   UNL     1      46.142   6.188  11.390  0.00  0.00    +0.000 A 
ATOM      5  C   UNL     1      45.257   5.130  11.638  0.00  0.00    +0.000 A 
ATOM      6  C   UNL     1      45.317   4.499  12.892  0.00  0.00    +0.000 A 
ATOM      7  C   UNL     1      46.268   4.878  13.842  0.00  0.00    +0.000 A 
BRANCH   5   8
ATOM      8  C   UNL     1      44.198   4.697  10.645  0.00  0.00    +0.000 C 
BRANCH   8   9
ATOM      9  S   UNL     1      44.158   2.900  10.325  0.00  0.00    +0.000 S 
BRANCH   9  10
ATOM     10  C   UNL     1      45.266   2.798   8.939  0.00  0.00    +0.000 A 
ATOM     11  C   UNL     1      45.482   3.916   8.137  0.00  0.00    +0.000 A 
ATOM     12  N   UNL     1      46.331   3.916   7.078  0.00  0.00    +0.000 NA
ATOM     13  C   UNL     1      46.964   2.746   6.852  0.00  0.00    +0.000 A 
ATOM     14  C   UNL     1      46.753   1.628   7.641  0.00  0.00    +0.000 A 
ATOM     15  N   UNL     1      45.903   1.629   8.694  0.00  0.00    +0.000 NA
ENDBRANCH   9  10
ENDBRANCH   8   9
ENDBRANCH   5   8
ENDBRANCH   1   2
BRANCH   1  16
ATOM     16  C   UNL     1      48.137   5.511  15.891  0.00  0.00    +0.000 C 
BRANCH  16  18
ATOM     17  O   UNL     1      48.448   7.235  17.531  0.00  0.00    +0.000 OA
ATOM     18  C   UNL     1      48.912   6.239  16.979  0.00  0.00    +0.000 C 
BRANCH  18  19
ATOM     19  C   UNL     1      50.257   5.763  17.322  0.00  0.00    +0.000 A 
ATOM     20  C   UNL     1      50.509   4.790  18.273  0.00  0.00    +0.000 A 
ATOM     21  S   UNL     1      52.156   4.330  18.334  0.00  0.00    +0.000 S 
ATOM     22  C   UNL     1      52.575   5.445  17.117  0.00  0.00    +0.000 A 
ATOM     23  N   UNL     1      53.855   5.552  16.666  0.00  0.00    +0.000 NA
ATOM     24  C   UNL     1      54.014   6.433  15.735  0.00  0.00    +0.000 A 
ATOM     25  N   UNL     1      53.019   7.228  15.227  0.00  0.00    +0.000 N 
ATOM     26  C   UNL     1      51.735   7.234  15.729  0.00  0.00    +0.000 A 
ATOM     27  O   UNL     1      50.944   8.114  15.421  0.00  0.00    +0.000 OA
ATOM     28  C   UNL     1      51.483   6.182  16.698  0.00  0.00    +0.000 A 
ATOM     29  H   UNL     1      53.226   7.953  14.557  0.00  0.00    +0.000 HD
ENDBRANCH  18  19
ENDBRANCH  16  18
ENDBRANCH   1  16
TORSDOF 7
ENDMDL
MODEL 9
REMARK VINA RESULT:    -6.186      3.749      8.583
REMARK INTER + INTRA:          -9.634
REMARK INTER:                  -8.258
REMARK INTRA:                  -1.376
REMARK UNBOUND:                -0.917
REMARK  Name = 
REMARK  7 active torsions:
REMARK  status: ('A' for Active; 'I' for Inactive)
REMARK    1  A    between atoms: C_2  and  C_3
REMARK    2  A    between atoms: C_2  and  C_19
REMARK    3  A    between atoms: C_3  and  C_4
REMARK    4  A    between atoms: C_4  and  C_5
REMARK    5  A    between atoms: C_8  and  C_9
REMARK    6  A    between atoms: C_9  and  S_10
REMARK    7  A    between atoms: S_10  and  C_11
REMARK                            x       y       z     vdW  Elec       q    Type
REMARK                         _______ _______ _______ _____ _____    ______ ____
ROOT
ATOM      1  C   UNL     1      48.448   9.270  14.362  0.00  0.00    +0.000 C 
ENDROOT
BRANCH   1   2
ATOM      2  C   UNL     1      48.840   8.608  15.659  0.00  0.00    +0.000 A 
ATOM      3  C   UNL     1      48.225   8.969  16.861  0.00  0.00    +0.000 A 
ATOM      4  C   UNL     1      48.544   8.310  18.050  0.00  0.00    +0.000 A 
ATOM      5  C   UNL     1      49.452   7.241  18.062  0.00  0.00    +0.000 A 
ATOM      6  C   UNL     1      50.089   6.903  16.856  0.00  0.00    +0.000 A 
ATOM      7  C   UNL     1      49.784   7.575  15.670  0.00  0.00    +0.000 A 
BRANCH   5   8
ATOM      8  C   UNL     1      49.827   6.497  19.327  0.00  0.00    +0.000 C 
BRANCH   8   9
ATOM      9  S   UNL     1      48.541   5.352  19.934  0.00  0.00    +0.000 S 
BRANCH   9  10
ATOM     10  C   UNL     1      48.366   4.291  18.519  0.00  0.00    +0.000 A 
ATOM     11  C   UNL     1      47.221   4.366  17.730  0.00  0.00    +0.000 A 
ATOM     12  N   UNL     1      47.031   3.603  16.623  0.00  0.00    +0.000 NA
ATOM     13  C   UNL     1      48.042   2.758  16.331  0.00  0.00    +0.000 A 
ATOM     14  C   UNL     1      49.182   2.674  17.110  0.00  0.00    +0.000 A 
ATOM     15  N   UNL     1      49.368   3.432  18.216  0.00  0.00    +0.000 NA
ENDBRANCH   9  10
ENDBRANCH   8   9
ENDBRANCH   5   8
ENDBRANCH   1   2
BRANCH   1  16
ATOM     16  C   UNL     1      47.111   8.784  13.801  0.00  0.00    +0.000 C 
BRANCH  16  18
ATOM     17  O   UNL     1      48.132   8.020  11.769  0.00  0.00    +0.000 OA
ATOM     18  C   UNL     1      47.335   7.785  12.676  0.00  0.00    +0.000 C 
BRANCH  18  19
ATOM     19  C   UNL     1      46.537   6.554  12.658  0.00  0.00    +0.000 A 
ATOM     20  C   UNL     1      46.977   5.345  13.168  0.00  0.00    +0.000 A 
ATOM     21  S   UNL     1      45.766   4.136  13.154  0.00  0.00    +0.000 S 
ATOM     22  C   UNL     1      44.638   5.189  12.434  0.00  0.00    +0.000 A 
ATOM     23  N   UNL     1      43.366   4.786  12.164  0.00  0.00    +0.000 NA
ATOM     24  C   UNL     1      42.627   5.699  11.628  0.00  0.00    +0.000 A 
ATOM     25  N   UNL     1      43.044   6.970  11.321  0.00  0.00    +0.000 N 
ATOM     26  C   UNL     1      44.349   7.386  11.472  0.00  0.00    +0.000 A 
ATOM     27  O   UNL     1      44.736   8.432  10.971  0.00  0.00    +0.000 OA
ATOM     28  C   UNL     1      45.188   6.431  12.175  0.00  0.00    +0.000 A 
ATOM     29  H   UNL     1      42.438   7.608  10.830  0.00  0.00    +0.000 HD
ENDBRANCH  18  19
ENDBRANCH  16  18
ENDBRANCH   1  16
TORSDOF 7
ENDMDL
