MODEL 1
REMARK VINA RESULT:    -7.226      0.000      0.000
REMARK INTER + INTRA:         -12.785
REMARK INTER:                 -11.450
REMARK INTRA:                  -1.335
REMARK UNBOUND:                -1.335
REMARK  Name = 
REMARK  13 active torsions:
REMARK  status: ('A' for Active; 'I' for Inactive)
REMARK    1  A    between atoms: C_1  and  C_2
REMARK    2  A    between atoms: C_2  and  O_3
REMARK    3  A    between atoms: O_3  and  C_4
REMARK    4  A    between atoms: C_6  and  O_7
REMARK    5  A    between atoms: O_7  and  C_8
REMARK    6  A    between atoms: C_8  and  C_9
REMARK    7  A    between atoms: C_9  and  C_10
REMARK    8  A    between atoms: C_14  and  C_15
REMARK    9  A    between atoms: C_20  and  C_21
REMARK   10  A    between atoms: C_21  and  C_22
REMARK   11  A    between atoms: C_21  and  C_23
REMARK   12  A    between atoms: C_24  and  O_25
REMARK   13  A    between atoms: O_25  and  C_26
REMARK                            x       y       z     vdW  Elec       q    Type
REMARK                         _______ _______ _______ _____ _____    ______ ____
ROOT
ATOM      1  C   UNL     1      46.928   4.525  14.171  0.00  0.00    +0.000 A 
ATOM      2  C   UNL     1      45.685   4.117  13.666  0.00  0.00    +0.000 A 
ATOM      3  C   UNL     1      44.943   4.936  12.820  0.00  0.00    +0.000 A 
ATOM      4  C   UNL     1      45.471   6.147  12.392  0.00  0.00    +0.000 A 
ATOM      5  C   UNL     1      46.700   6.613  12.891  0.00  0.00    +0.000 A 
ATOM      6  C   UNL     1      47.432   5.784  13.782  0.00  0.00    +0.000 A 
ENDROOT
BRANCH   5   7
ATOM      7  C   UNL     1      47.205   8.002  12.498  0.00  0.00    +0.000 C 
ATOM      8  C   UNL     1      48.285   7.927  11.417  0.00  0.00    +0.000 C 
ATOM      9  C   UNL     1      46.083   8.952  12.054  0.00  0.00    +0.000 C 
ENDBRANCH   5   7
BRANCH   1  10
ATOM     10  O   UNL     1      47.652   3.757  15.051  0.00  0.00    +0.000 OA
BRANCH  10  12
ATOM     11  C   UNL     1      48.090   2.808  17.221  0.00  0.00    +0.000 C 
ATOM     12  C   UNL     1      47.327   3.863  16.441  0.00  0.00    +0.000 C 
ENDBRANCH  10  12
ENDBRANCH   1  10
BRANCH   3  13
ATOM     13  O   UNL     1      43.685   4.633  12.371  0.00  0.00    +0.000 OA
BRANCH  13  14
ATOM     14  C   UNL     1      43.584   4.513  10.945  0.00  0.00    +0.000 C 
BRANCH  14  15
ATOM     15  C   UNL     1      44.086   3.134  10.529  0.00  0.00    +0.000 C 
BRANCH  15  16
ATOM     16  C   UNL     1      45.072   3.223   9.391  0.00  0.00    +0.000 A 
ATOM     17  C   UNL     1      45.476   4.470   8.889  0.00  0.00    +0.000 A 
ATOM     18  C   UNL     1      46.363   4.549   7.815  0.00  0.00    +0.000 A 
ATOM     19  C   UNL     1      46.860   3.382   7.236  0.00  0.00    +0.000 A 
ATOM     20  C   UNL     1      46.478   2.132   7.732  0.00  0.00    +0.000 A 
ATOM     21  C   UNL     1      45.566   2.055   8.791  0.00  0.00    +0.000 A 
BRANCH  20  22
ATOM     22  C   UNL     1      47.047   0.912   7.101  0.00  0.00    +0.000 C 
ATOM     23  N   UNL     1      46.856  -0.273   7.756  0.00  0.00    +0.000 N 
ATOM     24  O   UNL     1      47.695   0.963   6.064  0.00  0.00    +0.000 OA
ATOM     25  H   UNL     1      46.564  -0.312   8.723  0.00  0.00    +0.000 HD
ATOM     26  H   UNL     1      47.351  -1.073   7.384  0.00  0.00    +0.000 HD
ENDBRANCH  20  22
ENDBRANCH  15  16
ENDBRANCH  14  15
ENDBRANCH  13  14
ENDBRANCH   3  13
BRANCH   6  27
ATOM     27  O   UNL     1      48.674   6.276  14.129  0.00  0.00    +0.000 OA
BRANCH  27  28
ATOM     28  C   UNL     1      48.855   7.042  15.341  0.00  0.00    +0.000 C 
ATOM     29  C   UNL     1      49.702   8.329  15.295  0.00  0.00    +0.000 C 
ATOM     30  N   UNL     1      50.513   7.853  16.430  0.00  0.00    +0.000 NA
ATOM     31  C   UNL     1      49.967   6.497  16.263  0.00  0.00    +0.000 C 
ATOM     32  H   UNL     1      50.271   8.283  17.322  0.00  0.00    +0.000 HD
ENDBRANCH  27  28
ENDBRANCH   6  27
TORSDOF 10
ENDMDL
MODEL 2
REMARK VINA RESULT:    -6.847      1.292      3.399
REMARK INTER + INTRA:         -12.185
REMARK INTER:                 -10.780
REMARK INTRA:                  -1.404
REMARK UNBOUND:                -1.335
REMARK  Name = 
REMARK  13 active torsions:
REMARK  status: ('A' for Active; 'I' for Inactive)
REMARK    1  A    between atoms: C_1  and  C_2
REMARK    2  A    between atoms: C_2  and  O_3
REMARK    3  A    between atoms: O_3  and  C_4
REMARK    4  A    between atoms: C_6  and  O_7
REMARK    5  A    between atoms: O_7  and  C_8
REMARK    6  A    between atoms: C_8  and  C_9
REMARK    7  A    between atoms: C_9  and  C_10
REMARK    8  A    between atoms: C_14  and  C_15
REMARK    9  A    between atoms: C_20  and  C_21
REMARK   10  A    between atoms: C_21  and  C_22
REMARK   11  A    between atoms: C_21  and  C_23
REMARK   12  A    between atoms: C_24  and  O_25
REMARK   13  A    between atoms: O_25  and  C_26
REMARK                            x       y       z     vdW  Elec       q    Type
REMARK                         _______ _______ _______ _____ _____    ______ ____
ROOT
ATOM      1  C   UNL     1      47.550   6.202  13.285  0.00  0.00    +0.000 A 
ATOM      2  C   UNL     1      46.539   5.407  12.727  0.00  0.00    +0.000 A 
ATOM      3  C   UNL     1      46.058   4.279  13.384  0.00  0.00    +0.000 A 
ATOM      4  C   UNL     1      46.520   3.971  14.657  0.00  0.00    +0.000 A 
ATOM      5  C   UNL     1      47.553   4.720  15.249  0.00  0.00    +0.000 A 
ATOM      6  C   UNL     1      48.061   5.849  14.552  0.00  0.00    +0.000 A 
ENDROOT
BRANCH   5   7
ATOM      7  C   UNL     1      48.129   4.291  16.599  0.00  0.00    +0.000 C 
ATOM      8  C   UNL     1      47.253   4.760  17.762  0.00  0.00    +0.000 C 
ATOM      9  C   UNL     1      48.372   2.778  16.701  0.00  0.00    +0.000 C 
ENDBRANCH   5   7
BRANCH   1  10
ATOM     10  O   UNL     1      48.079   7.288  12.630  0.00  0.00    +0.000 OA
BRANCH  10  12
ATOM     11  C   UNL     1      47.798   9.646  12.229  0.00  0.00    +0.000 C 
ATOM     12  C   UNL     1      47.164   8.271  12.136  0.00  0.00    +0.000 C 
ENDBRANCH  10  12
ENDBRANCH   1  10
BRANCH   3  13
ATOM     13  O   UNL     1      45.141   3.415  12.848  0.00  0.00    +0.000 OA
BRANCH  13  14
ATOM     14  C   UNL     1      44.198   4.036  11.962  0.00  0.00    +0.000 C 
BRANCH  14  15
ATOM     15  C   UNL     1      43.843   3.053  10.851  0.00  0.00    +0.000 C 
BRANCH  15  16
ATOM     16  C   UNL     1      44.789   3.172   9.682  0.00  0.00    +0.000 A 
ATOM     17  C   UNL     1      45.057   4.421   9.103  0.00  0.00    +0.000 A 
ATOM     18  C   UNL     1      45.908   4.524   8.001  0.00  0.00    +0.000 A 
ATOM     19  C   UNL     1      46.503   3.379   7.472  0.00  0.00    +0.000 A 
ATOM     20  C   UNL     1      46.256   2.128   8.046  0.00  0.00    +0.000 A 
ATOM     21  C   UNL     1      45.381   2.024   9.133  0.00  0.00    +0.000 A 
BRANCH  20  22
ATOM     22  C   UNL     1      46.927   0.935   7.467  0.00  0.00    +0.000 C 
ATOM     23  N   UNL     1      47.809   1.154   6.444  0.00  0.00    +0.000 N 
ATOM     24  O   UNL     1      46.677  -0.199   7.853  0.00  0.00    +0.000 OA
ATOM     25  H   UNL     1      47.838   2.027   5.936  0.00  0.00    +0.000 HD
ATOM     26  H   UNL     1      48.164   0.329   5.978  0.00  0.00    +0.000 HD
ENDBRANCH  20  22
ENDBRANCH  15  16
ENDBRANCH  14  15
ENDBRANCH  13  14
ENDBRANCH   3  13
BRANCH   6  27
ATOM     27  O   UNL     1      48.991   6.584  15.260  0.00  0.00    +0.000 OA
BRANCH  27  28
ATOM     28  C   UNL     1      48.650   7.874  15.813  0.00  0.00    +0.000 C 
ATOM     29  C   UNL     1      49.569   9.078  15.530  0.00  0.00    +0.000 C 
ATOM     30  N   UNL     1      49.646   9.378  16.971  0.00  0.00    +0.000 NA
ATOM     31  C   UNL     1      49.082   8.056  17.285  0.00  0.00    +0.000 C 
ATOM     32  H   UNL     1      49.054  10.154  17.265  0.00  0.00    +0.000 HD
ENDBRANCH  27  28
ENDBRANCH   6  27
TORSDOF 10
ENDMDL
MODEL 3
REMARK VINA RESULT:    -6.302      4.065      7.563
REMARK INTER + INTRA:         -11.321
REMARK INTER:                 -10.155
REMARK INTRA:                  -1.166
REMARK UNBOUND:                -1.335
REMARK  Name = 
REMARK  13 active torsions:
REMARK  status: ('A' for Active; 'I' for Inactive)
REMARK    1  A    between atoms: C_1  and  C_2
REMARK    2  A    between atoms: C_2  and  O_3
REMARK    3  A    between atoms: O_3  and  C_4
REMARK    4  A    between atoms: C_6  and  O_7
REMARK    5  A    between atoms: O_7  and  C_8
REMARK    6  A    between atoms: C_8  and  C_9
REMARK    7  A    between atoms: C_9  and  C_10
REMARK    8  A    between atoms: C_14  and  C_15
REMARK    9  A    between atoms: C_20  and  C_21
REMARK   10  A    between atoms: C_21  and  C_22
REMARK   11  A    between atoms: C_21  and  C_23
REMARK   12  A    between atoms: C_24  and  O_25
REMARK   13  A    between atoms: O_25  and  C_26
REMARK                            x       y       z     vdW  Elec       q    Type
REMARK                         _______ _______ _______ _____ _____    ______ ____
ROOT
ATOM      1  C   UNL     1      45.563   5.281  12.309  0.00  0.00    +0.000 A 
ATOM      2  C   UNL     1      45.899   4.267  13.217  0.00  0.00    +0.000 A 
ATOM      3  C   UNL     1      46.950   4.420  14.116  0.00  0.00    +0.000 A 
ATOM      4  C   UNL     1      47.633   5.627  14.183  0.00  0.00    +0.000 A 
ATOM      5  C   UNL     1      47.352   6.664  13.276  0.00  0.00    +0.000 A 
ATOM      6  C   UNL     1      46.300   6.484  12.338  0.00  0.00    +0.000 A 
ENDROOT
BRANCH   5   7
ATOM      7  C   UNL     1      48.197   7.939  13.290  0.00  0.00    +0.000 C 
ATOM      8  C   UNL     1      48.050   8.700  14.609  0.00  0.00    +0.000 C 
ATOM      9  C   UNL     1      49.682   7.686  12.992  0.00  0.00    +0.000 C 
ENDBRANCH   5   7
BRANCH   1  10
ATOM     10  O   UNL     1      44.565   5.132  11.376  0.00  0.00    +0.000 OA
BRANCH  10  12
ATOM     11  C   UNL     1      42.261   5.708  11.779  0.00  0.00    +0.000 C 
ATOM     12  C   UNL     1      43.310   4.613  11.828  0.00  0.00    +0.000 C 
ENDBRANCH  10  12
ENDBRANCH   1  10
BRANCH   3  13
ATOM     13  O   UNL     1      47.384   3.432  14.960  0.00  0.00    +0.000 OA
BRANCH  13  14
ATOM     14  C   UNL     1      47.553   3.856  16.320  0.00  0.00    +0.000 C 
BRANCH  14  15
ATOM     15  C   UNL     1      48.147   2.705  17.126  0.00  0.00    +0.000 C 
BRANCH  15  16
ATOM     16  C   UNL     1      49.613   2.924  17.408  0.00  0.00    +0.000 A 
ATOM     17  C   UNL     1      50.105   4.211  17.678  0.00  0.00    +0.000 A 
ATOM     18  C   UNL     1      51.466   4.416  17.908  0.00  0.00    +0.000 A 
ATOM     19  C   UNL     1      52.347   3.336  17.875  0.00  0.00    +0.000 A 
ATOM     20  C   UNL     1      51.871   2.046  17.621  0.00  0.00    +0.000 A 
ATOM     21  C   UNL     1      50.510   1.847  17.363  0.00  0.00    +0.000 A 
BRANCH  20  22
ATOM     22  C   UNL     1      52.840   0.918  17.617  0.00  0.00    +0.000 C 
ATOM     23  N   UNL     1      52.478  -0.214  18.294  0.00  0.00    +0.000 N 
ATOM     24  O   UNL     1      53.932   1.005  17.071  0.00  0.00    +0.000 OA
ATOM     25  H   UNL     1      51.720  -0.222  18.961  0.00  0.00    +0.000 HD
ATOM     26  H   UNL     1      53.192  -0.924  18.389  0.00  0.00    +0.000 HD
ENDBRANCH  20  22
ENDBRANCH  15  16
ENDBRANCH  14  15
ENDBRANCH  13  14
ENDBRANCH   3  13
BRANCH   6  27
ATOM     27  O   UNL     1      46.027   7.595  11.567  0.00  0.00    +0.000 OA
BRANCH  27  28
ATOM     28  C   UNL     1      45.058   8.576  12.000  0.00  0.00    +0.000 C 
ATOM     29  C   UNL     1      43.967   9.039  11.014  0.00  0.00    +0.000 C 
ATOM     30  N   UNL     1      44.314  10.449  11.268  0.00  0.00    +0.000 NA
ATOM     31  C   UNL     1      45.566  10.033  11.920  0.00  0.00    +0.000 C 
ATOM     32  H   UNL     1      43.668  10.927  11.895  0.00  0.00    +0.000 HD
ENDBRANCH  27  28
ENDBRANCH   6  27
TORSDOF 10
ENDMDL
MODEL 4
REMARK VINA RESULT:    -6.201      3.709      7.673
REMARK INTER + INTRA:         -11.161
REMARK INTER:                  -9.998
REMARK INTRA:                  -1.163
REMARK UNBOUND:                -1.335
REMARK  Name = 
REMARK  13 active torsions:
REMARK  status: ('A' for Active; 'I' for Inactive)
REMARK    1  A    between atoms: C_1  and  C_2
REMARK    2  A    between atoms: C_2  and  O_3
REMARK    3  A    between atoms: O_3  and  C_4
REMARK    4  A    between atoms: C_6  and  O_7
REMARK    5  A    between atoms: O_7  and  C_8
REMARK    6  A    between atoms: C_8  and  C_9
REMARK    7  A    between atoms: C_9  and  C_10
REMARK    8  A    between atoms: C_14  and  C_15
REMARK    9  A    between atoms: C_20  and  C_21
REMARK   10  A    between atoms: C_21  and  C_22
REMARK   11  A    between atoms: C_21  and  C_23
REMARK   12  A    between atoms: C_24  and  O_25
REMARK   13  A    between atoms: O_25  and  C_26
REMARK                            x       y       z     vdW  Elec       q    Type
REMARK                         _______ _______ _______ _____ _____    ______ ____
ROOT
ATOM      1  C   UNL     1      47.204   6.745  13.305  0.00  0.00    +0.000 A 
ATOM      2  C   UNL     1      47.608   5.642  14.071  0.00  0.00    +0.000 A 
ATOM      3  C   UNL     1      46.977   4.408  13.951  0.00  0.00    +0.000 A 
ATOM      4  C   UNL     1      45.982   4.229  12.998  0.00  0.00    +0.000 A 
ATOM      5  C   UNL     1      45.523   5.311  12.226  0.00  0.00    +0.000 A 
ATOM      6  C   UNL     1      46.151   6.576  12.382  0.00  0.00    +0.000 A 
ENDROOT
BRANCH   5   7
ATOM      7  C   UNL     1      44.346   5.118  11.268  0.00  0.00    +0.000 C 
ATOM      8  C   UNL     1      44.361   3.731  10.625  0.00  0.00    +0.000 C 
ATOM      9  C   UNL     1      42.982   5.379  11.924  0.00  0.00    +0.000 C 
ENDBRANCH   5   7
BRANCH   1  10
ATOM     10  O   UNL     1      47.775   7.987  13.446  0.00  0.00    +0.000 OA
BRANCH  10  12
ATOM     11  C   UNL     1      49.287   8.382  11.613  0.00  0.00    +0.000 C 
ATOM     12  C   UNL     1      49.158   8.121  13.102  0.00  0.00    +0.000 C 
ENDBRANCH  10  12
ENDBRANCH   1  10
BRANCH   3  13
ATOM     13  O   UNL     1      47.264   3.323  14.736  0.00  0.00    +0.000 OA
BRANCH  13  14
ATOM     14  C   UNL     1      47.506   3.644  16.113  0.00  0.00    +0.000 C 
BRANCH  14  15
ATOM     15  C   UNL     1      48.246   2.482  16.768  0.00  0.00    +0.000 C 
BRANCH  15  16
ATOM     16  C   UNL     1      49.641   2.876  17.186  0.00  0.00    +0.000 A 
ATOM     17  C   UNL     1      49.972   4.225  17.389  0.00  0.00    +0.000 A 
ATOM     18  C   UNL     1      51.271   4.591  17.744  0.00  0.00    +0.000 A 
ATOM     19  C   UNL     1      52.250   3.610  17.904  0.00  0.00    +0.000 A 
ATOM     20  C   UNL     1      51.933   2.261  17.718  0.00  0.00    +0.000 A 
ATOM     21  C   UNL     1      50.637   1.900  17.334  0.00  0.00    +0.000 A 
BRANCH  20  22
ATOM     22  C   UNL     1      53.000   1.245  17.920  0.00  0.00    +0.000 C 
ATOM     23  N   UNL     1      53.051   0.212  17.026  0.00  0.00    +0.000 N 
ATOM     24  O   UNL     1      53.775   1.302  18.865  0.00  0.00    +0.000 OA
ATOM     25  H   UNL     1      52.281  -0.003  16.408  0.00  0.00    +0.000 HD
ATOM     26  H   UNL     1      53.697  -0.535  17.245  0.00  0.00    +0.000 HD
ENDBRANCH  20  22
ENDBRANCH  15  16
ENDBRANCH  14  15
ENDBRANCH  13  14
ENDBRANCH   3  13
BRANCH   6  27
ATOM     27  O   UNL     1      45.708   7.544  11.504  0.00  0.00    +0.000 OA
BRANCH  27  28
ATOM     28  C   UNL     1      44.946   8.678  11.976  0.00  0.00    +0.000 C 
ATOM     29  C   UNL     1      43.891   9.310  11.047  0.00  0.00    +0.000 C 
ATOM     30  N   UNL     1      44.484  10.644  11.257  0.00  0.00    +0.000 NA
ATOM     31  C   UNL     1      45.685  10.027  11.841  0.00  0.00    +0.000 C 
ATOM     32  H   UNL     1      43.967  11.228  11.913  0.00  0.00    +0.000 HD
ENDBRANCH  27  28
ENDBRANCH   6  27
TORSDOF 10
ENDMDL
MODEL 5
REMARK VINA RESULT:    -5.806      3.795      5.907
REMARK INTER + INTRA:         -10.534
REMARK INTER:                  -9.043
REMARK INTRA:                  -1.491
REMARK UNBOUND:                -1.335
REMARK  Name = 
REMARK  13 active torsions:
REMARK  status: ('A' for Active; 'I' for Inactive)
REMARK    1  A    between atoms: C_1  and  C_2
REMARK    2  A    between atoms: C_2  and  O_3
REMARK    3  A    between atoms: O_3  and  C_4
REMARK    4  A    between atoms: C_6  and  O_7
REMARK    5  A    between atoms: O_7  and  C_8
REMARK    6  A    between atoms: C_8  and  C_9
REMARK    7  A    between atoms: C_9  and  C_10
REMARK    8  A    between atoms: C_14  and  C_15
REMARK    9  A    between atoms: C_20  and  C_21
REMARK   10  A    between atoms: C_21  and  C_22
REMARK   11  A    between atoms: C_21  and  C_23
REMARK   12  A    between atoms: C_24  and  O_25
REMARK   13  A    between atoms: O_25  and  C_26
REMARK                            x       y       z     vdW  Elec       q    Type
REMARK                         _______ _______ _______ _____ _____    ______ ____
ROOT
ATOM      1  C   UNL     1      48.975   6.055  17.021  0.00  0.00    +0.000 A 
ATOM      2  C   UNL     1      48.919   6.649  15.752  0.00  0.00    +0.000 A 
ATOM      3  C   UNL     1      48.738   8.021  15.601  0.00  0.00    +0.000 A 
ATOM      4  C   UNL     1      48.697   8.839  16.723  0.00  0.00    +0.000 A 
ATOM      5  C   UNL     1      48.721   8.290  18.017  0.00  0.00    +0.000 A 
ATOM      6  C   UNL     1      48.870   6.884  18.157  0.00  0.00    +0.000 A 
ENDROOT
BRANCH   5   7
ATOM      7  C   UNL     1      48.554   9.199  19.235  0.00  0.00    +0.000 C 
ATOM      8  C   UNL     1      49.260  10.542  19.040  0.00  0.00    +0.000 C 
ATOM      9  C   UNL     1      47.085   9.429  19.622  0.00  0.00    +0.000 C 
ENDBRANCH   5   7
BRANCH   1  10
ATOM     10  O   UNL     1      49.097   4.697  17.193  0.00  0.00    +0.000 OA
BRANCH  10  12
ATOM     11  C   UNL     1      50.393   2.673  17.359  0.00  0.00    +0.000 C 
ATOM     12  C   UNL     1      50.399   4.185  17.497  0.00  0.00    +0.000 C 
ENDBRANCH  10  12
ENDBRANCH   1  10
BRANCH   3  13
ATOM     13  O   UNL     1      48.583   8.643  14.391  0.00  0.00    +0.000 OA
BRANCH  13  14
ATOM     14  C   UNL     1      49.331   8.044  13.324  0.00  0.00    +0.000 C 
BRANCH  14  15
ATOM     15  C   UNL     1      48.445   7.964  12.084  0.00  0.00    +0.000 C 
BRANCH  15  16
ATOM     16  C   UNL     1      47.218   7.122  12.332  0.00  0.00    +0.000 A 
ATOM     17  C   UNL     1      45.936   7.686  12.252  0.00  0.00    +0.000 A 
ATOM     18  C   UNL     1      44.804   6.913  12.513  0.00  0.00    +0.000 A 
ATOM     19  C   UNL     1      44.943   5.568  12.852  0.00  0.00    +0.000 A 
ATOM     20  C   UNL     1      46.213   4.987  12.923  0.00  0.00    +0.000 A 
ATOM     21  C   UNL     1      47.349   5.772  12.689  0.00  0.00    +0.000 A 
BRANCH  20  22
ATOM     22  C   UNL     1      46.318   3.544  13.266  0.00  0.00    +0.000 C 
ATOM     23  N   UNL     1      45.407   2.702  12.689  0.00  0.00    +0.000 N 
ATOM     24  O   UNL     1      47.151   3.127  14.058  0.00  0.00    +0.000 OA
ATOM     25  H   UNL     1      44.563   3.042  12.252  0.00  0.00    +0.000 HD
ATOM     26  H   UNL     1      45.410   1.747  13.024  0.00  0.00    +0.000 HD
ENDBRANCH  20  22
ENDBRANCH  15  16
ENDBRANCH  14  15
ENDBRANCH  13  14
ENDBRANCH   3  13
BRANCH   6  27
ATOM     27  O   UNL     1      48.995   6.452  19.462  0.00  0.00    +0.000 OA
BRANCH  27  28
ATOM     28  C   UNL     1      47.976   5.628  20.071  0.00  0.00    +0.000 C 
ATOM     29  C   UNL     1      47.364   6.064  21.416  0.00  0.00    +0.000 C 
ATOM     30  N   UNL     1      47.644   4.736  21.991  0.00  0.00    +0.000 NA
ATOM     31  C   UNL     1      48.535   4.426  20.862  0.00  0.00    +0.000 C 
ATOM     32  H   UNL     1      46.828   4.128  22.045  0.00  0.00    +0.000 HD
ENDBRANCH  27  28
ENDBRANCH   6  27
TORSDOF 10
ENDMDL
MODEL 6
REMARK VINA RESULT:    -5.774      3.145      8.437
REMARK INTER + INTRA:         -10.484
REMARK INTER:                  -9.485
REMARK INTRA:                  -0.999
REMARK UNBOUND:                -1.335
REMARK  Name = 
REMARK  13 active torsions:
REMARK  status: ('A' for Active; 'I' for Inactive)
REMARK    1  A    between atoms: C_1  and  C_2
REMARK    2  A    between atoms: C_2  and  O_3
REMARK    3  A    between atoms: O_3  and  C_4
REMARK    4  A    between atoms: C_6  and  O_7
REMARK    5  A    between atoms: O_7  and  C_8
REMARK    6  A    between atoms: C_8  and  C_9
REMARK    7  A    between atoms: C_9  and  C_10
REMARK    8  A    between atoms: C_14  and  C_15
REMARK    9  A    between atoms: C_20  and  C_21
REMARK   10  A    between atoms: C_21  and  C_22
REMARK   11  A    between atoms: C_21  and  C_23
REMARK   12  A    between atoms: C_24  and  O_25
REMARK   13  A    between atoms: O_25  and  C_26
REMARK                            x       y       z     vdW  Elec       q    Type
REMARK                         _______ _______ _______ _____ _____    ______ ____
ROOT
ATOM      1  C   UNL     1      45.300   4.589  11.978  0.00  0.00    +0.000 A 
ATOM      2  C   UNL     1      45.810   3.647  12.883  0.00  0.00    +0.000 A 
ATOM      3  C   UNL     1      46.875   3.954  13.724  0.00  0.00    +0.000 A 
ATOM      4  C   UNL     1      47.397   5.241  13.737  0.00  0.00    +0.000 A 
ATOM      5  C   UNL     1      46.939   6.213  12.829  0.00  0.00    +0.000 A 
ATOM      6  C   UNL     1      45.875   5.877  11.951  0.00  0.00    +0.000 A 
ENDROOT
BRANCH   5   7
ATOM      7  C   UNL     1      47.610   7.586  12.780  0.00  0.00    +0.000 C 
ATOM      8  C   UNL     1      48.061   8.046  14.168  0.00  0.00    +0.000 C 
ATOM      9  C   UNL     1      48.787   7.651  11.796  0.00  0.00    +0.000 C 
ENDBRANCH   5   7
BRANCH   1  10
ATOM     10  O   UNL     1      44.286   4.291  11.100  0.00  0.00    +0.000 OA
BRANCH  10  12
ATOM     11  C   UNL     1      44.509   2.503   9.501  0.00  0.00    +0.000 C 
ATOM     12  C   UNL     1      44.649   3.994   9.748  0.00  0.00    +0.000 C 
ENDBRANCH  10  12
ENDBRANCH   1  10
BRANCH   3  13
ATOM     13  O   UNL     1      47.475   3.050  14.560  0.00  0.00    +0.000 OA
BRANCH  13  14
ATOM     14  C   UNL     1      47.538   3.470  15.930  0.00  0.00    +0.000 C 
BRANCH  14  15
ATOM     15  C   UNL     1      48.595   2.642  16.653  0.00  0.00    +0.000 C 
BRANCH  15  16
ATOM     16  C   UNL     1      49.306   3.450  17.709  0.00  0.00    +0.000 A 
ATOM     17  C   UNL     1      50.707   3.539  17.718  0.00  0.00    +0.000 A 
ATOM     18  C   UNL     1      51.365   4.261  18.715  0.00  0.00    +0.000 A 
ATOM     19  C   UNL     1      50.628   4.904  19.710  0.00  0.00    +0.000 A 
ATOM     20  C   UNL     1      49.232   4.835  19.708  0.00  0.00    +0.000 A 
ATOM     21  C   UNL     1      48.575   4.087  18.723  0.00  0.00    +0.000 A 
BRANCH  20  22
ATOM     22  C   UNL     1      48.482   5.553  20.772  0.00  0.00    +0.000 C 
ATOM     23  N   UNL     1      49.154   5.817  21.934  0.00  0.00    +0.000 N 
ATOM     24  O   UNL     1      47.305   5.860  20.639  0.00  0.00    +0.000 OA
ATOM     25  H   UNL     1      50.020   5.354  22.172  0.00  0.00    +0.000 HD
ATOM     26  H   UNL     1      48.600   6.193  22.693  0.00  0.00    +0.000 HD
ENDBRANCH  20  22
ENDBRANCH  15  16
ENDBRANCH  14  15
ENDBRANCH  13  14
ENDBRANCH   3  13
BRANCH   6  27
ATOM     27  O   UNL     1      45.421   6.926  11.178  0.00  0.00    +0.000 OA
BRANCH  27  28
ATOM     28  C   UNL     1      44.343   7.772  11.636  0.00  0.00    +0.000 C 
ATOM     29  C   UNL     1      42.944   7.608  11.011  0.00  0.00    +0.000 C 
ATOM     30  N   UNL     1      42.884   9.054  10.730  0.00  0.00    +0.000 NA
ATOM     31  C   UNL     1      44.328   9.173  10.986  0.00  0.00    +0.000 C 
ATOM     32  H   UNL     1      42.310   9.581  11.387  0.00  0.00    +0.000 HD
ENDBRANCH  27  28
ENDBRANCH   6  27
TORSDOF 10
ENDMDL
MODEL 7
REMARK VINA RESULT:    -5.767      3.748      7.992
REMARK INTER + INTRA:         -10.473
REMARK INTER:                  -8.258
REMARK INTRA:                  -2.215
REMARK UNBOUND:                -1.335
REMARK  Name = 
REMARK  13 active torsions:
REMARK  status: ('A' for Active; 'I' for Inactive)
REMARK    1  A    between atoms: C_1  and  C_2
REMARK    2  A    between atoms: C_2  and  O_3
REMARK    3  A    between atoms: O_3  and  C_4
REMARK    4  A    between atoms: C_6  and  O_7
REMARK    5  A    between atoms: O_7  and  C_8
REMARK    6  A    between atoms: C_8  and  C_9
REMARK    7  A    between atoms: C_9  and  C_10
REMARK    8  A    between atoms: C_14  and  C_15
REMARK    9  A    between atoms: C_20  and  C_21
REMARK   10  A    between atoms: C_21  and  C_22
REMARK   11  A    between atoms: C_21  and  C_23
REMARK   12  A    between atoms: C_24  and  O_25
REMARK   13  A    between atoms: O_25  and  C_26
REMARK                            x       y       z     vdW  Elec       q    Type
REMARK                         _______ _______ _______ _____ _____    ______ ____
ROOT
ATOM      1  C   UNL     1      45.804   5.390  12.434  0.00  0.00    +0.000 A 
ATOM      2  C   UNL     1      46.041   4.330  13.321  0.00  0.00    +0.000 A 
ATOM      3  C   UNL     1      47.020   4.415  14.306  0.00  0.00    +0.000 A 
ATOM      4  C   UNL     1      47.725   5.599  14.480  0.00  0.00    +0.000 A 
ATOM      5  C   UNL     1      47.544   6.680  13.599  0.00  0.00    +0.000 A 
ATOM      6  C   UNL     1      46.566   6.569  12.575  0.00  0.00    +0.000 A 
ENDROOT
BRANCH   5   7
ATOM      7  C   UNL     1      48.416   7.930  13.736  0.00  0.00    +0.000 C 
ATOM      8  C   UNL     1      47.992   8.787  14.930  0.00  0.00    +0.000 C 
ATOM      9  C   UNL     1      49.916   7.614  13.822  0.00  0.00    +0.000 C 
ENDBRANCH   5   7
BRANCH   1  10
ATOM     10  O   UNL     1      44.881   5.308  11.419  0.00  0.00    +0.000 OA
BRANCH  10  12
ATOM     11  C   UNL     1      42.514   5.471  11.838  0.00  0.00    +0.000 C 
ATOM     12  C   UNL     1      43.699   4.539  11.663  0.00  0.00    +0.000 C 
ENDBRANCH  10  12
ENDBRANCH   1  10
BRANCH   3  13
ATOM     13  O   UNL     1      47.360   3.381  15.137  0.00  0.00    +0.000 OA
BRANCH  13  14
ATOM     14  C   UNL     1      47.140   3.652  16.529  0.00  0.00    +0.000 C 
BRANCH  14  15
ATOM     15  C   UNL     1      48.459   3.494  17.278  0.00  0.00    +0.000 C 
BRANCH  15  16
ATOM     16  C   UNL     1      49.151   4.820  17.470  0.00  0.00    +0.000 A 
ATOM     17  C   UNL     1      50.479   5.000  17.056  0.00  0.00    +0.000 A 
ATOM     18  C   UNL     1      51.128   6.219  17.264  0.00  0.00    +0.000 A 
ATOM     19  C   UNL     1      50.452   7.270  17.882  0.00  0.00    +0.000 A 
ATOM     20  C   UNL     1      49.123   7.111  18.289  0.00  0.00    +0.000 A 
ATOM     21  C   UNL     1      48.484   5.879  18.105  0.00  0.00    +0.000 A 
BRANCH  20  22
ATOM     22  C   UNL     1      48.431   8.263  18.924  0.00  0.00    +0.000 C 
ATOM     23  N   UNL     1      47.132   8.486  18.556  0.00  0.00    +0.000 N 
ATOM     24  O   UNL     1      49.002   9.008  19.709  0.00  0.00    +0.000 OA
ATOM     25  H   UNL     1      46.726   8.063  17.734  0.00  0.00    +0.000 HD
ATOM     26  H   UNL     1      46.713   9.341  18.899  0.00  0.00    +0.000 HD
ENDBRANCH  20  22
ENDBRANCH  15  16
ENDBRANCH  14  15
ENDBRANCH  13  14
ENDBRANCH   3  13
BRANCH   6  27
ATOM     27  O   UNL     1      46.383   7.719  11.834  0.00  0.00    +0.000 OA
BRANCH  27  28
ATOM     28  C   UNL     1      45.341   8.660  12.174  0.00  0.00    +0.000 C 
ATOM     29  C   UNL     1      44.235   8.959  11.143  0.00  0.00    +0.000 C 
ATOM     30  N   UNL     1      44.477  10.407  11.281  0.00  0.00    +0.000 NA
ATOM     31  C   UNL     1      45.746  10.138  11.976  0.00  0.00    +0.000 C 
ATOM     32  H   UNL     1      43.790  10.888  11.860  0.00  0.00    +0.000 HD
ENDBRANCH  27  28
ENDBRANCH   6  27
TORSDOF 10
ENDMDL
MODEL 8
REMARK VINA RESULT:    -5.763      3.476      7.855
REMARK INTER + INTRA:         -10.467
REMARK INTER:                  -9.295
REMARK INTRA:                  -1.172
REMARK UNBOUND:                -1.335
REMARK  Name = 
REMARK  13 active torsions:
REMARK  status: ('A' for Active; 'I' for Inactive)
REMARK    1  A    between atoms: C_1  and  C_2
REMARK    2  A    between atoms: C_2  and  O_3
REMARK    3  A    between atoms: O_3  and  C_4
REMARK    4  A    between atoms: C_6  and  O_7
REMARK    5  A    between atoms: O_7  and  C_8
REMARK    6  A    between atoms: C_8  and  C_9
REMARK    7  A    between atoms: C_9  and  C_10
REMARK    8  A    between atoms: C_14  and  C_15
REMARK    9  A    between atoms: C_20  and  C_21
REMARK   10  A    between atoms: C_21  and  C_22
REMARK   11  A    between atoms: C_21  and  C_23
REMARK   12  A    between atoms: C_24  and  O_25
REMARK   13  A    between atoms: O_25  and  C_26
REMARK                            x       y       z     vdW  Elec       q    Type
REMARK                         _______ _______ _______ _____ _____    ______ ____
ROOT
ATOM      1  C   UNL     1      45.124   5.675  12.580  0.00  0.00    +0.000 A 
ATOM      2  C   UNL     1      45.492   4.669  13.485  0.00  0.00    +0.000 A 
ATOM      3  C   UNL     1      46.737   4.676  14.108  0.00  0.00    +0.000 A 
ATOM      4  C   UNL     1      47.606   5.740  13.904  0.00  0.00    +0.000 A 
ATOM      5  C   UNL     1      47.295   6.758  12.986  0.00  0.00    +0.000 A 
ATOM      6  C   UNL     1      46.036   6.721  12.328  0.00  0.00    +0.000 A 
ENDROOT
BRANCH   5   7
ATOM      7  C   UNL     1      48.318   7.856  12.689  0.00  0.00    +0.000 C 
ATOM      8  C   UNL     1      48.726   8.607  13.957  0.00  0.00    +0.000 C 
ATOM      9  C   UNL     1      49.566   7.339  11.958  0.00  0.00    +0.000 C 
ENDBRANCH   5   7
BRANCH   1  10
ATOM     10  O   UNL     1      43.924   5.659  11.911  0.00  0.00    +0.000 OA
BRANCH  10  12
ATOM     11  C   UNL     1      44.059   4.248   9.963  0.00  0.00    +0.000 C 
ATOM     12  C   UNL     1      43.491   4.410  11.361  0.00  0.00    +0.000 C 
ENDBRANCH  10  12
ENDBRANCH   1  10
BRANCH   3  13
ATOM     13  O   UNL     1      47.188   3.674  14.926  0.00  0.00    +0.000 OA
BRANCH  13  14
ATOM     14  C   UNL     1      47.554   4.113  16.242  0.00  0.00    +0.000 C 
BRANCH  14  15
ATOM     15  C   UNL     1      48.054   2.914  17.041  0.00  0.00    +0.000 C 
BRANCH  15  16
ATOM     16  C   UNL     1      49.536   3.004  17.307  0.00  0.00    +0.000 A 
ATOM     17  C   UNL     1      50.348   1.862  17.228  0.00  0.00    +0.000 A 
ATOM     18  C   UNL     1      51.713   1.941  17.505  0.00  0.00    +0.000 A 
ATOM     19  C   UNL     1      52.281   3.165  17.860  0.00  0.00    +0.000 A 
ATOM     20  C   UNL     1      51.489   4.314  17.932  0.00  0.00    +0.000 A 
ATOM     21  C   UNL     1      50.114   4.227  17.680  0.00  0.00    +0.000 A 
BRANCH  20  22
ATOM     22  C   UNL     1      52.136   5.603  18.291  0.00  0.00    +0.000 C 
ATOM     23  N   UNL     1      52.845   5.637  19.460  0.00  0.00    +0.000 N 
ATOM     24  O   UNL     1      52.011   6.605  17.600  0.00  0.00    +0.000 OA
ATOM     25  H   UNL     1      52.749   4.923  20.168  0.00  0.00    +0.000 HD
ATOM     26  H   UNL     1      53.175   6.547  19.755  0.00  0.00    +0.000 HD
ENDBRANCH  20  22
ENDBRANCH  15  16
ENDBRANCH  14  15
ENDBRANCH  13  14
ENDBRANCH   3  13
BRANCH   6  27
ATOM     27  O   UNL     1      45.776   7.819  11.533  0.00  0.00    +0.000 OA
BRANCH  27  28
ATOM     28  C   UNL     1      44.948   8.902  12.013  0.00  0.00    +0.000 C 
ATOM     29  C   UNL     1      43.915   9.535  11.061  0.00  0.00    +0.000 C 
ATOM     30  N   UNL     1      44.445  10.879  11.356  0.00  0.00    +0.000 NA
ATOM     31  C   UNL     1      45.640  10.282  11.973  0.00  0.00    +0.000 C 
ATOM     32  H   UNL     1      43.874  11.415  12.009  0.00  0.00    +0.000 HD
ENDBRANCH  27  28
ENDBRANCH   6  27
TORSDOF 10
ENDMDL
MODEL 9
REMARK VINA RESULT:    -5.621      2.093      3.180
REMARK INTER + INTRA:         -10.241
REMARK INTER:                  -9.001
REMARK INTRA:                  -1.241
REMARK UNBOUND:                -1.335
REMARK  Name = 
REMARK  13 active torsions:
REMARK  status: ('A' for Active; 'I' for Inactive)
REMARK    1  A    between atoms: C_1  and  C_2
REMARK    2  A    between atoms: C_2  and  O_3
REMARK    3  A    between atoms: O_3  and  C_4
REMARK    4  A    between atoms: C_6  and  O_7
REMARK    5  A    between atoms: O_7  and  C_8
REMARK    6  A    between atoms: C_8  and  C_9
REMARK    7  A    between atoms: C_9  and  C_10
REMARK    8  A    between atoms: C_14  and  C_15
REMARK    9  A    between atoms: C_20  and  C_21
REMARK   10  A    between atoms: C_21  and  C_22
REMARK   11  A    between atoms: C_21  and  C_23
REMARK   12  A    between atoms: C_24  and  O_25
REMARK   13  A    between atoms: O_25  and  C_26
REMARK                            x       y       z     vdW  Elec       q    Type
REMARK                         _______ _______ _______ _____ _____    ______ ____
ROOT
ATOM      1  C   UNL     1      48.926   6.866  15.168  0.00  0.00    +0.000 A 
ATOM      2  C   UNL     1      47.887   6.150  14.557  0.00  0.00    +0.000 A 
ATOM      3  C   UNL     1      47.699   6.182  13.179  0.00  0.00    +0.000 A 
ATOM      4  C   UNL     1      48.601   6.864  12.373  0.00  0.00    +0.000 A 
ATOM      5  C   UNL     1      49.642   7.621  12.939  0.00  0.00    +0.000 A 
ATOM      6  C   UNL     1      49.804   7.609  14.351  0.00  0.00    +0.000 A 
ENDROOT
BRANCH   5   7
ATOM      7  C   UNL     1      50.551   8.460  12.040  0.00  0.00    +0.000 C 
ATOM      8  C   UNL     1      51.148   7.628  10.904  0.00  0.00    +0.000 C 
ATOM      9  C   UNL     1      49.855   9.706  11.469  0.00  0.00    +0.000 C 
ENDBRANCH   5   7
BRANCH   1  10
ATOM     10  O   UNL     1      49.098   6.894  16.531  0.00  0.00    +0.000 OA
BRANCH  10  12
ATOM     11  C   UNL     1      50.372   5.043  17.400  0.00  0.00    +0.000 C 
ATOM     12  C   UNL     1      48.992   5.653  17.235  0.00  0.00    +0.000 C 
ENDBRANCH  10  12
ENDBRANCH   1  10
BRANCH   3  13
ATOM     13  O   UNL     1      46.649   5.580  12.537  0.00  0.00    +0.000 OA
BRANCH  13  14
ATOM     14  C   UNL     1      45.403   6.280  12.667  0.00  0.00    +0.000 C 
BRANCH  14  15
ATOM     15  C   UNL     1      44.746   6.377  11.294  0.00  0.00    +0.000 C 
BRANCH  15  16
ATOM     16  C   UNL     1      44.713   5.039  10.599  0.00  0.00    +0.000 A 
ATOM     17  C   UNL     1      43.971   3.974  11.131  0.00  0.00    +0.000 A 
ATOM     18  C   UNL     1      43.968   2.727  10.504  0.00  0.00    +0.000 A 
ATOM     19  C   UNL     1      44.703   2.535   9.335  0.00  0.00    +0.000 A 
ATOM     20  C   UNL     1      45.438   3.589   8.784  0.00  0.00    +0.000 A 
ATOM     21  C   UNL     1      45.462   4.831   9.431  0.00  0.00    +0.000 A 
BRANCH  20  22
ATOM     22  C   UNL     1      46.191   3.350   7.525  0.00  0.00    +0.000 C 
ATOM     23  N   UNL     1      46.620   2.072   7.291  0.00  0.00    +0.000 N 
ATOM     24  O   UNL     1      46.455   4.257   6.747  0.00  0.00    +0.000 OA
ATOM     25  H   UNL     1      46.649   1.374   8.019  0.00  0.00    +0.000 HD
ATOM     26  H   UNL     1      47.234   1.948   6.497  0.00  0.00    +0.000 HD
ENDBRANCH  20  22
ENDBRANCH  15  16
ENDBRANCH  14  15
ENDBRANCH  13  14
ENDBRANCH   3  13
BRANCH   6  27
ATOM     27  O   UNL     1      50.917   8.289  14.802  0.00  0.00    +0.000 OA
BRANCH  27  28
ATOM     28  C   UNL     1      52.085   7.573  15.261  0.00  0.00    +0.000 C 
ATOM     29  C   UNL     1      52.742   7.986  16.593  0.00  0.00    +0.000 C 
ATOM     30  N   UNL     1      54.056   8.087  15.930  0.00  0.00    +0.000 NA
ATOM     31  C   UNL     1      53.404   8.048  14.612  0.00  0.00    +0.000 C 
ATOM     32  H   UNL     1      54.670   7.292  16.105  0.00  0.00    +0.000 HD
ENDBRANCH  27  28
ENDBRANCH   6  27
TORSDOF 10
ENDMDL
