MODEL 1
REMARK VINA RESULT:    -7.685      0.000      0.000
REMARK INTER + INTRA:         -10.429
REMARK INTER:                  -9.482
REMARK INTRA:                  -0.947
REMARK UNBOUND:                -0.947
REMARK  Name = 
REMARK  5 active torsions:
REMARK  status: ('A' for Active; 'I' for Inactive)
REMARK    1  A    between atoms: C_1  and  C_2
REMARK    2  A    between atoms: C_6  and  O_7
REMARK    3  A    between atoms: O_7  and  C_8
REMARK    4  A    between atoms: C_8  and  C_9
REMARK    5  A    between atoms: C_13  and  C_14
REMARK                            x       y       z     vdW  Elec       q    Type
REMARK                         _______ _______ _______ _____ _____    ______ ____
ROOT
ATOM      1  C   UNL     1      45.264   4.993  12.071  0.00  0.00    +0.000 A 
ATOM      2  C   UNL     1      45.752   4.034  12.969  0.00  0.00    +0.000 A 
ATOM      3  C   UNL     1      46.922   4.251  13.698  0.00  0.00    +0.000 A 
ATOM      4  C   UNL     1      47.645   5.430  13.518  0.00  0.00    +0.000 A 
ATOM      5  C   UNL     1      47.212   6.416  12.618  0.00  0.00    +0.000 A 
ATOM      6  C   UNL     1      45.993   6.191  11.952  0.00  0.00    +0.000 A 
ENDROOT
BRANCH   5   7
ATOM      7  C   UNL     1      48.045   7.593  12.281  0.00  0.00    +0.000 A 
ATOM      8  C   UNL     1      49.396   7.434  11.919  0.00  0.00    +0.000 A 
ATOM      9  C   UNL     1      50.170   8.514  11.488  0.00  0.00    +0.000 A 
ATOM     10  C   UNL     1      49.606   9.782  11.403  0.00  0.00    +0.000 A 
ATOM     11  C   UNL     1      48.276   9.974  11.768  0.00  0.00    +0.000 A 
ATOM     12  C   UNL     1      47.509   8.891  12.212  0.00  0.00    +0.000 A 
ENDBRANCH   5   7
BRANCH   1  13
ATOM     13  C   UNL     1      44.046   4.721  11.205  0.00  0.00    +0.000 C 
ATOM     14  C   UNL     1      42.660   4.966  11.808  0.00  0.00    +0.000 C 
ATOM     15  C   UNL     1      43.188   5.896  10.770  0.00  0.00    +0.000 C 
BRANCH  13  16
ATOM     16  O   UNL     1      44.053   3.506  10.420  0.00  0.00    +0.000 OA
BRANCH  16  22
ATOM     17  C   UNL     1      46.733   0.546   7.676  0.00  0.00    +0.000 C 
ATOM     18  C   UNL     1      46.271   1.926   8.022  0.00  0.00    +0.000 A 
ATOM     19  C   UNL     1      46.678   3.042   7.291  0.00  0.00    +0.000 A 
ATOM     20  C   UNL     1      46.186   4.288   7.650  0.00  0.00    +0.000 A 
ATOM     21  N   UNL     1      45.327   4.498   8.669  0.00  0.00    +0.000 NA
ATOM     22  C   UNL     1      44.953   3.409   9.371  0.00  0.00    +0.000 A 
ATOM     23  C   UNL     1      45.402   2.125   9.096  0.00  0.00    +0.000 A 
ENDBRANCH  16  22
ENDBRANCH  13  16
ENDBRANCH   1  13
TORSDOF 4
ENDMDL
MODEL 2
REMARK VINA RESULT:    -7.300      1.603      3.491
REMARK INTER + INTRA:          -9.954
REMARK INTER:                  -9.416
REMARK INTRA:                  -0.538
REMARK UNBOUND:                -0.947
REMARK  Name = 
REMARK  5 active torsions:
REMARK  status: ('A' for Active; 'I' for Inactive)
REMARK    1  A    between atoms: C_1  and  C_2
REMARK    2  A    between atoms: C_6  and  O_7
REMARK    3  A    between atoms: O_7  and  C_8
REMARK    4  A    between atoms: C_8  and  C_9
REMARK    5  A    between atoms: C_13  and  C_14
REMARK                            x       y       z     vdW  Elec       q    Type
REMARK                         _______ _______ _______ _____ _____    ______ ____
ROOT
ATOM      1  C   UNL     1      45.508   5.314  11.873  0.00  0.00    +0.000 A 
ATOM      2  C   UNL     1      46.148   6.404  11.266  0.00  0.00    +0.000 A 
ATOM      3  C   UNL     1      47.289   6.978  11.824  0.00  0.00    +0.000 A 
ATOM      4  C   UNL     1      47.799   6.487  13.027  0.00  0.00    +0.000 A 
ATOM      5  C   UNL     1      47.187   5.411  13.687  0.00  0.00    +0.000 A 
ATOM      6  C   UNL     1      46.078   4.815  13.059  0.00  0.00    +0.000 A 
ENDROOT
BRANCH   5   7
ATOM      7  C   UNL     1      47.601   4.984  15.043  0.00  0.00    +0.000 A 
ATOM      8  C   UNL     1      47.275   3.700  15.520  0.00  0.00    +0.000 A 
ATOM      9  C   UNL     1      47.750   3.233  16.748  0.00  0.00    +0.000 A 
ATOM     10  C   UNL     1      48.571   4.041  17.527  0.00  0.00    +0.000 A 
ATOM     11  C   UNL     1      48.900   5.320  17.089  0.00  0.00    +0.000 A 
ATOM     12  C   UNL     1      48.410   5.789  15.865  0.00  0.00    +0.000 A 
ENDBRANCH   5   7
BRANCH   1  13
ATOM     13  C   UNL     1      44.211   4.748  11.321  0.00  0.00    +0.000 C 
ATOM     14  C   UNL     1      42.962   4.805  12.206  0.00  0.00    +0.000 C 
ATOM     15  C   UNL     1      43.070   5.704  11.023  0.00  0.00    +0.000 C 
BRANCH  13  16
ATOM     16  O   UNL     1      44.287   3.480  10.629  0.00  0.00    +0.000 OA
BRANCH  16  22
ATOM     17  C   UNL     1      46.757   0.582   7.633  0.00  0.00    +0.000 C 
ATOM     18  C   UNL     1      46.288   1.950   8.017  0.00  0.00    +0.000 A 
ATOM     19  C   UNL     1      46.577   3.072   7.239  0.00  0.00    +0.000 A 
ATOM     20  C   UNL     1      46.084   4.303   7.641  0.00  0.00    +0.000 A 
ATOM     21  N   UNL     1      45.332   4.495   8.744  0.00  0.00    +0.000 NA
ATOM     22  C   UNL     1      45.072   3.403   9.490  0.00  0.00    +0.000 A 
ATOM     23  C   UNL     1      45.532   2.131   9.177  0.00  0.00    +0.000 A 
ENDBRANCH  16  22
ENDBRANCH  13  16
ENDBRANCH   1  13
TORSDOF 4
ENDMDL
MODEL 3
REMARK VINA RESULT:    -7.234      2.803      6.759
REMARK INTER + INTRA:          -9.873
REMARK INTER:                  -8.937
REMARK INTRA:                  -0.937
REMARK UNBOUND:                -0.947
REMARK  Name = 
REMARK  5 active torsions:
REMARK  status: ('A' for Active; 'I' for Inactive)
REMARK    1  A    between atoms: C_1  and  C_2
REMARK    2  A    between atoms: C_6  and  O_7
REMARK    3  A    between atoms: O_7  and  C_8
REMARK    4  A    between atoms: C_8  and  C_9
REMARK    5  A    between atoms: C_13  and  C_14
REMARK                            x       y       z     vdW  Elec       q    Type
REMARK                         _______ _______ _______ _____ _____    ______ ____
ROOT
ATOM      1  C   UNL     1      45.126   6.194  11.725  0.00  0.00    +0.000 A 
ATOM      2  C   UNL     1      43.756   6.092  12.004  0.00  0.00    +0.000 A 
ATOM      3  C   UNL     1      42.960   5.128  11.387  0.00  0.00    +0.000 A 
ATOM      4  C   UNL     1      43.519   4.259  10.449  0.00  0.00    +0.000 A 
ATOM      5  C   UNL     1      44.881   4.329  10.118  0.00  0.00    +0.000 A 
ATOM      6  C   UNL     1      45.665   5.269  10.811  0.00  0.00    +0.000 A 
ENDROOT
BRANCH   5   7
ATOM      7  C   UNL     1      45.461   3.540   9.008  0.00  0.00    +0.000 A 
ATOM      8  C   UNL     1      46.072   4.183   7.915  0.00  0.00    +0.000 A 
ATOM      9  C   UNL     1      46.726   3.461   6.913  0.00  0.00    +0.000 A 
ATOM     10  C   UNL     1      46.789   2.074   6.986  0.00  0.00    +0.000 A 
ATOM     11  C   UNL     1      46.182   1.408   8.047  0.00  0.00    +0.000 A 
ATOM     12  C   UNL     1      45.517   2.135   9.041  0.00  0.00    +0.000 A 
ENDBRANCH   5   7
BRANCH   1  13
ATOM     13  C   UNL     1      45.977   7.303  12.320  0.00  0.00    +0.000 C 
ATOM     14  C   UNL     1      47.080   6.917  13.310  0.00  0.00    +0.000 C 
ATOM     15  C   UNL     1      47.445   7.375  11.940  0.00  0.00    +0.000 C 
BRANCH  13  16
ATOM     16  O   UNL     1      45.289   8.496  12.763  0.00  0.00    +0.000 OA
BRANCH  16  22
ATOM     17  C   UNL     1      42.902  10.748   9.198  0.00  0.00    +0.000 C 
ATOM     18  C   UNL     1      44.058  10.688  10.147  0.00  0.00    +0.000 A 
ATOM     19  C   UNL     1      45.012  11.704  10.208  0.00  0.00    +0.000 A 
ATOM     20  C   UNL     1      46.039  11.596  11.132  0.00  0.00    +0.000 A 
ATOM     21  N   UNL     1      46.181  10.565  11.991  0.00  0.00    +0.000 NA
ATOM     22  C   UNL     1      45.256   9.588  11.911  0.00  0.00    +0.000 A 
ATOM     23  C   UNL     1      44.200   9.600  11.010  0.00  0.00    +0.000 A 
ENDBRANCH  16  22
ENDBRANCH  13  16
ENDBRANCH   1  13
TORSDOF 4
ENDMDL
MODEL 4
REMARK VINA RESULT:    -7.111      2.363      6.798
REMARK INTER + INTRA:          -9.721
REMARK INTER:                  -8.821
REMARK INTRA:                  -0.900
REMARK UNBOUND:                -0.947
REMARK  Name = 
REMARK  5 active torsions:
REMARK  status: ('A' for Active; 'I' for Inactive)
REMARK    1  A    between atoms: C_1  and  C_2
REMARK    2  A    between atoms: C_6  and  O_7
REMARK    3  A    between atoms: O_7  and  C_8
REMARK    4  A    between atoms: C_8  and  C_9
REMARK    5  A    between atoms: C_13  and  C_14
REMARK                            x       y       z     vdW  Elec       q    Type
REMARK                         _______ _______ _______ _____ _____    ______ ____
ROOT
ATOM      1  C   UNL     1      45.415   6.265  11.772  0.00  0.00    +0.000 A 
ATOM      2  C   UNL     1      44.031   6.416  11.939  0.00  0.00    +0.000 A 
ATOM      3  C   UNL     1      43.125   5.624  11.234  0.00  0.00    +0.000 A 
ATOM      4  C   UNL     1      43.590   4.679  10.319  0.00  0.00    +0.000 A 
ATOM      5  C   UNL     1      44.964   4.500  10.098  0.00  0.00    +0.000 A 
ATOM      6  C   UNL     1      45.849   5.269  10.877  0.00  0.00    +0.000 A 
ENDROOT
BRANCH   5   7
ATOM      7  C   UNL     1      45.479   3.631   9.015  0.00  0.00    +0.000 A 
ATOM      8  C   UNL     1      46.109   4.191   7.887  0.00  0.00    +0.000 A 
ATOM      9  C   UNL     1      46.703   3.390   6.908  0.00  0.00    +0.000 A 
ATOM     10  C   UNL     1      46.685   2.006   7.040  0.00  0.00    +0.000 A 
ATOM     11  C   UNL     1      46.058   1.423   8.136  0.00  0.00    +0.000 A 
ATOM     12  C   UNL     1      45.453   2.228   9.107  0.00  0.00    +0.000 A 
ENDBRANCH   5   7
BRANCH   1  13
ATOM     13  C   UNL     1      46.403   7.189  12.463  0.00  0.00    +0.000 C 
ATOM     14  C   UNL     1      46.576   8.607  11.911  0.00  0.00    +0.000 C 
ATOM     15  C   UNL     1      45.867   8.401  13.204  0.00  0.00    +0.000 C 
BRANCH  13  16
ATOM     16  O   UNL     1      47.682   6.627  12.835  0.00  0.00    +0.000 OA
BRANCH  16  22
ATOM     17  C   UNL     1      49.461   6.916  17.333  0.00  0.00    +0.000 C 
ATOM     18  C   UNL     1      48.680   6.173  16.294  0.00  0.00    +0.000 A 
ATOM     19  C   UNL     1      48.050   4.961  16.575  0.00  0.00    +0.000 A 
ATOM     20  C   UNL     1      47.319   4.344  15.572  0.00  0.00    +0.000 A 
ATOM     21  N   UNL     1      47.168   4.843  14.328  0.00  0.00    +0.000 NA
ATOM     22  C   UNL     1      47.792   6.010  14.071  0.00  0.00    +0.000 A 
ATOM     23  C   UNL     1      48.557   6.695  15.005  0.00  0.00    +0.000 A 
ENDBRANCH  16  22
ENDBRANCH  13  16
ENDBRANCH   1  13
TORSDOF 4
ENDMDL
MODEL 5
REMARK VINA RESULT:    -6.431      3.108      7.244
REMARK INTER + INTRA:          -8.883
REMARK INTER:                  -8.169
REMARK INTRA:                  -0.714
REMARK UNBOUND:                -0.947
REMARK  Name = 
REMARK  5 active torsions:
REMARK  status: ('A' for Active; 'I' for Inactive)
REMARK    1  A    between atoms: C_1  and  C_2
REMARK    2  A    between atoms: C_6  and  O_7
REMARK    3  A    between atoms: O_7  and  C_8
REMARK    4  A    between atoms: C_8  and  C_9
REMARK    5  A    between atoms: C_13  and  C_14
REMARK                            x       y       z     vdW  Elec       q    Type
REMARK                         _______ _______ _______ _____ _____    ______ ____
ROOT
ATOM      1  C   UNL     1      47.013   7.347  13.030  0.00  0.00    +0.000 A 
ATOM      2  C   UNL     1      46.154   8.452  12.954  0.00  0.00    +0.000 A 
ATOM      3  C   UNL     1      45.003   8.425  12.166  0.00  0.00    +0.000 A 
ATOM      4  C   UNL     1      44.704   7.290  11.409  0.00  0.00    +0.000 A 
ATOM      5  C   UNL     1      45.539   6.163  11.433  0.00  0.00    +0.000 A 
ATOM      6  C   UNL     1      46.653   6.203  12.292  0.00  0.00    +0.000 A 
ENDROOT
BRANCH   5   7
ATOM      7  C   UNL     1      45.341   5.019  10.514  0.00  0.00    +0.000 A 
ATOM      8  C   UNL     1      44.663   3.863  10.946  0.00  0.00    +0.000 A 
ATOM      9  C   UNL     1      44.364   2.819  10.067  0.00  0.00    +0.000 A 
ATOM     10  C   UNL     1      44.733   2.911   8.730  0.00  0.00    +0.000 A 
ATOM     11  C   UNL     1      45.417   4.035   8.276  0.00  0.00    +0.000 A 
ATOM     12  C   UNL     1      45.726   5.072   9.163  0.00  0.00    +0.000 A 
ENDBRANCH   5   7
BRANCH   1  13
ATOM     13  C   UNL     1      48.316   7.407  13.809  0.00  0.00    +0.000 C 
ATOM     14  C   UNL     1      49.422   8.334  13.299  0.00  0.00    +0.000 C 
ATOM     15  C   UNL     1      48.669   8.693  14.534  0.00  0.00    +0.000 C 
BRANCH  13  16
ATOM     16  O   UNL     1      48.871   6.150  14.261  0.00  0.00    +0.000 OA
BRANCH  16  22
ATOM     17  C   UNL     1      48.612   6.405  19.093  0.00  0.00    +0.000 C 
ATOM     18  C   UNL     1      48.241   5.730  17.810  0.00  0.00    +0.000 A 
ATOM     19  C   UNL     1      47.380   4.633  17.779  0.00  0.00    +0.000 A 
ATOM     20  C   UNL     1      47.056   4.077  16.551  0.00  0.00    +0.000 A 
ATOM     21  N   UNL     1      47.519   4.531  15.368  0.00  0.00    +0.000 NA
ATOM     22  C   UNL     1      48.358   5.585  15.417  0.00  0.00    +0.000 A 
ATOM     23  C   UNL     1      48.751   6.200  16.598  0.00  0.00    +0.000 A 
ENDBRANCH  16  22
ENDBRANCH  13  16
ENDBRANCH   1  13
TORSDOF 4
ENDMDL
MODEL 6
REMARK VINA RESULT:    -6.356      3.408      7.276
REMARK INTER + INTRA:          -8.789
REMARK INTER:                  -7.723
REMARK INTRA:                  -1.066
REMARK UNBOUND:                -0.947
REMARK  Name = 
REMARK  5 active torsions:
REMARK  status: ('A' for Active; 'I' for Inactive)
REMARK    1  A    between atoms: C_1  and  C_2
REMARK    2  A    between atoms: C_6  and  O_7
REMARK    3  A    between atoms: O_7  and  C_8
REMARK    4  A    between atoms: C_8  and  C_9
REMARK    5  A    between atoms: C_13  and  C_14
REMARK                            x       y       z     vdW  Elec       q    Type
REMARK                         _______ _______ _______ _____ _____    ______ ____
ROOT
ATOM      1  C   UNL     1      47.646   7.581  13.322  0.00  0.00    +0.000 A 
ATOM      2  C   UNL     1      46.780   8.676  13.444  0.00  0.00    +0.000 A 
ATOM      3  C   UNL     1      45.507   8.662  12.874  0.00  0.00    +0.000 A 
ATOM      4  C   UNL     1      45.085   7.552  12.141  0.00  0.00    +0.000 A 
ATOM      5  C   UNL     1      45.918   6.436  11.972  0.00  0.00    +0.000 A 
ATOM      6  C   UNL     1      47.168   6.460  12.618  0.00  0.00    +0.000 A 
ENDROOT
BRANCH   5   7
ATOM      7  C   UNL     1      45.565   5.324  11.060  0.00  0.00    +0.000 A 
ATOM      8  C   UNL     1      44.927   4.169  11.553  0.00  0.00    +0.000 A 
ATOM      9  C   UNL     1      44.483   3.158  10.698  0.00  0.00    +0.000 A 
ATOM     10  C   UNL     1      44.662   3.281   9.325  0.00  0.00    +0.000 A 
ATOM     11  C   UNL     1      45.302   4.404   8.809  0.00  0.00    +0.000 A 
ATOM     12  C   UNL     1      45.757   5.409   9.670  0.00  0.00    +0.000 A 
ENDBRANCH   5   7
BRANCH   1  13
ATOM     13  C   UNL     1      49.067   7.629  13.857  0.00  0.00    +0.000 C 
ATOM     14  C   UNL     1      50.181   8.090  12.912  0.00  0.00    +0.000 C 
ATOM     15  C   UNL     1      49.735   8.983  14.019  0.00  0.00    +0.000 C 
BRANCH  13  16
ATOM     16  O   UNL     1      49.509   6.508  14.657  0.00  0.00    +0.000 OA
BRANCH  16  22
ATOM     17  C   UNL     1      47.113   3.391  17.490  0.00  0.00    +0.000 C 
ATOM     18  C   UNL     1      47.719   4.742  17.274  0.00  0.00    +0.000 A 
ATOM     19  C   UNL     1      47.725   5.714  18.275  0.00  0.00    +0.000 A 
ATOM     20  C   UNL     1      48.331   6.933  18.014  0.00  0.00    +0.000 A 
ATOM     21  N   UNL     1      48.927   7.248  16.845  0.00  0.00    +0.000 NA
ATOM     22  C   UNL     1      48.903   6.301  15.886  0.00  0.00    +0.000 A 
ATOM     23  C   UNL     1      48.309   5.057  16.048  0.00  0.00    +0.000 A 
ENDBRANCH  16  22
ENDBRANCH  13  16
ENDBRANCH   1  13
TORSDOF 4
ENDMDL
MODEL 7
REMARK VINA RESULT:    -5.946      3.212      5.821
REMARK INTER + INTRA:          -8.283
REMARK INTER:                  -7.476
REMARK INTRA:                  -0.808
REMARK UNBOUND:                -0.947
REMARK  Name = 
REMARK  5 active torsions:
REMARK  status: ('A' for Active; 'I' for Inactive)
REMARK    1  A    between atoms: C_1  and  C_2
REMARK    2  A    between atoms: C_6  and  O_7
REMARK    3  A    between atoms: O_7  and  C_8
REMARK    4  A    between atoms: C_8  and  C_9
REMARK    5  A    between atoms: C_13  and  C_14
REMARK                            x       y       z     vdW  Elec       q    Type
REMARK                         _______ _______ _______ _____ _____    ______ ____
ROOT
ATOM      1  C   UNL     1      48.220   8.004  14.152  0.00  0.00    +0.000 A 
ATOM      2  C   UNL     1      48.099   9.129  14.980  0.00  0.00    +0.000 A 
ATOM      3  C   UNL     1      48.376   9.059  16.345  0.00  0.00    +0.000 A 
ATOM      4  C   UNL     1      48.754   7.844  16.917  0.00  0.00    +0.000 A 
ATOM      5  C   UNL     1      48.872   6.682  16.139  0.00  0.00    +0.000 A 
ATOM      6  C   UNL     1      48.651   6.807  14.755  0.00  0.00    +0.000 A 
ENDROOT
BRANCH   5   7
ATOM      7  C   UNL     1      49.102   5.351  16.745  0.00  0.00    +0.000 A 
ATOM      8  C   UNL     1      48.088   4.374  16.735  0.00  0.00    +0.000 A 
ATOM      9  C   UNL     1      48.317   3.076  17.197  0.00  0.00    +0.000 A 
ATOM     10  C   UNL     1      49.574   2.722  17.677  0.00  0.00    +0.000 A 
ATOM     11  C   UNL     1      50.592   3.669  17.713  0.00  0.00    +0.000 A 
ATOM     12  C   UNL     1      50.354   4.972  17.261  0.00  0.00    +0.000 A 
ENDBRANCH   5   7
BRANCH   1  13
ATOM     13  C   UNL     1      47.827   8.052  12.685  0.00  0.00    +0.000 C 
ATOM     14  C   UNL     1      48.475   9.117  11.797  0.00  0.00    +0.000 C 
ATOM     15  C   UNL     1      48.869   7.689  11.643  0.00  0.00    +0.000 C 
BRANCH  13  16
ATOM     16  O   UNL     1      46.420   7.915  12.375  0.00  0.00    +0.000 OA
BRANCH  16  22
ATOM     17  C   UNL     1      45.176   4.495   9.176  0.00  0.00    +0.000 C 
ATOM     18  C   UNL     1      45.302   4.958  10.594  0.00  0.00    +0.000 A 
ATOM     19  C   UNL     1      44.982   4.129  11.669  0.00  0.00    +0.000 A 
ATOM     20  C   UNL     1      45.153   4.615  12.956  0.00  0.00    +0.000 A 
ATOM     21  N   UNL     1      45.617   5.848  13.245  0.00  0.00    +0.000 NA
ATOM     22  C   UNL     1      45.911   6.639  12.194  0.00  0.00    +0.000 A 
ATOM     23  C   UNL     1      45.761   6.247  10.871  0.00  0.00    +0.000 A 
ENDBRANCH  16  22
ENDBRANCH  13  16
ENDBRANCH   1  13
TORSDOF 4
ENDMDL
MODEL 8
REMARK VINA RESULT:    -5.786      2.587      6.692
REMARK INTER + INTRA:          -8.086
REMARK INTER:                  -7.135
REMARK INTRA:                  -0.951
REMARK UNBOUND:                -0.947
REMARK  Name = 
REMARK  5 active torsions:
REMARK  status: ('A' for Active; 'I' for Inactive)
REMARK    1  A    between atoms: C_1  and  C_2
REMARK    2  A    between atoms: C_6  and  O_7
REMARK    3  A    between atoms: O_7  and  C_8
REMARK    4  A    between atoms: C_8  and  C_9
REMARK    5  A    between atoms: C_13  and  C_14
REMARK                            x       y       z     vdW  Elec       q    Type
REMARK                         _______ _______ _______ _____ _____    ______ ____
ROOT
ATOM      1  C   UNL     1      45.297   6.603  11.862  0.00  0.00    +0.000 A 
ATOM      2  C   UNL     1      44.001   6.411  12.360  0.00  0.00    +0.000 A 
ATOM      3  C   UNL     1      43.215   5.337  11.944  0.00  0.00    +0.000 A 
ATOM      4  C   UNL     1      43.704   4.444  10.990  0.00  0.00    +0.000 A 
ATOM      5  C   UNL     1      44.987   4.599  10.444  0.00  0.00    +0.000 A 
ATOM      6  C   UNL     1      45.776   5.654  10.939  0.00  0.00    +0.000 A 
ENDROOT
BRANCH   5   7
ATOM      7  C   UNL     1      45.464   3.773   9.311  0.00  0.00    +0.000 A 
ATOM      8  C   UNL     1      45.319   2.372   9.336  0.00  0.00    +0.000 A 
ATOM      9  C   UNL     1      45.657   1.583   8.234  0.00  0.00    +0.000 A 
ATOM     10  C   UNL     1      46.143   2.179   7.075  0.00  0.00    +0.000 A 
ATOM     11  C   UNL     1      46.311   3.560   7.026  0.00  0.00    +0.000 A 
ATOM     12  C   UNL     1      45.984   4.345   8.137  0.00  0.00    +0.000 A 
ENDBRANCH   5   7
BRANCH   1  13
ATOM     13  C   UNL     1      46.120   7.823  12.239  0.00  0.00    +0.000 C 
ATOM     14  C   UNL     1      45.744   9.170  11.615  0.00  0.00    +0.000 C 
ATOM     15  C   UNL     1      45.460   8.919  13.056  0.00  0.00    +0.000 C 
BRANCH  13  16
ATOM     16  O   UNL     1      47.557   7.662  12.278  0.00  0.00    +0.000 OA
BRANCH  16  22
ATOM     17  C   UNL     1      48.358   4.991  16.241  0.00  0.00    +0.000 C 
ATOM     18  C   UNL     1      48.561   6.258  15.469  0.00  0.00    +0.000 A 
ATOM     19  C   UNL     1      49.375   7.286  15.946  0.00  0.00    +0.000 A 
ATOM     20  C   UNL     1      49.542   8.418  15.163  0.00  0.00    +0.000 A 
ATOM     21  N   UNL     1      48.966   8.596  13.956  0.00  0.00    +0.000 NA
ATOM     22  C   UNL     1      48.175   7.597  13.516  0.00  0.00    +0.000 A 
ATOM     23  C   UNL     1      47.937   6.432  14.233  0.00  0.00    +0.000 A 
ENDBRANCH  16  22
ENDBRANCH  13  16
ENDBRANCH   1  13
TORSDOF 4
ENDMDL
MODEL 9
REMARK VINA RESULT:    -5.775      3.824      7.604
REMARK INTER + INTRA:          -8.073
REMARK INTER:                  -7.318
REMARK INTRA:                  -0.754
REMARK UNBOUND:                -0.947
REMARK  Name = 
REMARK  5 active torsions:
REMARK  status: ('A' for Active; 'I' for Inactive)
REMARK    1  A    between atoms: C_1  and  C_2
REMARK    2  A    between atoms: C_6  and  O_7
REMARK    3  A    between atoms: O_7  and  C_8
REMARK    4  A    between atoms: C_8  and  C_9
REMARK    5  A    between atoms: C_13  and  C_14
REMARK                            x       y       z     vdW  Elec       q    Type
REMARK                         _______ _______ _______ _____ _____    ______ ____
ROOT
ATOM      1  C   UNL     1      48.684   7.335  14.007  0.00  0.00    +0.000 A 
ATOM      2  C   UNL     1      49.493   7.740  12.936  0.00  0.00    +0.000 A 
ATOM      3  C   UNL     1      49.050   7.649  11.616  0.00  0.00    +0.000 A 
ATOM      4  C   UNL     1      47.789   7.118  11.340  0.00  0.00    +0.000 A 
ATOM      5  C   UNL     1      46.946   6.680  12.372  0.00  0.00    +0.000 A 
ATOM      6  C   UNL     1      47.400   6.851  13.693  0.00  0.00    +0.000 A 
ENDROOT
BRANCH   5   7
ATOM      7  C   UNL     1      45.682   5.958  12.101  0.00  0.00    +0.000 A 
ATOM      8  C   UNL     1      44.687   5.857  13.093  0.00  0.00    +0.000 A 
ATOM      9  C   UNL     1      43.443   5.281  12.825  0.00  0.00    +0.000 A 
ATOM     10  C   UNL     1      43.162   4.796  11.552  0.00  0.00    +0.000 A 
ATOM     11  C   UNL     1      44.130   4.868  10.555  0.00  0.00    +0.000 A 
ATOM     12  C   UNL     1      45.379   5.434  10.831  0.00  0.00    +0.000 A 
ENDBRANCH   5   7
BRANCH   1  13
ATOM     13  C   UNL     1      49.198   7.343  15.436  0.00  0.00    +0.000 C 
ATOM     14  C   UNL     1      49.903   8.603  15.945  0.00  0.00    +0.000 C 
ATOM     15  C   UNL     1      48.537   8.271  16.439  0.00  0.00    +0.000 C 
BRANCH  13  16
ATOM     16  O   UNL     1      49.881   6.154  15.897  0.00  0.00    +0.000 OA
BRANCH  16  22
ATOM     17  C   UNL     1      48.789   4.444  20.297  0.00  0.00    +0.000 C 
ATOM     18  C   UNL     1      48.627   4.391  18.810  0.00  0.00    +0.000 A 
ATOM     19  C   UNL     1      47.752   3.494  18.197  0.00  0.00    +0.000 A 
ATOM     20  C   UNL     1      47.631   3.522  16.817  0.00  0.00    +0.000 A 
ATOM     21  N   UNL     1      48.308   4.370  16.014  0.00  0.00    +0.000 NA
ATOM     22  C   UNL     1      49.157   5.222  16.623  0.00  0.00    +0.000 A 
ATOM     23  C   UNL     1      49.355   5.260  17.996  0.00  0.00    +0.000 A 
ENDBRANCH  16  22
ENDBRANCH  13  16
ENDBRANCH   1  13
TORSDOF 4
ENDMDL
