MODEL 1
REMARK VINA RESULT:    -8.811      0.000      0.000
REMARK INTER + INTRA:         -11.915
REMARK INTER:                 -11.387
REMARK INTRA:                  -0.528
REMARK UNBOUND:                -0.528
REMARK  Name = 
REMARK  5 active torsions:
REMARK  status: ('A' for Active; 'I' for Inactive)
REMARK    1  A    between atoms: C_2  and  C_18
REMARK    2  A    between atoms: N_3  and  C_4
REMARK    3  A    between atoms: C_4  and  C_5
REMARK    4  A    between atoms: C_8  and  C_9
REMARK    5  A    between atoms: C_9  and  C_10
REMARK                            x       y       z     vdW  Elec       q    Type
REMARK                         _______ _______ _______ _____ _____    ______ ____
ROOT
ATOM      1  O   UNL     1      47.104   3.340  14.041  0.00  0.00    +0.000 OA
ATOM      2  C   UNL     1      46.902   4.527  14.281  0.00  0.00    +0.000 C 
ATOM      3  N   UNL     1      45.797   5.240  13.875  0.00  0.00    +0.000 N 
ATOM      4  H   UNL     1      45.635   6.142  14.294  0.00  0.00    +0.000 HD
ENDROOT
BRANCH   2   5
ATOM      5  C   UNL     1      47.733   5.311  15.192  0.00  0.00    +0.000 A 
ATOM      6  C   UNL     1      48.339   6.497  14.817  0.00  0.00    +0.000 A 
ATOM      7  S   UNL     1      49.619   6.921  15.878  0.00  0.00    +0.000 S 
ATOM      8  C   UNL     1      49.289   5.596  16.901  0.00  0.00    +0.000 A 
ATOM      9  N   UNL     1      50.091   5.262  17.949  0.00  0.00    +0.000 NA
ATOM     10  C   UNL     1      49.662   4.262  18.646  0.00  0.00    +0.000 A 
ATOM     11  N   UNL     1      48.478   3.595  18.425  0.00  0.00    +0.000 N 
ATOM     12  C   UNL     1      47.628   3.908  17.389  0.00  0.00    +0.000 A 
ATOM     13  O   UNL     1      46.546   3.355  17.253  0.00  0.00    +0.000 OA
ATOM     14  C   UNL     1      48.143   4.939  16.511  0.00  0.00    +0.000 A 
ATOM     15  H   UNL     1      48.157   2.880  19.059  0.00  0.00    +0.000 HD
ENDBRANCH   2   5
BRANCH   3  16
ATOM     16  C   UNL     1      44.602   4.602  13.370  0.00  0.00    +0.000 C 
BRANCH  16  17
ATOM     17  C   UNL     1      44.692   4.373  11.870  0.00  0.00    +0.000 A 
ATOM     18  N   UNL     1      44.146   3.241  11.371  0.00  0.00    +0.000 NA
ATOM     19  C   UNL     1      44.274   3.049  10.041  0.00  0.00    +0.000 A 
ATOM     20  C   UNL     1      44.940   3.917   9.197  0.00  0.00    +0.000 A 
ATOM     21  C   UNL     1      45.489   5.015   9.822  0.00  0.00    +0.000 A 
ATOM     22  N   UNL     1      45.384   5.265  11.140  0.00  0.00    +0.000 NA
BRANCH  20  23
ATOM     23  C   UNL     1      45.074   3.691   7.723  0.00  0.00    +0.000 C 
BRANCH  23  24
ATOM     24  C   UNL     1      46.408   3.045   7.281  0.00  0.00    +0.000 C 
ATOM     25  C   UNL     1      46.598   3.120   5.756  0.00  0.00    +0.000 C 
ATOM     26  C   UNL     1      47.671   2.170   5.243  0.00  0.00    +0.000 C 
ATOM     27  O   UNL     1      47.430   0.845   5.703  0.00  0.00    +0.000 OA
ATOM     28  C   UNL     1      47.539   0.761   7.119  0.00  0.00    +0.000 C 
ATOM     29  C   UNL     1      46.449   1.589   7.783  0.00  0.00    +0.000 C 
ENDBRANCH  23  24
ENDBRANCH  20  23
ENDBRANCH  16  17
ENDBRANCH   3  16
TORSDOF 5
ENDMDL
MODEL 2
REMARK VINA RESULT:    -8.203      1.590      2.441
REMARK INTER + INTRA:         -11.129
REMARK INTER:                 -10.406
REMARK INTRA:                  -0.723
REMARK UNBOUND:                -0.528
REMARK  Name = 
REMARK  5 active torsions:
REMARK  status: ('A' for Active; 'I' for Inactive)
REMARK    1  A    between atoms: C_2  and  C_18
REMARK    2  A    between atoms: N_3  and  C_4
REMARK    3  A    between atoms: C_4  and  C_5
REMARK    4  A    between atoms: C_8  and  C_9
REMARK    5  A    between atoms: C_9  and  C_10
REMARK                            x       y       z     vdW  Elec       q    Type
REMARK                         _______ _______ _______ _____ _____    ______ ____
ROOT
ATOM      1  O   UNL     1      46.278   3.543  13.769  0.00  0.00    +0.000 OA
ATOM      2  C   UNL     1      46.519   4.711  14.062  0.00  0.00    +0.000 C 
ATOM      3  N   UNL     1      45.792   5.799  13.637  0.00  0.00    +0.000 N 
ATOM      4  H   UNL     1      45.950   6.683  14.095  0.00  0.00    +0.000 HD
ENDROOT
BRANCH   2   5
ATOM      5  C   UNL     1      47.518   5.096  15.055  0.00  0.00    +0.000 A 
ATOM      6  C   UNL     1      47.606   4.495  16.299  0.00  0.00    +0.000 A 
ATOM      7  S   UNL     1      48.500   5.453  17.407  0.00  0.00    +0.000 S 
ATOM      8  C   UNL     1      48.872   6.604  16.203  0.00  0.00    +0.000 A 
ATOM      9  N   UNL     1      49.504   7.777  16.481  0.00  0.00    +0.000 NA
ATOM     10  C   UNL     1      49.750   8.505  15.442  0.00  0.00    +0.000 A 
ATOM     11  N   UNL     1      49.471   8.147  14.143  0.00  0.00    +0.000 N 
ATOM     12  C   UNL     1      48.849   6.964  13.812  0.00  0.00    +0.000 A 
ATOM     13  O   UNL     1      48.676   6.629  12.649  0.00  0.00    +0.000 OA
ATOM     14  C   UNL     1      48.442   6.185  14.964  0.00  0.00    +0.000 A 
ATOM     15  H   UNL     1      49.769   8.720  13.369  0.00  0.00    +0.000 HD
ENDBRANCH   2   5
BRANCH   3  16
ATOM     16  C   UNL     1      44.482   5.674  13.037  0.00  0.00    +0.000 C 
BRANCH  16  17
ATOM     17  C   UNL     1      44.577   5.152  11.613  0.00  0.00    +0.000 A 
ATOM     18  N   UNL     1      43.868   4.043  11.300  0.00  0.00    +0.000 NA
ATOM     19  C   UNL     1      44.002   3.582  10.038  0.00  0.00    +0.000 A 
ATOM     20  C   UNL     1      44.825   4.159   9.090  0.00  0.00    +0.000 A 
ATOM     21  C   UNL     1      45.527   5.259   9.533  0.00  0.00    +0.000 A 
ATOM     22  N   UNL     1      45.426   5.769  10.773  0.00  0.00    +0.000 NA
BRANCH  20  23
ATOM     23  C   UNL     1      44.963   3.637   7.693  0.00  0.00    +0.000 C 
BRANCH  23  24
ATOM     24  C   UNL     1      46.326   2.976   7.376  0.00  0.00    +0.000 C 
ATOM     25  C   UNL     1      46.649   3.037   5.873  0.00  0.00    +0.000 C 
ATOM     26  C   UNL     1      47.755   2.074   5.464  0.00  0.00    +0.000 C 
ATOM     27  O   UNL     1      47.463   0.755   5.912  0.00  0.00    +0.000 OA
ATOM     28  C   UNL     1      47.446   0.683   7.333  0.00  0.00    +0.000 C 
ATOM     29  C   UNL     1      46.309   1.525   7.892  0.00  0.00    +0.000 C 
ENDBRANCH  23  24
ENDBRANCH  20  23
ENDBRANCH  16  17
ENDBRANCH   3  16
TORSDOF 5
ENDMDL
MODEL 3
REMARK VINA RESULT:    -7.170      2.428      3.388
REMARK INTER + INTRA:          -9.794
REMARK INTER:                  -9.435
REMARK INTRA:                  -0.359
REMARK UNBOUND:                -0.528
REMARK  Name = 
REMARK  5 active torsions:
REMARK  status: ('A' for Active; 'I' for Inactive)
REMARK    1  A    between atoms: C_2  and  C_18
REMARK    2  A    between atoms: N_3  and  C_4
REMARK    3  A    between atoms: C_4  and  C_5
REMARK    4  A    between atoms: C_8  and  C_9
REMARK    5  A    between atoms: C_9  and  C_10
REMARK                            x       y       z     vdW  Elec       q    Type
REMARK                         _______ _______ _______ _____ _____    ______ ____
ROOT
ATOM      1  O   UNL     1      49.893   5.429  16.380  0.00  0.00    +0.000 OA
ATOM      2  C   UNL     1      48.838   6.057  16.374  0.00  0.00    +0.000 C 
ATOM      3  N   UNL     1      47.745   5.763  15.592  0.00  0.00    +0.000 N 
ATOM      4  H   UNL     1      46.871   6.213  15.811  0.00  0.00    +0.000 HD
ENDROOT
BRANCH   2   5
ATOM      5  C   UNL     1      48.533   7.114  17.335  0.00  0.00    +0.000 A 
ATOM      6  C   UNL     1      48.949   8.423  17.165  0.00  0.00    +0.000 A 
ATOM      7  S   UNL     1      48.895   9.304  18.636  0.00  0.00    +0.000 S 
ATOM      8  C   UNL     1      48.206   7.985  19.470  0.00  0.00    +0.000 A 
ATOM      9  N   UNL     1      48.014   7.990  20.818  0.00  0.00    +0.000 NA
ATOM     10  C   UNL     1      47.435   6.928  21.274  0.00  0.00    +0.000 A 
ATOM     11  N   UNL     1      46.980   5.883  20.502  0.00  0.00    +0.000 N 
ATOM     12  C   UNL     1      47.136   5.843  19.135  0.00  0.00    +0.000 A 
ATOM     13  O   UNL     1      46.660   4.943  18.458  0.00  0.00    +0.000 OA
ATOM     14  C   UNL     1      47.898   6.956  18.608  0.00  0.00    +0.000 A 
ATOM     15  H   UNL     1      46.456   5.124  20.909  0.00  0.00    +0.000 HD
ENDBRANCH   2   5
BRANCH   3  16
ATOM     16  C   UNL     1      47.601   4.501  14.901  0.00  0.00    +0.000 C 
BRANCH  16  17
ATOM     17  C   UNL     1      46.708   4.641  13.680  0.00  0.00    +0.000 A 
ATOM     18  N   UNL     1      46.832   5.761  12.932  0.00  0.00    +0.000 NA
ATOM     19  C   UNL     1      45.999   5.874  11.876  0.00  0.00    +0.000 A 
ATOM     20  C   UNL     1      45.037   4.937  11.550  0.00  0.00    +0.000 A 
ATOM     21  C   UNL     1      44.975   3.857  12.404  0.00  0.00    +0.000 A 
ATOM     22  N   UNL     1      45.786   3.686  13.464  0.00  0.00    +0.000 NA
BRANCH  20  23
ATOM     23  C   UNL     1      44.119   5.074  10.374  0.00  0.00    +0.000 C 
BRANCH  23  24
ATOM     24  C   UNL     1      44.369   4.063   9.230  0.00  0.00    +0.000 C 
ATOM     25  C   UNL     1      44.400   2.615   9.749  0.00  0.00    +0.000 C 
ATOM     26  C   UNL     1      45.025   1.642   8.758  0.00  0.00    +0.000 C 
ATOM     27  O   UNL     1      46.303   2.105   8.339  0.00  0.00    +0.000 OA
ATOM     28  C   UNL     1      46.200   3.324   7.612  0.00  0.00    +0.000 C 
ATOM     29  C   UNL     1      45.681   4.434   8.513  0.00  0.00    +0.000 C 
ENDBRANCH  23  24
ENDBRANCH  20  23
ENDBRANCH  16  17
ENDBRANCH   3  16
TORSDOF 5
ENDMDL
MODEL 4
REMARK VINA RESULT:    -7.098      3.187      4.562
REMARK INTER + INTRA:          -9.701
REMARK INTER:                  -8.509
REMARK INTRA:                  -1.191
REMARK UNBOUND:                -0.528
REMARK  Name = 
REMARK  5 active torsions:
REMARK  status: ('A' for Active; 'I' for Inactive)
REMARK    1  A    between atoms: C_2  and  C_18
REMARK    2  A    between atoms: N_3  and  C_4
REMARK    3  A    between atoms: C_4  and  C_5
REMARK    4  A    between atoms: C_8  and  C_9
REMARK    5  A    between atoms: C_9  and  C_10
REMARK                            x       y       z     vdW  Elec       q    Type
REMARK                         _______ _______ _______ _____ _____    ______ ____
ROOT
ATOM      1  O   UNL     1      50.655   6.868  15.274  0.00  0.00    +0.000 OA
ATOM      2  C   UNL     1      49.739   7.274  15.984  0.00  0.00    +0.000 C 
ATOM      3  N   UNL     1      48.968   8.384  15.724  0.00  0.00    +0.000 N 
ATOM      4  H   UNL     1      48.123   8.510  16.257  0.00  0.00    +0.000 HD
ENDROOT
BRANCH   2   5
ATOM      5  C   UNL     1      49.221   6.526  17.126  0.00  0.00    +0.000 A 
ATOM      6  C   UNL     1      49.493   6.879  18.437  0.00  0.00    +0.000 A 
ATOM      7  S   UNL     1      49.196   5.582  19.520  0.00  0.00    +0.000 S 
ATOM      8  C   UNL     1      48.594   4.594  18.266  0.00  0.00    +0.000 A 
ATOM      9  N   UNL     1      48.278   3.283  18.455  0.00  0.00    +0.000 NA
ATOM     10  C   UNL     1      47.789   2.702  17.409  0.00  0.00    +0.000 A 
ATOM     11  N   UNL     1      47.536   3.322  16.206  0.00  0.00    +0.000 N 
ATOM     12  C   UNL     1      47.823   4.648  15.976  0.00  0.00    +0.000 A 
ATOM     13  O   UNL     1      47.523   5.200  14.927  0.00  0.00    +0.000 OA
ATOM     14  C   UNL     1      48.493   5.295  17.085  0.00  0.00    +0.000 A 
ATOM     15  H   UNL     1      47.070   2.834  15.457  0.00  0.00    +0.000 HD
ENDBRANCH   2   5
BRANCH   3  16
ATOM     16  C   UNL     1      48.952   9.034  14.432  0.00  0.00    +0.000 C 
BRANCH  16  17
ATOM     17  C   UNL     1      47.960   8.367  13.493  0.00  0.00    +0.000 A 
ATOM     18  N   UNL     1      46.646   8.630  13.675  0.00  0.00    +0.000 NA
ATOM     19  C   UNL     1      45.786   7.994  12.850  0.00  0.00    +0.000 A 
ATOM     20  C   UNL     1      46.176   7.096  11.876  0.00  0.00    +0.000 A 
ATOM     21  C   UNL     1      47.535   6.876  11.808  0.00  0.00    +0.000 A 
ATOM     22  N   UNL     1      48.438   7.489  12.595  0.00  0.00    +0.000 NA
BRANCH  20  23
ATOM     23  C   UNL     1      45.212   6.398  10.966  0.00  0.00    +0.000 C 
BRANCH  23  24
ATOM     24  C   UNL     1      45.119   4.867  11.166  0.00  0.00    +0.000 C 
ATOM     25  C   UNL     1      44.709   4.149   9.868  0.00  0.00    +0.000 C 
ATOM     26  C   UNL     1      44.225   2.725  10.104  0.00  0.00    +0.000 C 
ATOM     27  O   UNL     1      43.203   2.700  11.095  0.00  0.00    +0.000 OA
ATOM     28  C   UNL     1      43.701   3.113  12.362  0.00  0.00    +0.000 C 
ATOM     29  C   UNL     1      44.132   4.571  12.311  0.00  0.00    +0.000 C 
ENDBRANCH  23  24
ENDBRANCH  20  23
ENDBRANCH  16  17
ENDBRANCH   3  16
TORSDOF 5
ENDMDL
MODEL 5
REMARK VINA RESULT:    -7.061      3.082      8.793
REMARK INTER + INTRA:          -9.653
REMARK INTER:                  -9.177
REMARK INTRA:                  -0.476
REMARK UNBOUND:                -0.528
REMARK  Name = 
REMARK  5 active torsions:
REMARK  status: ('A' for Active; 'I' for Inactive)
REMARK    1  A    between atoms: C_2  and  C_18
REMARK    2  A    between atoms: N_3  and  C_4
REMARK    3  A    between atoms: C_4  and  C_5
REMARK    4  A    between atoms: C_8  and  C_9
REMARK    5  A    between atoms: C_9  and  C_10
REMARK                            x       y       z     vdW  Elec       q    Type
REMARK                         _______ _______ _______ _____ _____    ______ ____
ROOT
ATOM      1  O   UNL     1      45.410   7.390  11.574  0.00  0.00    +0.000 OA
ATOM      2  C   UNL     1      45.748   6.209  11.570  0.00  0.00    +0.000 C 
ATOM      3  N   UNL     1      46.942   5.725  12.053  0.00  0.00    +0.000 N 
ATOM      4  H   UNL     1      47.031   4.731  12.186  0.00  0.00    +0.000 HD
ENDROOT
BRANCH   2   5
ATOM      5  C   UNL     1      44.843   5.122  11.207  0.00  0.00    +0.000 A 
ATOM      6  C   UNL     1      43.811   4.702  12.028  0.00  0.00    +0.000 A 
ATOM      7  S   UNL     1      43.253   3.137  11.600  0.00  0.00    +0.000 S 
ATOM      8  C   UNL     1      44.298   3.069  10.253  0.00  0.00    +0.000 A 
ATOM      9  N   UNL     1      44.448   1.945   9.499  0.00  0.00    +0.000 NA
ATOM     10  C   UNL     1      45.242   2.088   8.488  0.00  0.00    +0.000 A 
ATOM     11  N   UNL     1      45.858   3.265   8.129  0.00  0.00    +0.000 N 
ATOM     12  C   UNL     1      45.721   4.429   8.850  0.00  0.00    +0.000 A 
ATOM     13  O   UNL     1      46.216   5.482   8.475  0.00  0.00    +0.000 OA
ATOM     14  C   UNL     1      44.944   4.269  10.062  0.00  0.00    +0.000 A 
ATOM     15  H   UNL     1      46.394   3.333   7.278  0.00  0.00    +0.000 HD
ENDBRANCH   2   5
BRANCH   3  16
ATOM     16  C   UNL     1      47.818   6.512  12.892  0.00  0.00    +0.000 C 
BRANCH  16  17
ATOM     17  C   UNL     1      47.932   5.914  14.284  0.00  0.00    +0.000 A 
ATOM     18  N   UNL     1      47.154   4.846  14.576  0.00  0.00    +0.000 NA
ATOM     19  C   UNL     1      47.250   4.360  15.833  0.00  0.00    +0.000 A 
ATOM     20  C   UNL     1      48.063   4.903  16.809  0.00  0.00    +0.000 A 
ATOM     21  C   UNL     1      48.778   6.011  16.409  0.00  0.00    +0.000 A 
ATOM     22  N   UNL     1      48.732   6.532  15.170  0.00  0.00    +0.000 NA
BRANCH  20  23
ATOM     23  C   UNL     1      48.160   4.353  18.199  0.00  0.00    +0.000 C 
BRANCH  23  24
ATOM     24  C   UNL     1      49.445   3.544  18.492  0.00  0.00    +0.000 C 
ATOM     25  C   UNL     1      50.658   4.464  18.709  0.00  0.00    +0.000 C 
ATOM     26  C   UNL     1      51.988   3.729  18.604  0.00  0.00    +0.000 C 
ATOM     27  O   UNL     1      52.062   2.998  17.386  0.00  0.00    +0.000 OA
ATOM     28  C   UNL     1      51.088   1.961  17.344  0.00  0.00    +0.000 C 
ATOM     29  C   UNL     1      49.686   2.554  17.336  0.00  0.00    +0.000 C 
ENDBRANCH  23  24
ENDBRANCH  20  23
ENDBRANCH  16  17
ENDBRANCH   3  16
TORSDOF 5
ENDMDL
MODEL 6
REMARK VINA RESULT:    -6.903      3.504      5.064
REMARK INTER + INTRA:          -9.449
REMARK INTER:                  -8.689
REMARK INTRA:                  -0.760
REMARK UNBOUND:                -0.528
REMARK  Name = 
REMARK  5 active torsions:
REMARK  status: ('A' for Active; 'I' for Inactive)
REMARK    1  A    between atoms: C_2  and  C_18
REMARK    2  A    between atoms: N_3  and  C_4
REMARK    3  A    between atoms: C_4  and  C_5
REMARK    4  A    between atoms: C_8  and  C_9
REMARK    5  A    between atoms: C_9  and  C_10
REMARK                            x       y       z     vdW  Elec       q    Type
REMARK                         _______ _______ _______ _____ _____    ______ ____
ROOT
ATOM      1  O   UNL     1      48.809   6.396  17.843  0.00  0.00    +0.000 OA
ATOM      2  C   UNL     1      49.866   6.042  17.328  0.00  0.00    +0.000 C 
ATOM      3  N   UNL     1      50.363   6.513  16.135  0.00  0.00    +0.000 N 
ATOM      4  H   UNL     1      51.324   6.309  15.908  0.00  0.00    +0.000 HD
ENDROOT
BRANCH   2   5
ATOM      5  C   UNL     1      50.838   5.189  18.008  0.00  0.00    +0.000 A 
ATOM      6  C   UNL     1      51.874   5.697  18.772  0.00  0.00    +0.000 A 
ATOM      7  S   UNL     1      53.112   4.535  19.019  0.00  0.00    +0.000 S 
ATOM      8  C   UNL     1      52.218   3.324  18.215  0.00  0.00    +0.000 A 
ATOM      9  N   UNL     1      52.735   2.096  17.935  0.00  0.00    +0.000 NA
ATOM     10  C   UNL     1      51.901   1.288  17.367  0.00  0.00    +0.000 A 
ATOM     11  N   UNL     1      50.582   1.574  17.100  0.00  0.00    +0.000 N 
ATOM     12  C   UNL     1      50.011   2.794  17.382  0.00  0.00    +0.000 A 
ATOM     13  O   UNL     1      48.820   3.005  17.207  0.00  0.00    +0.000 OA
ATOM     14  C   UNL     1      50.953   3.766  17.898  0.00  0.00    +0.000 A 
ATOM     15  H   UNL     1      49.959   0.869  16.737  0.00  0.00    +0.000 HD
ENDBRANCH   2   5
BRANCH   3  16
ATOM     16  C   UNL     1      49.845   7.699  15.490  0.00  0.00    +0.000 C 
BRANCH  16  17
ATOM     17  C   UNL     1      48.726   7.355  14.522  0.00  0.00    +0.000 A 
ATOM     18  N   UNL     1      48.710   6.110  13.993  0.00  0.00    +0.000 NA
ATOM     19  C   UNL     1      47.725   5.847  13.107  0.00  0.00    +0.000 A 
ATOM     20  C   UNL     1      46.779   6.771  12.711  0.00  0.00    +0.000 A 
ATOM     21  C   UNL     1      46.917   8.016  13.284  0.00  0.00    +0.000 A 
ATOM     22  N   UNL     1      47.869   8.333  14.180  0.00  0.00    +0.000 NA
BRANCH  20  23
ATOM     23  C   UNL     1      45.691   6.465  11.727  0.00  0.00    +0.000 C 
BRANCH  23  24
ATOM     24  C   UNL     1      45.329   4.966  11.600  0.00  0.00    +0.000 C 
ATOM     25  C   UNL     1      44.846   4.618  10.182  0.00  0.00    +0.000 C 
ATOM     26  C   UNL     1      44.116   3.283  10.114  0.00  0.00    +0.000 C 
ATOM     27  O   UNL     1      43.072   3.233  11.079  0.00  0.00    +0.000 OA
ATOM     28  C   UNL     1      43.588   3.280  12.404  0.00  0.00    +0.000 C 
ATOM     29  C   UNL     1      44.267   4.618  12.660  0.00  0.00    +0.000 C 
ENDBRANCH  23  24
ENDBRANCH  20  23
ENDBRANCH  16  17
ENDBRANCH   3  16
TORSDOF 5
ENDMDL
MODEL 7
REMARK VINA RESULT:    -6.853      3.901      8.645
REMARK INTER + INTRA:          -9.384
REMARK INTER:                  -8.622
REMARK INTRA:                  -0.763
REMARK UNBOUND:                -0.528
REMARK  Name = 
REMARK  5 active torsions:
REMARK  status: ('A' for Active; 'I' for Inactive)
REMARK    1  A    between atoms: C_2  and  C_18
REMARK    2  A    between atoms: N_3  and  C_4
REMARK    3  A    between atoms: C_4  and  C_5
REMARK    4  A    between atoms: C_8  and  C_9
REMARK    5  A    between atoms: C_9  and  C_10
REMARK                            x       y       z     vdW  Elec       q    Type
REMARK                         _______ _______ _______ _____ _____    ______ ____
ROOT
ATOM      1  O   UNL     1      47.346   3.040  13.928  0.00  0.00    +0.000 OA
ATOM      2  C   UNL     1      46.775   4.101  14.167  0.00  0.00    +0.000 C 
ATOM      3  N   UNL     1      46.627   4.656  15.417  0.00  0.00    +0.000 N 
ATOM      4  H   UNL     1      46.326   5.616  15.476  0.00  0.00    +0.000 HD
ENDROOT
BRANCH   2   5
ATOM      5  C   UNL     1      46.320   5.015  13.123  0.00  0.00    +0.000 A 
ATOM      6  C   UNL     1      47.039   6.136  12.745  0.00  0.00    +0.000 A 
ATOM      7  S   UNL     1      46.063   7.261  11.894  0.00  0.00    +0.000 S 
ATOM      8  C   UNL     1      44.721   6.208  11.922  0.00  0.00    +0.000 A 
ATOM      9  N   UNL     1      43.486   6.583  11.485  0.00  0.00    +0.000 NA
ATOM     10  C   UNL     1      42.601   5.643  11.533  0.00  0.00    +0.000 A 
ATOM     11  N   UNL     1      42.845   4.347  11.926  0.00  0.00    +0.000 N 
ATOM     12  C   UNL     1      44.079   3.919  12.358  0.00  0.00    +0.000 A 
ATOM     13  O   UNL     1      44.296   2.747  12.632  0.00  0.00    +0.000 OA
ATOM     14  C   UNL     1      45.062   4.980  12.442  0.00  0.00    +0.000 A 
ATOM     15  H   UNL     1      42.131   3.638  11.856  0.00  0.00    +0.000 HD
ENDBRANCH   2   5
BRANCH   3  16
ATOM     16  C   UNL     1      47.385   4.206  16.562  0.00  0.00    +0.000 C 
BRANCH  16  17
ATOM     17  C   UNL     1      48.726   4.915  16.649  0.00  0.00    +0.000 A 
ATOM     18  N   UNL     1      48.868   6.080  15.977  0.00  0.00    +0.000 NA
ATOM     19  C   UNL     1      50.082   6.667  16.043  0.00  0.00    +0.000 A 
ATOM     20  C   UNL     1      51.159   6.135  16.724  0.00  0.00    +0.000 A 
ATOM     21  C   UNL     1      50.910   4.927  17.338  0.00  0.00    +0.000 A 
ATOM     22  N   UNL     1      49.719   4.301  17.316  0.00  0.00    +0.000 NA
BRANCH  20  23
ATOM     23  C   UNL     1      52.501   6.797  16.789  0.00  0.00    +0.000 C 
BRANCH  23  24
ATOM     24  C   UNL     1      52.950   7.491  15.482  0.00  0.00    +0.000 C 
ATOM     25  C   UNL     1      54.268   6.901  14.949  0.00  0.00    +0.000 C 
ATOM     26  C   UNL     1      54.944   7.792  13.916  0.00  0.00    +0.000 C 
ATOM     27  O   UNL     1      55.095   9.115  14.418  0.00  0.00    +0.000 OA
ATOM     28  C   UNL     1      53.833   9.734  14.638  0.00  0.00    +0.000 C 
ATOM     29  C   UNL     1      53.072   9.005  15.736  0.00  0.00    +0.000 C 
ENDBRANCH  23  24
ENDBRANCH  20  23
ENDBRANCH  16  17
ENDBRANCH   3  16
TORSDOF 5
ENDMDL
MODEL 8
REMARK VINA RESULT:    -6.782      3.246      9.591
REMARK INTER + INTRA:          -9.292
REMARK INTER:                  -8.538
REMARK INTRA:                  -0.754
REMARK UNBOUND:                -0.528
REMARK  Name = 
REMARK  5 active torsions:
REMARK  status: ('A' for Active; 'I' for Inactive)
REMARK    1  A    between atoms: C_2  and  C_18
REMARK    2  A    between atoms: N_3  and  C_4
REMARK    3  A    between atoms: C_4  and  C_5
REMARK    4  A    between atoms: C_8  and  C_9
REMARK    5  A    between atoms: C_9  and  C_10
REMARK                            x       y       z     vdW  Elec       q    Type
REMARK                         _______ _______ _______ _____ _____    ______ ____
ROOT
ATOM      1  O   UNL     1      45.483   7.954  11.525  0.00  0.00    +0.000 OA
ATOM      2  C   UNL     1      45.717   6.748  11.531  0.00  0.00    +0.000 C 
ATOM      3  N   UNL     1      46.894   6.172  11.952  0.00  0.00    +0.000 N 
ATOM      4  H   UNL     1      46.905   5.176  12.105  0.00  0.00    +0.000 HD
ENDROOT
BRANCH   2   5
ATOM      5  C   UNL     1      44.702   5.736  11.250  0.00  0.00    +0.000 A 
ATOM      6  C   UNL     1      43.572   5.574  12.033  0.00  0.00    +0.000 A 
ATOM      7  S   UNL     1      42.841   4.041  11.785  0.00  0.00    +0.000 S 
ATOM      8  C   UNL     1      43.954   3.644  10.554  0.00  0.00    +0.000 A 
ATOM      9  N   UNL     1      44.003   2.409   9.982  0.00  0.00    +0.000 NA
ATOM     10  C   UNL     1      44.872   2.301   9.032  0.00  0.00    +0.000 A 
ATOM     11  N   UNL     1      45.661   3.326   8.562  0.00  0.00    +0.000 N 
ATOM     12  C   UNL     1      45.633   4.594   9.097  0.00  0.00    +0.000 A 
ATOM     13  O   UNL     1      46.286   5.510   8.619  0.00  0.00    +0.000 OA
ATOM     14  C   UNL     1      44.764   4.714  10.250  0.00  0.00    +0.000 A 
ATOM     15  H   UNL     1      46.256   3.199   7.758  0.00  0.00    +0.000 HD
ENDBRANCH   2   5
BRANCH   3  16
ATOM     16  C   UNL     1      47.884   6.897  12.717  0.00  0.00    +0.000 C 
BRANCH  16  17
ATOM     17  C   UNL     1      48.111   6.253  14.074  0.00  0.00    +0.000 A 
ATOM     18  N   UNL     1      47.309   5.222  14.425  0.00  0.00    +0.000 NA
ATOM     19  C   UNL     1      47.510   4.696  15.652  0.00  0.00    +0.000 A 
ATOM     20  C   UNL     1      48.452   5.166  16.547  0.00  0.00    +0.000 A 
ATOM     21  C   UNL     1      49.183   6.243  16.098  0.00  0.00    +0.000 A 
ATOM     22  N   UNL     1      49.035   6.802  14.883  0.00  0.00    +0.000 NA
BRANCH  20  23
ATOM     23  C   UNL     1      48.665   4.572  17.906  0.00  0.00    +0.000 C 
BRANCH  23  24
ATOM     24  C   UNL     1      48.753   5.599  19.060  0.00  0.00    +0.000 C 
ATOM     25  C   UNL     1      49.661   5.097  20.196  0.00  0.00    +0.000 C 
ATOM     26  C   UNL     1      49.468   5.869  21.495  0.00  0.00    +0.000 C 
ATOM     27  O   UNL     1      48.093   5.898  21.860  0.00  0.00    +0.000 OA
ATOM     28  C   UNL     1      47.319   6.620  20.909  0.00  0.00    +0.000 C 
ATOM     29  C   UNL     1      47.331   5.904  19.566  0.00  0.00    +0.000 C 
ENDBRANCH  23  24
ENDBRANCH  20  23
ENDBRANCH  16  17
ENDBRANCH   3  16
TORSDOF 5
ENDMDL
MODEL 9
REMARK VINA RESULT:    -6.653      3.895     10.193
REMARK INTER + INTRA:          -9.126
REMARK INTER:                  -8.374
REMARK INTRA:                  -0.752
REMARK UNBOUND:                -0.528
REMARK  Name = 
REMARK  5 active torsions:
REMARK  status: ('A' for Active; 'I' for Inactive)
REMARK    1  A    between atoms: C_2  and  C_18
REMARK    2  A    between atoms: N_3  and  C_4
REMARK    3  A    between atoms: C_4  and  C_5
REMARK    4  A    between atoms: C_8  and  C_9
REMARK    5  A    between atoms: C_9  and  C_10
REMARK                            x       y       z     vdW  Elec       q    Type
REMARK                         _______ _______ _______ _____ _____    ______ ____
ROOT
ATOM      1  O   UNL     1      47.693   3.169  13.877  0.00  0.00    +0.000 OA
ATOM      2  C   UNL     1      46.908   4.056  14.199  0.00  0.00    +0.000 C 
ATOM      3  N   UNL     1      46.573   4.386  15.492  0.00  0.00    +0.000 N 
ATOM      4  H   UNL     1      46.082   5.252  15.648  0.00  0.00    +0.000 HD
ENDROOT
BRANCH   2   5
ATOM      5  C   UNL     1      46.348   5.011  13.246  0.00  0.00    +0.000 A 
ATOM      6  C   UNL     1      46.936   6.236  12.981  0.00  0.00    +0.000 A 
ATOM      7  S   UNL     1      45.836   7.323  12.238  0.00  0.00    +0.000 S 
ATOM      8  C   UNL     1      44.619   6.130  12.159  0.00  0.00    +0.000 A 
ATOM      9  N   UNL     1      43.348   6.406  11.755  0.00  0.00    +0.000 NA
ATOM     10  C   UNL     1      42.572   5.373  11.709  0.00  0.00    +0.000 A 
ATOM     11  N   UNL     1      42.961   4.081  11.976  0.00  0.00    +0.000 N 
ATOM     12  C   UNL     1      44.237   3.752  12.370  0.00  0.00    +0.000 A 
ATOM     13  O   UNL     1      44.584   2.591  12.531  0.00  0.00    +0.000 OA
ATOM     14  C   UNL     1      45.097   4.903  12.560  0.00  0.00    +0.000 A 
ATOM     15  H   UNL     1      42.329   3.307  11.835  0.00  0.00    +0.000 HD
ENDBRANCH   2   5
BRANCH   3  16
ATOM     16  C   UNL     1      47.330   3.924  16.634  0.00  0.00    +0.000 C 
BRANCH  16  17
ATOM     17  C   UNL     1      47.822   5.089  17.476  0.00  0.00    +0.000 A 
ATOM     18  N   UNL     1      47.482   5.109  18.785  0.00  0.00    +0.000 NA
ATOM     19  C   UNL     1      47.903   6.176  19.498  0.00  0.00    +0.000 A 
ATOM     20  C   UNL     1      48.621   7.227  18.961  0.00  0.00    +0.000 A 
ATOM     21  C   UNL     1      48.875   7.118  17.612  0.00  0.00    +0.000 A 
ATOM     22  N   UNL     1      48.492   6.075  16.853  0.00  0.00    +0.000 NA
BRANCH  20  23
ATOM     23  C   UNL     1      49.081   8.404  19.764  0.00  0.00    +0.000 C 
BRANCH  23  24
ATOM     24  C   UNL     1      47.970   9.122  20.566  0.00  0.00    +0.000 C 
ATOM     25  C   UNL     1      46.910   9.741  19.638  0.00  0.00    +0.000 C 
ATOM     26  C   UNL     1      46.036  10.772  20.339  0.00  0.00    +0.000 C 
ATOM     27  O   UNL     1      46.839  11.752  20.987  0.00  0.00    +0.000 OA
ATOM     28  C   UNL     1      47.609  11.177  22.038  0.00  0.00    +0.000 C 
ATOM     29  C   UNL     1      48.616  10.186  21.473  0.00  0.00    +0.000 C 
ENDBRANCH  23  24
ENDBRANCH  20  23
ENDBRANCH  16  17
ENDBRANCH   3  16
TORSDOF 5
ENDMDL
