MODEL 1
REMARK VINA RESULT:    -6.802      0.000      0.000
REMARK INTER + INTRA:         -10.070
REMARK INTER:                  -9.387
REMARK INTRA:                  -0.682
REMARK UNBOUND:                -0.682
REMARK  Name = 
REMARK  7 active torsions:
REMARK  status: ('A' for Active; 'I' for Inactive)
REMARK    1  A    between atoms: C_2  and  C_3
REMARK    2  A    between atoms: C_8  and  C_9
REMARK    3  A    between atoms: C_9  and  C_10
REMARK    4  A    between atoms: C_10  and  O_11
REMARK    5  A    between atoms: O_11  and  C_12
REMARK    6  A    between atoms: C_16  and  C_17
REMARK    7  A    between atoms: C_17  and  N_18
REMARK                            x       y       z     vdW  Elec       q    Type
REMARK                         _______ _______ _______ _____ _____    ______ ____
ROOT
ATOM      1  C   UNL     1      43.525   4.640  10.590  0.00  0.00    +0.000 C 
ENDROOT
BRANCH   1   2
ATOM      2  C   UNL     1      43.710   5.890  11.453  0.00  0.00    +0.000 C 
BRANCH   2   8
ATOM      3  C   UNL     1      46.657   5.134  13.771  0.00  0.00    +0.000 A 
ATOM      4  C   UNL     1      47.662   5.929  13.212  0.00  0.00    +0.000 A 
ATOM      5  C   UNL     1      47.376   6.711  12.094  0.00  0.00    +0.000 A 
ATOM      6 CL   UNL     1      48.615   7.683  11.396  0.00  0.00    +0.000 Cl
ATOM      7  C   UNL     1      46.100   6.709  11.530  0.00  0.00    +0.000 A 
ATOM      8  C   UNL     1      45.082   5.923  12.085  0.00  0.00    +0.000 A 
ATOM      9  C   UNL     1      45.372   5.131  13.208  0.00  0.00    +0.000 A 
BRANCH   3  11
ATOM     10  N   UNL     1      47.173   3.662  15.845  0.00  0.00    +0.000 NA
ATOM     11  C   UNL     1      46.943   4.320  14.915  0.00  0.00    +0.000 C 
ENDBRANCH   3  11
ENDBRANCH   2   8
ENDBRANCH   1   2
BRANCH   1  12
ATOM     12  O   UNL     1      44.201   4.805   9.339  0.00  0.00    +0.000 OA
BRANCH  12  13
ATOM     13  C   UNL     1      44.883   3.704   8.882  0.00  0.00    +0.000 A 
ATOM     14  C   UNL     1      44.707   2.397   9.346  0.00  0.00    +0.000 A 
ATOM     15  C   UNL     1      45.442   1.348   8.792  0.00  0.00    +0.000 A 
ATOM     16  C   UNL     1      46.348   1.593   7.764  0.00  0.00    +0.000 A 
ATOM     17  C   UNL     1      46.537   2.894   7.276  0.00  0.00    +0.000 A 
ATOM     18  C   UNL     1      45.808   3.946   7.860  0.00  0.00    +0.000 A 
BRANCH  17  19
ATOM     19  C   UNL     1      47.435   3.133   6.089  0.00  0.00    +0.000 C 
BRANCH  19  20
ATOM     20  N   UNL     1      48.737   2.492   6.236  0.00  0.00    +0.000 NA
ATOM     21  H   UNL     1      48.700   1.852   7.027  0.00  0.00    +0.000 HD
ATOM     22  H   UNL     1      49.429   3.201   6.471  0.00  0.00    +0.000 HD
ENDBRANCH  19  20
ENDBRANCH  17  19
ENDBRANCH  12  13
ENDBRANCH   1  12
TORSDOF 7
ENDMDL
MODEL 2
REMARK VINA RESULT:    -6.059      1.793      2.625
REMARK INTER + INTRA:          -9.043
REMARK INTER:                  -8.502
REMARK INTRA:                  -0.541
REMARK UNBOUND:                -0.682
REMARK  Name = 
REMARK  7 active torsions:
REMARK  status: ('A' for Active; 'I' for Inactive)
REMARK    1  A    between atoms: C_2  and  C_3
REMARK    2  A    between atoms: C_8  and  C_9
REMARK    3  A    between atoms: C_9  and  C_10
REMARK    4  A    between atoms: C_10  and  O_11
REMARK    5  A    between atoms: O_11  and  C_12
REMARK    6  A    between atoms: C_16  and  C_17
REMARK    7  A    between atoms: C_17  and  N_18
REMARK                            x       y       z     vdW  Elec       q    Type
REMARK                         _______ _______ _______ _____ _____    ______ ____
ROOT
ATOM      1  C   UNL     1      45.274   6.196  12.284  0.00  0.00    +0.000 C 
ENDROOT
BRANCH   1   2
ATOM      2  C   UNL     1      46.801   6.111  12.227  0.00  0.00    +0.000 C 
BRANCH   2   8
ATOM      3  C   UNL     1      47.581   4.891  15.768  0.00  0.00    +0.000 A 
ATOM      4  C   UNL     1      48.568   5.799  16.164  0.00  0.00    +0.000 A 
ATOM      5  C   UNL     1      48.968   6.804  15.286  0.00  0.00    +0.000 A 
ATOM      6 CL   UNL     1      50.192   7.916  15.766  0.00  0.00    +0.000 Cl
ATOM      7  C   UNL     1      48.393   6.915  14.019  0.00  0.00    +0.000 A 
ATOM      8  C   UNL     1      47.397   6.017  13.613  0.00  0.00    +0.000 A 
ATOM      9  C   UNL     1      46.999   5.000  14.496  0.00  0.00    +0.000 A 
BRANCH   3  11
ATOM     10  N   UNL     1      46.836   3.005  17.387  0.00  0.00    +0.000 NA
ATOM     11  C   UNL     1      47.170   3.849  16.660  0.00  0.00    +0.000 C 
ENDBRANCH   3  11
ENDBRANCH   2   8
ENDBRANCH   1   2
BRANCH   1  12
ATOM     12  O   UNL     1      44.728   6.082  10.966  0.00  0.00    +0.000 OA
BRANCH  12  13
ATOM     13  C   UNL     1      44.689   4.811  10.447  0.00  0.00    +0.000 A 
ATOM     14  C   UNL     1      44.065   3.713  11.048  0.00  0.00    +0.000 A 
ATOM     15  C   UNL     1      44.070   2.468  10.417  0.00  0.00    +0.000 A 
ATOM     16  C   UNL     1      44.684   2.312   9.177  0.00  0.00    +0.000 A 
ATOM     17  C   UNL     1      45.309   3.400   8.550  0.00  0.00    +0.000 A 
ATOM     18  C   UNL     1      45.319   4.643   9.208  0.00  0.00    +0.000 A 
BRANCH  17  19
ATOM     19  C   UNL     1      45.872   3.250   7.160  0.00  0.00    +0.000 C 
BRANCH  19  20
ATOM     20  N   UNL     1      46.902   4.240   6.865  0.00  0.00    +0.000 NA
ATOM     21  H   UNL     1      47.776   3.943   7.295  0.00  0.00    +0.000 HD
ATOM     22  H   UNL     1      46.648   5.121   7.308  0.00  0.00    +0.000 HD
ENDBRANCH  19  20
ENDBRANCH  17  19
ENDBRANCH  12  13
ENDBRANCH   1  12
TORSDOF 7
ENDMDL
MODEL 3
REMARK VINA RESULT:    -5.863      4.427      6.506
REMARK INTER + INTRA:          -8.774
REMARK INTER:                  -8.386
REMARK INTRA:                  -0.388
REMARK UNBOUND:                -0.682
REMARK  Name = 
REMARK  7 active torsions:
REMARK  status: ('A' for Active; 'I' for Inactive)
REMARK    1  A    between atoms: C_2  and  C_3
REMARK    2  A    between atoms: C_8  and  C_9
REMARK    3  A    between atoms: C_9  and  C_10
REMARK    4  A    between atoms: C_10  and  O_11
REMARK    5  A    between atoms: O_11  and  C_12
REMARK    6  A    between atoms: C_16  and  C_17
REMARK    7  A    between atoms: C_17  and  N_18
REMARK                            x       y       z     vdW  Elec       q    Type
REMARK                         _______ _______ _______ _____ _____    ______ ____
ROOT
ATOM      1  C   UNL     1      47.347   3.832  15.832  0.00  0.00    +0.000 C 
ENDROOT
BRANCH   1   2
ATOM      2  C   UNL     1      47.872   2.837  16.869  0.00  0.00    +0.000 C 
BRANCH   2   8
ATOM      3  C   UNL     1      51.600   2.368  17.587  0.00  0.00    +0.000 A 
ATOM      4  C   UNL     1      52.005   3.686  17.824  0.00  0.00    +0.000 A 
ATOM      5  C   UNL     1      51.068   4.714  17.759  0.00  0.00    +0.000 A 
ATOM      6 CL   UNL     1      51.566   6.339  18.039  0.00  0.00    +0.000 Cl
ATOM      7  C   UNL     1      49.732   4.444  17.461  0.00  0.00    +0.000 A 
ATOM      8  C   UNL     1      49.311   3.127  17.229  0.00  0.00    +0.000 A 
ATOM      9  C   UNL     1      50.258   2.092  17.290  0.00  0.00    +0.000 A 
BRANCH   3  11
ATOM     10  N   UNL     1      53.336   0.442  17.686  0.00  0.00    +0.000 NA
ATOM     11  C   UNL     1      52.558   1.305  17.644  0.00  0.00    +0.000 C 
ENDBRANCH   3  11
ENDBRANCH   2   8
ENDBRANCH   1   2
BRANCH   1  12
ATOM     12  O   UNL     1      47.361   3.237  14.530  0.00  0.00    +0.000 OA
BRANCH  12  13
ATOM     13  C   UNL     1      46.731   3.954  13.543  0.00  0.00    +0.000 A 
ATOM     14  C   UNL     1      47.012   5.281  13.206  0.00  0.00    +0.000 A 
ATOM     15  C   UNL     1      46.321   5.905  12.166  0.00  0.00    +0.000 A 
ATOM     16  C   UNL     1      45.356   5.206  11.446  0.00  0.00    +0.000 A 
ATOM     17  C   UNL     1      45.062   3.871  11.760  0.00  0.00    +0.000 A 
ATOM     18  C   UNL     1      45.747   3.262  12.826  0.00  0.00    +0.000 A 
BRANCH  17  19
ATOM     19  C   UNL     1      44.097   3.088  10.905  0.00  0.00    +0.000 C 
BRANCH  19  20
ATOM     20  N   UNL     1      43.228   2.222  11.694  0.00  0.00    +0.000 NA
ATOM     21  H   UNL     1      42.259   2.419  11.448  0.00  0.00    +0.000 HD
ATOM     22  H   UNL     1      43.329   2.463  12.678  0.00  0.00    +0.000 HD
ENDBRANCH  19  20
ENDBRANCH  17  19
ENDBRANCH  12  13
ENDBRANCH   1  12
TORSDOF 7
ENDMDL
MODEL 4
REMARK VINA RESULT:    -5.817      2.879      4.441
REMARK INTER + INTRA:          -8.709
REMARK INTER:                  -7.737
REMARK INTRA:                  -0.972
REMARK UNBOUND:                -0.682
REMARK  Name = 
REMARK  7 active torsions:
REMARK  status: ('A' for Active; 'I' for Inactive)
REMARK    1  A    between atoms: C_2  and  C_3
REMARK    2  A    between atoms: C_8  and  C_9
REMARK    3  A    between atoms: C_9  and  C_10
REMARK    4  A    between atoms: C_10  and  O_11
REMARK    5  A    between atoms: O_11  and  C_12
REMARK    6  A    between atoms: C_16  and  C_17
REMARK    7  A    between atoms: C_17  and  N_18
REMARK                            x       y       z     vdW  Elec       q    Type
REMARK                         _______ _______ _______ _____ _____    ______ ____
ROOT
ATOM      1  C   UNL     1      46.873   4.115  13.837  0.00  0.00    +0.000 C 
ENDROOT
BRANCH   1   2
ATOM      2  C   UNL     1      47.432   5.356  14.534  0.00  0.00    +0.000 C 
BRANCH   2   8
ATOM      3  C   UNL     1      46.732   8.521  12.502  0.00  0.00    +0.000 A 
ATOM      4  C   UNL     1      47.938   8.681  11.813  0.00  0.00    +0.000 A 
ATOM      5  C   UNL     1      48.966   7.760  12.004  0.00  0.00    +0.000 A 
ATOM      6 CL   UNL     1      50.456   7.960  11.165  0.00  0.00    +0.000 Cl
ATOM      7  C   UNL     1      48.803   6.680  12.872  0.00  0.00    +0.000 A 
ATOM      8  C   UNL     1      47.597   6.503  13.564  0.00  0.00    +0.000 A 
ATOM      9  C   UNL     1      46.564   7.436  13.375  0.00  0.00    +0.000 A 
BRANCH   3  11
ATOM     10  N   UNL     1      44.817  10.240  12.173  0.00  0.00    +0.000 NA
ATOM     11  C   UNL     1      45.674   9.468  12.320  0.00  0.00    +0.000 C 
ENDBRANCH   3  11
ENDBRANCH   2   8
ENDBRANCH   1   2
BRANCH   1  12
ATOM     12  O   UNL     1      45.457   4.039  14.034  0.00  0.00    +0.000 OA
BRANCH  12  13
ATOM     13  C   UNL     1      44.687   4.412  12.960  0.00  0.00    +0.000 A 
ATOM     14  C   UNL     1      43.535   5.201  13.029  0.00  0.00    +0.000 A 
ATOM     15  C   UNL     1      42.841   5.538  11.866  0.00  0.00    +0.000 A 
ATOM     16  C   UNL     1      43.298   5.102  10.626  0.00  0.00    +0.000 A 
ATOM     17  C   UNL     1      44.456   4.316  10.529  0.00  0.00    +0.000 A 
ATOM     18  C   UNL     1      45.132   3.962  11.711  0.00  0.00    +0.000 A 
BRANCH  17  19
ATOM     19  C   UNL     1      45.006   3.942   9.176  0.00  0.00    +0.000 C 
BRANCH  19  20
ATOM     20  N   UNL     1      45.697   5.052   8.528  0.00  0.00    +0.000 NA
ATOM     21  H   UNL     1      46.699   4.938   8.664  0.00  0.00    +0.000 HD
ATOM     22  H   UNL     1      45.439   5.919   8.996  0.00  0.00    +0.000 HD
ENDBRANCH  19  20
ENDBRANCH  17  19
ENDBRANCH  12  13
ENDBRANCH   1  12
TORSDOF 7
ENDMDL
MODEL 5
REMARK VINA RESULT:    -5.765      1.480      2.135
REMARK INTER + INTRA:          -8.637
REMARK INTER:                  -8.343
REMARK INTRA:                  -0.295
REMARK UNBOUND:                -0.682
REMARK  Name = 
REMARK  7 active torsions:
REMARK  status: ('A' for Active; 'I' for Inactive)
REMARK    1  A    between atoms: C_2  and  C_3
REMARK    2  A    between atoms: C_8  and  C_9
REMARK    3  A    between atoms: C_9  and  C_10
REMARK    4  A    between atoms: C_10  and  O_11
REMARK    5  A    between atoms: O_11  and  C_12
REMARK    6  A    between atoms: C_16  and  C_17
REMARK    7  A    between atoms: C_17  and  N_18
REMARK                            x       y       z     vdW  Elec       q    Type
REMARK                         _______ _______ _______ _____ _____    ______ ____
ROOT
ATOM      1  C   UNL     1      43.911   2.393  10.516  0.00  0.00    +0.000 C 
ENDROOT
BRANCH   1   2
ATOM      2  C   UNL     1      43.162   3.388  11.404  0.00  0.00    +0.000 C 
BRANCH   2   8
ATOM      3  C   UNL     1      45.950   5.043  13.434  0.00  0.00    +0.000 A 
ATOM      4  C   UNL     1      45.889   6.359  12.968  0.00  0.00    +0.000 A 
ATOM      5  C   UNL     1      44.941   6.705  12.007  0.00  0.00    +0.000 A 
ATOM      6 CL   UNL     1      44.871   8.323  11.423  0.00  0.00    +0.000 Cl
ATOM      7  C   UNL     1      44.053   5.752  11.508  0.00  0.00    +0.000 A 
ATOM      8  C   UNL     1      44.097   4.430  11.972  0.00  0.00    +0.000 A 
ATOM      9  C   UNL     1      45.057   4.082  12.936  0.00  0.00    +0.000 A 
BRANCH   3  11
ATOM     10  N   UNL     1      47.718   4.375  15.212  0.00  0.00    +0.000 NA
ATOM     11  C   UNL     1      46.927   4.676  14.415  0.00  0.00    +0.000 C 
ENDBRANCH   3  11
ENDBRANCH   2   8
ENDBRANCH   1   2
BRANCH   1  12
ATOM     12  O   UNL     1      45.285   2.777  10.401  0.00  0.00    +0.000 OA
BRANCH  12  13
ATOM     13  C   UNL     1      45.731   3.014   9.124  0.00  0.00    +0.000 A 
ATOM     14  C   UNL     1      45.793   4.270   8.513  0.00  0.00    +0.000 A 
ATOM     15  C   UNL     1      46.285   4.396   7.213  0.00  0.00    +0.000 A 
ATOM     16  C   UNL     1      46.732   3.275   6.520  0.00  0.00    +0.000 A 
ATOM     17  C   UNL     1      46.688   2.006   7.115  0.00  0.00    +0.000 A 
ATOM     18  C   UNL     1      46.166   1.888   8.415  0.00  0.00    +0.000 A 
BRANCH  17  19
ATOM     19  C   UNL     1      47.276   0.815   6.401  0.00  0.00    +0.000 C 
BRANCH  19  20
ATOM     20  N   UNL     1      48.211   1.200   5.350  0.00  0.00    +0.000 NA
ATOM     21  H   UNL     1      47.713   1.227   4.462  0.00  0.00    +0.000 HD
ATOM     22  H   UNL     1      48.921   0.475   5.258  0.00  0.00    +0.000 HD
ENDBRANCH  19  20
ENDBRANCH  17  19
ENDBRANCH  12  13
ENDBRANCH   1  12
TORSDOF 7
ENDMDL
MODEL 6
REMARK VINA RESULT:    -5.755      4.425      6.447
REMARK INTER + INTRA:          -8.624
REMARK INTER:                  -8.256
REMARK INTRA:                  -0.369
REMARK UNBOUND:                -0.682
REMARK  Name = 
REMARK  7 active torsions:
REMARK  status: ('A' for Active; 'I' for Inactive)
REMARK    1  A    between atoms: C_2  and  C_3
REMARK    2  A    between atoms: C_8  and  C_9
REMARK    3  A    between atoms: C_9  and  C_10
REMARK    4  A    between atoms: C_10  and  O_11
REMARK    5  A    between atoms: O_11  and  C_12
REMARK    6  A    between atoms: C_16  and  C_17
REMARK    7  A    between atoms: C_17  and  N_18
REMARK                            x       y       z     vdW  Elec       q    Type
REMARK                         _______ _______ _______ _____ _____    ______ ____
ROOT
ATOM      1  C   UNL     1      47.266   4.357  15.541  0.00  0.00    +0.000 C 
ENDROOT
BRANCH   1   2
ATOM      2  C   UNL     1      47.560   3.485  16.763  0.00  0.00    +0.000 C 
BRANCH   2   8
ATOM      3  C   UNL     1      51.014   4.736  17.831  0.00  0.00    +0.000 A 
ATOM      4  C   UNL     1      51.747   3.545  17.849  0.00  0.00    +0.000 A 
ATOM      5  C   UNL     1      51.121   2.348  17.507  0.00  0.00    +0.000 A 
ATOM      6 CL   UNL     1      52.019   0.879  17.539  0.00  0.00    +0.000 Cl
ATOM      7  C   UNL     1      49.774   2.326  17.146  0.00  0.00    +0.000 A 
ATOM      8  C   UNL     1      49.029   3.513  17.116  0.00  0.00    +0.000 A 
ATOM      9  C   UNL     1      49.659   4.718  17.467  0.00  0.00    +0.000 A 
BRANCH   3  11
ATOM     10  N   UNL     1      52.161   6.971  18.478  0.00  0.00    +0.000 NA
ATOM     11  C   UNL     1      51.646   5.970  18.190  0.00  0.00    +0.000 C 
ENDBRANCH   3  11
ENDBRANCH   2   8
ENDBRANCH   1   2
BRANCH   1  12
ATOM     12  O   UNL     1      47.041   3.532  14.393  0.00  0.00    +0.000 OA
BRANCH  12  13
ATOM     13  C   UNL     1      46.426   4.148  13.330  0.00  0.00    +0.000 A 
ATOM     14  C   UNL     1      46.703   5.440  12.876  0.00  0.00    +0.000 A 
ATOM     15  C   UNL     1      46.029   5.957  11.768  0.00  0.00    +0.000 A 
ATOM     16  C   UNL     1      45.083   5.185  11.100  0.00  0.00    +0.000 A 
ATOM     17  C   UNL     1      44.793   3.882  11.532  0.00  0.00    +0.000 A 
ATOM     18  C   UNL     1      45.461   3.382  12.664  0.00  0.00    +0.000 A 
BRANCH  17  19
ATOM     19  C   UNL     1      43.852   3.014  10.736  0.00  0.00    +0.000 C 
BRANCH  19  20
ATOM     20  N   UNL     1      43.057   2.130  11.582  0.00  0.00    +0.000 NA
ATOM     21  H   UNL     1      43.686   1.522  12.103  0.00  0.00    +0.000 HD
ATOM     22  H   UNL     1      42.496   1.523  10.988  0.00  0.00    +0.000 HD
ENDBRANCH  19  20
ENDBRANCH  17  19
ENDBRANCH  12  13
ENDBRANCH   1  12
TORSDOF 7
ENDMDL
MODEL 7
REMARK VINA RESULT:    -5.504      2.682      7.233
REMARK INTER + INTRA:          -8.278
REMARK INTER:                  -7.750
REMARK INTRA:                  -0.529
REMARK UNBOUND:                -0.682
REMARK  Name = 
REMARK  7 active torsions:
REMARK  status: ('A' for Active; 'I' for Inactive)
REMARK    1  A    between atoms: C_2  and  C_3
REMARK    2  A    between atoms: C_8  and  C_9
REMARK    3  A    between atoms: C_9  and  C_10
REMARK    4  A    between atoms: C_10  and  O_11
REMARK    5  A    between atoms: O_11  and  C_12
REMARK    6  A    between atoms: C_16  and  C_17
REMARK    7  A    between atoms: C_17  and  N_18
REMARK                            x       y       z     vdW  Elec       q    Type
REMARK                         _______ _______ _______ _____ _____    ______ ____
ROOT
ATOM      1  C   UNL     1      46.068   6.882  12.878  0.00  0.00    +0.000 C 
ENDROOT
BRANCH   1   2
ATOM      2  C   UNL     1      45.529   7.071  11.459  0.00  0.00    +0.000 C 
BRANCH   2   8
ATOM      3  C   UNL     1      45.436   4.180   8.955  0.00  0.00    +0.000 A 
ATOM      4  C   UNL     1      44.670   3.238   9.648  0.00  0.00    +0.000 A 
ATOM      5  C   UNL     1      44.181   3.547  10.915  0.00  0.00    +0.000 A 
ATOM      6 CL   UNL     1      43.246   2.384  11.774  0.00  0.00    +0.000 Cl
ATOM      7  C   UNL     1      44.447   4.787  11.498  0.00  0.00    +0.000 A 
ATOM      8  C   UNL     1      45.207   5.744  10.813  0.00  0.00    +0.000 A 
ATOM      9  C   UNL     1      45.705   5.428   9.538  0.00  0.00    +0.000 A 
BRANCH   3  11
ATOM     10  N   UNL     1      46.366   3.618   6.600  0.00  0.00    +0.000 NA
ATOM     11  C   UNL     1      45.951   3.868   7.656  0.00  0.00    +0.000 C 
ENDBRANCH   3  11
ENDBRANCH   2   8
ENDBRANCH   1   2
BRANCH   1  12
ATOM     12  O   UNL     1      47.376   6.302  12.832  0.00  0.00    +0.000 OA
BRANCH  12  13
ATOM     13  C   UNL     1      48.068   6.303  14.019  0.00  0.00    +0.000 A 
ATOM     14  C   UNL     1      49.149   7.136  14.321  0.00  0.00    +0.000 A 
ATOM     15  C   UNL     1      49.765   7.064  15.571  0.00  0.00    +0.000 A 
ATOM     16  C   UNL     1      49.299   6.171  16.532  0.00  0.00    +0.000 A 
ATOM     17  C   UNL     1      48.211   5.331  16.256  0.00  0.00    +0.000 A 
ATOM     18  C   UNL     1      47.616   5.395  14.984  0.00  0.00    +0.000 A 
BRANCH  17  19
ATOM     19  C   UNL     1      47.644   4.448  17.338  0.00  0.00    +0.000 C 
BRANCH  19  20
ATOM     20  N   UNL     1      46.662   3.498  16.827  0.00  0.00    +0.000 NA
ATOM     21  H   UNL     1      47.112   2.903  16.133  0.00  0.00    +0.000 HD
ATOM     22  H   UNL     1      45.932   4.011  16.336  0.00  0.00    +0.000 HD
ENDBRANCH  19  20
ENDBRANCH  17  19
ENDBRANCH  12  13
ENDBRANCH   1  12
TORSDOF 7
ENDMDL
MODEL 8
REMARK VINA RESULT:    -5.434      2.399      3.233
REMARK INTER + INTRA:          -8.182
REMARK INTER:                  -7.802
REMARK INTRA:                  -0.380
REMARK UNBOUND:                -0.682
REMARK  Name = 
REMARK  7 active torsions:
REMARK  status: ('A' for Active; 'I' for Inactive)
REMARK    1  A    between atoms: C_2  and  C_3
REMARK    2  A    between atoms: C_8  and  C_9
REMARK    3  A    between atoms: C_9  and  C_10
REMARK    4  A    between atoms: C_10  and  O_11
REMARK    5  A    between atoms: O_11  and  C_12
REMARK    6  A    between atoms: C_16  and  C_17
REMARK    7  A    between atoms: C_17  and  N_18
REMARK                            x       y       z     vdW  Elec       q    Type
REMARK                         _______ _______ _______ _____ _____    ______ ____
ROOT
ATOM      1  C   UNL     1      43.917   2.317  10.402  0.00  0.00    +0.000 C 
ENDROOT
BRANCH   1   2
ATOM      2  C   UNL     1      43.222   3.197  11.444  0.00  0.00    +0.000 C 
BRANCH   2   8
ATOM      3  C   UNL     1      44.837   6.624  11.974  0.00  0.00    +0.000 A 
ATOM      4  C   UNL     1      45.808   6.328  12.935  0.00  0.00    +0.000 A 
ATOM      5  C   UNL     1      45.940   5.020  13.398  0.00  0.00    +0.000 A 
ATOM      6 CL   UNL     1      47.129   4.655  14.589  0.00  0.00    +0.000 Cl
ATOM      7  C   UNL     1      45.115   4.006  12.911  0.00  0.00    +0.000 A 
ATOM      8  C   UNL     1      44.142   4.287  11.943  0.00  0.00    +0.000 A 
ATOM      9  C   UNL     1      44.006   5.606  11.481  0.00  0.00    +0.000 A 
BRANCH   3  11
ATOM     10  N   UNL     1      44.564   9.055  11.110  0.00  0.00    +0.000 NA
ATOM     11  C   UNL     1      44.687   7.967  11.499  0.00  0.00    +0.000 C 
ENDBRANCH   3  11
ENDBRANCH   2   8
ENDBRANCH   1   2
BRANCH   1  12
ATOM     12  O   UNL     1      45.297   2.680  10.297  0.00  0.00    +0.000 OA
BRANCH  12  13
ATOM     13  C   UNL     1      45.758   2.900   9.022  0.00  0.00    +0.000 A 
ATOM     14  C   UNL     1      45.848   4.149   8.401  0.00  0.00    +0.000 A 
ATOM     15  C   UNL     1      46.354   4.257   7.104  0.00  0.00    +0.000 A 
ATOM     16  C   UNL     1      46.785   3.122   6.424  0.00  0.00    +0.000 A 
ATOM     17  C   UNL     1      46.713   1.858   7.028  0.00  0.00    +0.000 A 
ATOM     18  C   UNL     1      46.177   1.760   8.325  0.00  0.00    +0.000 A 
BRANCH  17  19
ATOM     19  C   UNL     1      47.284   0.651   6.328  0.00  0.00    +0.000 C 
BRANCH  19  20
ATOM     20  N   UNL     1      47.510   0.885   4.906  0.00  0.00    +0.000 NA
ATOM     21  H   UNL     1      46.702   0.549   4.386  0.00  0.00    +0.000 HD
ATOM     22  H   UNL     1      48.302   0.322   4.602  0.00  0.00    +0.000 HD
ENDBRANCH  19  20
ENDBRANCH  17  19
ENDBRANCH  12  13
ENDBRANCH   1  12
TORSDOF 7
ENDMDL
MODEL 9
REMARK VINA RESULT:    -5.340      4.398      7.604
REMARK INTER + INTRA:          -8.052
REMARK INTER:                  -7.215
REMARK INTRA:                  -0.837
REMARK UNBOUND:                -0.682
REMARK  Name = 
REMARK  7 active torsions:
REMARK  status: ('A' for Active; 'I' for Inactive)
REMARK    1  A    between atoms: C_2  and  C_3
REMARK    2  A    between atoms: C_8  and  C_9
REMARK    3  A    between atoms: C_9  and  C_10
REMARK    4  A    between atoms: C_10  and  O_11
REMARK    5  A    between atoms: O_11  and  C_12
REMARK    6  A    between atoms: C_16  and  C_17
REMARK    7  A    between atoms: C_17  and  N_18
REMARK                            x       y       z     vdW  Elec       q    Type
REMARK                         _______ _______ _______ _____ _____    ______ ____
ROOT
ATOM      1  C   UNL     1      49.428   8.089  15.329  0.00  0.00    +0.000 C 
ENDROOT
BRANCH   1   2
ATOM      2  C   UNL     1      49.380   7.249  14.051  0.00  0.00    +0.000 C 
BRANCH   2   8
ATOM      3  C   UNL     1      46.062   5.668  12.992  0.00  0.00    +0.000 A 
ATOM      4  C   UNL     1      45.296   6.801  12.699  0.00  0.00    +0.000 A 
ATOM      5  C   UNL     1      45.860   8.066  12.838  0.00  0.00    +0.000 A 
ATOM      6 CL   UNL     1      44.916   9.463  12.488  0.00  0.00    +0.000 Cl
ATOM      7  C   UNL     1      47.181   8.215  13.263  0.00  0.00    +0.000 A 
ATOM      8  C   UNL     1      47.963   7.089  13.553  0.00  0.00    +0.000 A 
ATOM      9  C   UNL     1      47.390   5.813  13.419  0.00  0.00    +0.000 A 
BRANCH   3  11
ATOM     10  N   UNL     1      45.023   3.302  12.753  0.00  0.00    +0.000 NA
ATOM     11  C   UNL     1      45.487   4.363  12.862  0.00  0.00    +0.000 C 
ENDBRANCH   3  11
ENDBRANCH   2   8
ENDBRANCH   1   2
BRANCH   1  12
ATOM     12  O   UNL     1      48.771   7.396  16.396  0.00  0.00    +0.000 OA
BRANCH  12  13
ATOM     13  C   UNL     1      49.346   6.208  16.776  0.00  0.00    +0.000 A 
ATOM     14  C   UNL     1      50.697   6.029  17.087  0.00  0.00    +0.000 A 
ATOM     15  C   UNL     1      51.169   4.777  17.483  0.00  0.00    +0.000 A 
ATOM     16  C   UNL     1      50.294   3.698  17.585  0.00  0.00    +0.000 A 
ATOM     17  C   UNL     1      48.933   3.855  17.287  0.00  0.00    +0.000 A 
ATOM     18  C   UNL     1      48.475   5.115  16.864  0.00  0.00    +0.000 A 
BRANCH  17  19
ATOM     19  C   UNL     1      47.974   2.712  17.507  0.00  0.00    +0.000 C 
BRANCH  19  20
ATOM     20  N   UNL     1      46.586   3.153  17.581  0.00  0.00    +0.000 NA
ATOM     21  H   UNL     1      45.993   2.344  17.755  0.00  0.00    +0.000 HD
ATOM     22  H   UNL     1      46.309   3.523  16.674  0.00  0.00    +0.000 HD
ENDBRANCH  19  20
ENDBRANCH  17  19
ENDBRANCH  12  13
ENDBRANCH   1  12
TORSDOF 7
ENDMDL
