MODEL 1
REMARK VINA RESULT:    -7.292      0.000      0.000
REMARK INTER + INTRA:          -9.574
REMARK INTER:                  -8.997
REMARK INTRA:                  -0.577
REMARK UNBOUND:                -0.577
REMARK  Name = 
REMARK  5 active torsions:
REMARK  status: ('A' for Active; 'I' for Inactive)
REMARK    1  A    between atoms: C_1  and  O_2
REMARK    2  A    between atoms: O_2  and  C_3
REMARK    3  A    between atoms: C_7  and  C_8
REMARK    4  A    between atoms: C_8  and  N_9
REMARK    5  A    between atoms: C_10  and  C_12
REMARK                            x       y       z     vdW  Elec       q    Type
REMARK                         _______ _______ _______ _____ _____    ______ ____
ROOT
ATOM      1  N   UNL     1      46.905   4.523  15.903  0.00  0.00    +0.000 N 
ATOM      2  C   UNL     1      46.972   4.243  14.564  0.00  0.00    +0.000 C 
ATOM      3  O   UNL     1      47.259   3.127  14.140  0.00  0.00    +0.000 OA
ATOM      4  H   UNL     1      46.870   5.489  16.209  0.00  0.00    +0.000 HD
ENDROOT
BRANCH   2   5
ATOM      5  C   UNL     1      46.611   5.335  13.649  0.00  0.00    +0.000 A 
ATOM      6  C   UNL     1      47.550   6.314  13.347  0.00  0.00    +0.000 A 
ATOM      7  S   UNL     1      46.990   7.480  12.237  0.00  0.00    +0.000 S 
ATOM      8  C   UNL     1      45.457   6.751  12.160  0.00  0.00    +0.000 A 
ATOM      9  N   UNL     1      44.468   7.281  11.388  0.00  0.00    +0.000 NA
ATOM     10  C   UNL     1      43.346   6.647  11.450  0.00  0.00    +0.000 A 
ATOM     11  N   UNL     1      43.123   5.526  12.208  0.00  0.00    +0.000 N 
ATOM     12  C   UNL     1      44.100   4.933  12.973  0.00  0.00    +0.000 A 
ATOM     13  O   UNL     1      43.884   3.899  13.597  0.00  0.00    +0.000 OA
ATOM     14  C   UNL     1      45.376   5.620  12.956  0.00  0.00    +0.000 A 
ATOM     15  H   UNL     1      42.224   5.070  12.201  0.00  0.00    +0.000 HD
ENDBRANCH   2   5
BRANCH   1  16
ATOM     16  C   UNL     1      47.200   3.537  16.916  0.00  0.00    +0.000 C 
BRANCH  16  21
ATOM     17  C   UNL     1      50.778   2.252  17.300  0.00  0.00    +0.000 A 
ATOM     18  C   UNL     1      51.467   3.439  17.546  0.00  0.00    +0.000 A 
ATOM     19  C   UNL     1      50.775   4.650  17.611  0.00  0.00    +0.000 A 
ATOM     20  C   UNL     1      49.392   4.681  17.427  0.00  0.00    +0.000 A 
ATOM     21  C   UNL     1      48.683   3.498  17.186  0.00  0.00    +0.000 A 
ATOM     22  C   UNL     1      49.390   2.287  17.128  0.00  0.00    +0.000 A 
BRANCH  17  24
ATOM     23  C   UNL     1      52.680   0.866  17.636  0.00  0.00    +0.000 C 
ATOM     24  O   UNL     1      51.336   1.007  17.192  0.00  0.00    +0.000 OA
ENDBRANCH  17  24
ENDBRANCH  16  21
ENDBRANCH   1  16
TORSDOF 4
ENDMDL
MODEL 2
REMARK VINA RESULT:    -6.944      1.249      2.053
REMARK INTER + INTRA:          -9.145
REMARK INTER:                  -8.559
REMARK INTRA:                  -0.585
REMARK UNBOUND:                -0.577
REMARK  Name = 
REMARK  5 active torsions:
REMARK  status: ('A' for Active; 'I' for Inactive)
REMARK    1  A    between atoms: C_1  and  O_2
REMARK    2  A    between atoms: O_2  and  C_3
REMARK    3  A    between atoms: C_7  and  C_8
REMARK    4  A    between atoms: C_8  and  N_9
REMARK    5  A    between atoms: C_10  and  C_12
REMARK                            x       y       z     vdW  Elec       q    Type
REMARK                         _______ _______ _______ _____ _____    ______ ____
ROOT
ATOM      1  N   UNL     1      46.912   4.406  15.869  0.00  0.00    +0.000 N 
ATOM      2  C   UNL     1      46.929   4.158  14.523  0.00  0.00    +0.000 C 
ATOM      3  O   UNL     1      47.255   3.068  14.061  0.00  0.00    +0.000 OA
ATOM      4  H   UNL     1      46.840   5.363  16.199  0.00  0.00    +0.000 HD
ENDROOT
BRANCH   2   5
ATOM      5  C   UNL     1      46.466   5.247  13.651  0.00  0.00    +0.000 A 
ATOM      6  C   UNL     1      47.282   6.351  13.441  0.00  0.00    +0.000 A 
ATOM      7  S   UNL     1      46.619   7.499  12.370  0.00  0.00    +0.000 S 
ATOM      8  C   UNL     1      45.195   6.589  12.188  0.00  0.00    +0.000 A 
ATOM      9  N   UNL     1      44.176   7.034  11.404  0.00  0.00    +0.000 NA
ATOM     10  C   UNL     1      43.142   6.261  11.383  0.00  0.00    +0.000 A 
ATOM     11  N   UNL     1      43.037   5.080  12.072  0.00  0.00    +0.000 N 
ATOM     12  C   UNL     1      44.053   4.572  12.846  0.00  0.00    +0.000 A 
ATOM     13  O   UNL     1      43.947   3.485  13.406  0.00  0.00    +0.000 OA
ATOM     14  C   UNL     1      45.230   5.414  12.920  0.00  0.00    +0.000 A 
ATOM     15  H   UNL     1      42.204   4.516  12.003  0.00  0.00    +0.000 HD
ENDBRANCH   2   5
BRANCH   1  16
ATOM     16  C   UNL     1      47.310   3.419  16.845  0.00  0.00    +0.000 C 
BRANCH  16  21
ATOM     17  C   UNL     1      50.768   4.798  17.707  0.00  0.00    +0.000 A 
ATOM     18  C   UNL     1      51.535   3.634  17.693  0.00  0.00    +0.000 A 
ATOM     19  C   UNL     1      50.942   2.408  17.383  0.00  0.00    +0.000 A 
ATOM     20  C   UNL     1      49.579   2.339  17.090  0.00  0.00    +0.000 A 
ATOM     21  C   UNL     1      48.795   3.500  17.091  0.00  0.00    +0.000 A 
ATOM     22  C   UNL     1      49.405   4.726  17.401  0.00  0.00    +0.000 A 
BRANCH  17  24
ATOM     23  C   UNL     1      50.480   6.782  18.986  0.00  0.00    +0.000 C 
ATOM     24  O   UNL     1      51.219   6.054  18.013  0.00  0.00    +0.000 OA
ENDBRANCH  17  24
ENDBRANCH  16  21
ENDBRANCH   1  16
TORSDOF 4
ENDMDL
MODEL 3
REMARK VINA RESULT:    -6.837      1.772      2.772
REMARK INTER + INTRA:          -9.013
REMARK INTER:                  -8.186
REMARK INTRA:                  -0.826
REMARK UNBOUND:                -0.577
REMARK  Name = 
REMARK  5 active torsions:
REMARK  status: ('A' for Active; 'I' for Inactive)
REMARK    1  A    between atoms: C_1  and  O_2
REMARK    2  A    between atoms: O_2  and  C_3
REMARK    3  A    between atoms: C_7  and  C_8
REMARK    4  A    between atoms: C_8  and  N_9
REMARK    5  A    between atoms: C_10  and  C_12
REMARK                            x       y       z     vdW  Elec       q    Type
REMARK                         _______ _______ _______ _____ _____    ______ ____
ROOT
ATOM      1  N   UNL     1      46.977   4.535  15.946  0.00  0.00    +0.000 N 
ATOM      2  C   UNL     1      47.025   4.285  14.600  0.00  0.00    +0.000 C 
ATOM      3  O   UNL     1      47.258   3.168  14.148  0.00  0.00    +0.000 OA
ATOM      4  H   UNL     1      46.988   5.494  16.276  0.00  0.00    +0.000 HD
ENDROOT
BRANCH   2   5
ATOM      5  C   UNL     1      46.712   5.415  13.714  0.00  0.00    +0.000 A 
ATOM      6  C   UNL     1      45.548   5.389  12.955  0.00  0.00    +0.000 A 
ATOM      7  S   UNL     1      45.309   6.793  12.019  0.00  0.00    +0.000 S 
ATOM      8  C   UNL     1      46.778   7.464  12.551  0.00  0.00    +0.000 A 
ATOM      9  N   UNL     1      47.198   8.676  12.096  0.00  0.00    +0.000 NA
ATOM     10  C   UNL     1      48.346   9.049  12.555  0.00  0.00    +0.000 A 
ATOM     11  N   UNL     1      49.109   8.323  13.433  0.00  0.00    +0.000 N 
ATOM     12  C   UNL     1      48.709   7.113  13.948  0.00  0.00    +0.000 A 
ATOM     13  O   UNL     1      49.390   6.513  14.774  0.00  0.00    +0.000 OA
ATOM     14  C   UNL     1      47.435   6.638  13.447  0.00  0.00    +0.000 A 
ATOM     15  H   UNL     1      49.993   8.678  13.763  0.00  0.00    +0.000 HD
ENDBRANCH   2   5
BRANCH   1  16
ATOM     16  C   UNL     1      47.231   3.513  16.933  0.00  0.00    +0.000 C 
BRANCH  16  21
ATOM     17  C   UNL     1      50.811   2.233  17.308  0.00  0.00    +0.000 A 
ATOM     18  C   UNL     1      51.470   3.389  17.726  0.00  0.00    +0.000 A 
ATOM     19  C   UNL     1      50.755   4.574  17.909  0.00  0.00    +0.000 A 
ATOM     20  C   UNL     1      49.380   4.612  17.672  0.00  0.00    +0.000 A 
ATOM     21  C   UNL     1      48.701   3.459  17.259  0.00  0.00    +0.000 A 
ATOM     22  C   UNL     1      49.431   2.272  17.083  0.00  0.00    +0.000 A 
BRANCH  17  24
ATOM     23  C   UNL     1      52.739   0.855  17.508  0.00  0.00    +0.000 C 
ATOM     24  O   UNL     1      51.395   1.017  17.072  0.00  0.00    +0.000 OA
ENDBRANCH  17  24
ENDBRANCH  16  21
ENDBRANCH   1  16
TORSDOF 4
ENDMDL
MODEL 4
REMARK VINA RESULT:    -6.788      2.875      7.135
REMARK INTER + INTRA:          -8.953
REMARK INTER:                  -8.312
REMARK INTRA:                  -0.640
REMARK UNBOUND:                -0.577
REMARK  Name = 
REMARK  5 active torsions:
REMARK  status: ('A' for Active; 'I' for Inactive)
REMARK    1  A    between atoms: C_1  and  O_2
REMARK    2  A    between atoms: O_2  and  C_3
REMARK    3  A    between atoms: C_7  and  C_8
REMARK    4  A    between atoms: C_8  and  N_9
REMARK    5  A    between atoms: C_10  and  C_12
REMARK                            x       y       z     vdW  Elec       q    Type
REMARK                         _______ _______ _______ _____ _____    ______ ____
ROOT
ATOM      1  N   UNL     1      46.652   6.872  13.605  0.00  0.00    +0.000 N 
ATOM      2  C   UNL     1      47.904   6.358  13.813  0.00  0.00    +0.000 C 
ATOM      3  O   UNL     1      48.666   6.092  12.888  0.00  0.00    +0.000 OA
ATOM      4  H   UNL     1      45.985   6.884  14.369  0.00  0.00    +0.000 HD
ENDROOT
BRANCH   2   5
ATOM      5  C   UNL     1      48.323   6.203  15.214  0.00  0.00    +0.000 A 
ATOM      6  C   UNL     1      49.068   7.206  15.821  0.00  0.00    +0.000 A 
ATOM      7  S   UNL     1      49.431   6.894  17.457  0.00  0.00    +0.000 S 
ATOM      8  C   UNL     1      48.653   5.384  17.399  0.00  0.00    +0.000 A 
ATOM      9  N   UNL     1      48.621   4.572  18.491  0.00  0.00    +0.000 NA
ATOM     10  C   UNL     1      48.028   3.442  18.297  0.00  0.00    +0.000 A 
ATOM     11  N   UNL     1      47.457   3.053  17.112  0.00  0.00    +0.000 N 
ATOM     12  C   UNL     1      47.432   3.854  15.995  0.00  0.00    +0.000 A 
ATOM     13  O   UNL     1      46.865   3.498  14.966  0.00  0.00    +0.000 OA
ATOM     14  C   UNL     1      48.105   5.127  16.153  0.00  0.00    +0.000 A 
ATOM     15  H   UNL     1      46.997   2.159  17.031  0.00  0.00    +0.000 HD
ENDBRANCH   2   5
BRANCH   1  16
ATOM     16  C   UNL     1      46.121   7.108  12.283  0.00  0.00    +0.000 C 
BRANCH  16  21
ATOM     17  C   UNL     1      44.067   4.459  10.450  0.00  0.00    +0.000 A 
ATOM     18  C   UNL     1      43.131   4.118  11.427  0.00  0.00    +0.000 A 
ATOM     19  C   UNL     1      43.149   4.759  12.667  0.00  0.00    +0.000 A 
ATOM     20  C   UNL     1      44.103   5.740  12.939  0.00  0.00    +0.000 A 
ATOM     21  C   UNL     1      45.045   6.100  11.968  0.00  0.00    +0.000 A 
ATOM     22  C   UNL     1      45.014   5.451  10.724  0.00  0.00    +0.000 A 
BRANCH  17  24
ATOM     23  C   UNL     1      44.851   2.650   9.122  0.00  0.00    +0.000 C 
ATOM     24  O   UNL     1      44.171   3.896   9.207  0.00  0.00    +0.000 OA
ENDBRANCH  17  24
ENDBRANCH  16  21
ENDBRANCH   1  16
TORSDOF 4
ENDMDL
MODEL 5
REMARK VINA RESULT:    -6.779      2.289      2.952
REMARK INTER + INTRA:          -8.942
REMARK INTER:                  -8.281
REMARK INTRA:                  -0.661
REMARK UNBOUND:                -0.577
REMARK  Name = 
REMARK  5 active torsions:
REMARK  status: ('A' for Active; 'I' for Inactive)
REMARK    1  A    between atoms: C_1  and  O_2
REMARK    2  A    between atoms: O_2  and  C_3
REMARK    3  A    between atoms: C_7  and  C_8
REMARK    4  A    between atoms: C_8  and  N_9
REMARK    5  A    between atoms: C_10  and  C_12
REMARK                            x       y       z     vdW  Elec       q    Type
REMARK                         _______ _______ _______ _____ _____    ______ ____
ROOT
ATOM      1  N   UNL     1      47.656   6.387  14.864  0.00  0.00    +0.000 N 
ATOM      2  C   UNL     1      47.761   6.203  13.511  0.00  0.00    +0.000 C 
ATOM      3  O   UNL     1      48.845   6.080  12.948  0.00  0.00    +0.000 OA
ATOM      4  H   UNL     1      46.772   6.688  15.260  0.00  0.00    +0.000 HD
ENDROOT
BRANCH   2   5
ATOM      5  C   UNL     1      46.498   6.088  12.767  0.00  0.00    +0.000 A 
ATOM      6  C   UNL     1      45.925   7.225  12.210  0.00  0.00    +0.000 A 
ATOM      7  S   UNL     1      44.492   6.914  11.343  0.00  0.00    +0.000 S 
ATOM      8  C   UNL     1      44.555   5.258  11.723  0.00  0.00    +0.000 A 
ATOM      9  N   UNL     1      43.584   4.405  11.297  0.00  0.00    +0.000 NA
ATOM     10  C   UNL     1      43.738   3.184  11.686  0.00  0.00    +0.000 A 
ATOM     11  N   UNL     1      44.780   2.737  12.458  0.00  0.00    +0.000 N 
ATOM     12  C   UNL     1      45.803   3.553  12.879  0.00  0.00    +0.000 A 
ATOM     13  O   UNL     1      46.750   3.110  13.523  0.00  0.00    +0.000 OA
ATOM     14  C   UNL     1      45.666   4.941  12.487  0.00  0.00    +0.000 A 
ATOM     15  H   UNL     1      44.849   1.765  12.717  0.00  0.00    +0.000 HD
ENDBRANCH   2   5
BRANCH   1  16
ATOM     16  C   UNL     1      48.811   6.485  15.725  0.00  0.00    +0.000 C 
BRANCH  16  21
ATOM     17  C   UNL     1      49.466   4.571  18.966  0.00  0.00    +0.000 A 
ATOM     18  C   UNL     1      48.560   3.518  18.847  0.00  0.00    +0.000 A 
ATOM     19  C   UNL     1      47.755   3.412  17.710  0.00  0.00    +0.000 A 
ATOM     20  C   UNL     1      47.848   4.361  16.691  0.00  0.00    +0.000 A 
ATOM     21  C   UNL     1      48.758   5.421  16.790  0.00  0.00    +0.000 A 
ATOM     22  C   UNL     1      49.565   5.512  17.936  0.00  0.00    +0.000 A 
BRANCH  17  24
ATOM     23  C   UNL     1      51.694   4.717  19.785  0.00  0.00    +0.000 C 
ATOM     24  O   UNL     1      50.295   4.800  20.031  0.00  0.00    +0.000 OA
ENDBRANCH  17  24
ENDBRANCH  16  21
ENDBRANCH   1  16
TORSDOF 4
ENDMDL
MODEL 6
REMARK VINA RESULT:    -6.722      4.971      7.448
REMARK INTER + INTRA:          -8.871
REMARK INTER:                  -8.133
REMARK INTRA:                  -0.738
REMARK UNBOUND:                -0.577
REMARK  Name = 
REMARK  5 active torsions:
REMARK  status: ('A' for Active; 'I' for Inactive)
REMARK    1  A    between atoms: C_1  and  O_2
REMARK    2  A    between atoms: O_2  and  C_3
REMARK    3  A    between atoms: C_7  and  C_8
REMARK    4  A    between atoms: C_8  and  N_9
REMARK    5  A    between atoms: C_10  and  C_12
REMARK                            x       y       z     vdW  Elec       q    Type
REMARK                         _______ _______ _______ _____ _____    ______ ____
ROOT
ATOM      1  N   UNL     1      44.530   6.183  11.041  0.00  0.00    +0.000 N 
ATOM      2  C   UNL     1      44.881   6.447  12.338  0.00  0.00    +0.000 C 
ATOM      3  O   UNL     1      44.440   5.799  13.282  0.00  0.00    +0.000 OA
ATOM      4  H   UNL     1      44.747   6.859  10.317  0.00  0.00    +0.000 HD
ENDROOT
BRANCH   2   5
ATOM      5  C   UNL     1      45.876   7.510  12.542  0.00  0.00    +0.000 A 
ATOM      6  C   UNL     1      47.058   7.223  13.213  0.00  0.00    +0.000 A 
ATOM      7  S   UNL     1      48.122   8.549  13.324  0.00  0.00    +0.000 S 
ATOM      8  C   UNL     1      47.021   9.570  12.526  0.00  0.00    +0.000 A 
ATOM      9  N   UNL     1      47.312  10.882  12.314  0.00  0.00    +0.000 NA
ATOM     10  C   UNL     1      46.374  11.548  11.729  0.00  0.00    +0.000 A 
ATOM     11  N   UNL     1      45.173  11.020  11.330  0.00  0.00    +0.000 N 
ATOM     12  C   UNL     1      44.850   9.693  11.489  0.00  0.00    +0.000 A 
ATOM     13  O   UNL     1      43.789   9.239  11.072  0.00  0.00    +0.000 OA
ATOM     14  C   UNL     1      45.863   8.904  12.162  0.00  0.00    +0.000 A 
ATOM     15  H   UNL     1      44.486  11.593  10.866  0.00  0.00    +0.000 HD
ENDBRANCH   2   5
BRANCH   1  16
ATOM     16  C   UNL     1      43.588   5.146  10.689  0.00  0.00    +0.000 C 
BRANCH  16  21
ATOM     17  C   UNL     1      45.718   3.575   7.933  0.00  0.00    +0.000 A 
ATOM     18  C   UNL     1      45.604   2.220   8.242  0.00  0.00    +0.000 A 
ATOM     19  C   UNL     1      44.822   1.812   9.324  0.00  0.00    +0.000 A 
ATOM     20  C   UNL     1      44.154   2.756  10.106  0.00  0.00    +0.000 A 
ATOM     21  C   UNL     1      44.250   4.120   9.805  0.00  0.00    +0.000 A 
ATOM     22  C   UNL     1      45.036   4.516   8.712  0.00  0.00    +0.000 A 
BRANCH  17  24
ATOM     23  C   UNL     1      46.868   3.217   5.883  0.00  0.00    +0.000 C 
ATOM     24  O   UNL     1      46.465   4.107   6.916  0.00  0.00    +0.000 OA
ENDBRANCH  17  24
ENDBRANCH  16  21
ENDBRANCH   1  16
TORSDOF 4
ENDMDL
MODEL 7
REMARK VINA RESULT:    -6.683      2.970      7.028
REMARK INTER + INTRA:          -8.823
REMARK INTER:                  -8.022
REMARK INTRA:                  -0.801
REMARK UNBOUND:                -0.577
REMARK  Name = 
REMARK  5 active torsions:
REMARK  status: ('A' for Active; 'I' for Inactive)
REMARK    1  A    between atoms: C_1  and  O_2
REMARK    2  A    between atoms: O_2  and  C_3
REMARK    3  A    between atoms: C_7  and  C_8
REMARK    4  A    between atoms: C_8  and  N_9
REMARK    5  A    between atoms: C_10  and  C_12
REMARK                            x       y       z     vdW  Elec       q    Type
REMARK                         _______ _______ _______ _____ _____    ______ ____
ROOT
ATOM      1  N   UNL     1      46.217   6.585  12.156  0.00  0.00    +0.000 N 
ATOM      2  C   UNL     1      47.540   6.834  12.409  0.00  0.00    +0.000 C 
ATOM      3  O   UNL     1      48.304   7.259  11.547  0.00  0.00    +0.000 OA
ATOM      4  H   UNL     1      45.674   6.047  12.822  0.00  0.00    +0.000 HD
ENDROOT
BRANCH   2   5
ATOM      5  C   UNL     1      47.989   6.633  13.793  0.00  0.00    +0.000 A 
ATOM      6  C   UNL     1      48.794   7.590  14.399  0.00  0.00    +0.000 A 
ATOM      7  S   UNL     1      49.188   7.230  16.017  0.00  0.00    +0.000 S 
ATOM      8  C   UNL     1      48.343   5.757  15.953  0.00  0.00    +0.000 A 
ATOM      9  N   UNL     1      48.305   4.924  17.029  0.00  0.00    +0.000 NA
ATOM     10  C   UNL     1      47.657   3.825  16.831  0.00  0.00    +0.000 A 
ATOM     11  N   UNL     1      47.038   3.485  15.656  0.00  0.00    +0.000 N 
ATOM     12  C   UNL     1      47.017   4.309  14.555  0.00  0.00    +0.000 A 
ATOM     13  O   UNL     1      46.408   3.999  13.536  0.00  0.00    +0.000 OA
ATOM     14  C   UNL     1      47.750   5.549  14.718  0.00  0.00    +0.000 A 
ATOM     15  H   UNL     1      46.537   2.615  15.571  0.00  0.00    +0.000 HD
ENDBRANCH   2   5
BRANCH   1  16
ATOM     16  C   UNL     1      45.630   6.769  10.849  0.00  0.00    +0.000 C 
BRANCH  16  21
ATOM     17  C   UNL     1      44.255   3.265  10.194  0.00  0.00    +0.000 A 
ATOM     18  C   UNL     1      44.782   3.000   8.930  0.00  0.00    +0.000 A 
ATOM     19  C   UNL     1      45.599   3.941   8.300  0.00  0.00    +0.000 A 
ATOM     20  C   UNL     1      45.890   5.153   8.927  0.00  0.00    +0.000 A 
ATOM     21  C   UNL     1      45.376   5.433  10.200  0.00  0.00    +0.000 A 
ATOM     22  C   UNL     1      44.560   4.476  10.824  0.00  0.00    +0.000 A 
BRANCH  17  24
ATOM     23  C   UNL     1      43.379   2.645  12.315  0.00  0.00    +0.000 C 
ATOM     24  O   UNL     1      43.429   2.440  10.908  0.00  0.00    +0.000 OA
ENDBRANCH  17  24
ENDBRANCH  16  21
ENDBRANCH   1  16
TORSDOF 4
ENDMDL
MODEL 8
REMARK VINA RESULT:    -6.574      2.269      3.290
REMARK INTER + INTRA:          -8.688
REMARK INTER:                  -8.158
REMARK INTRA:                  -0.531
REMARK UNBOUND:                -0.577
REMARK  Name = 
REMARK  5 active torsions:
REMARK  status: ('A' for Active; 'I' for Inactive)
REMARK    1  A    between atoms: C_1  and  O_2
REMARK    2  A    between atoms: O_2  and  C_3
REMARK    3  A    between atoms: C_7  and  C_8
REMARK    4  A    between atoms: C_8  and  N_9
REMARK    5  A    between atoms: C_10  and  C_12
REMARK                            x       y       z     vdW  Elec       q    Type
REMARK                         _______ _______ _______ _____ _____    ______ ____
ROOT
ATOM      1  N   UNL     1      46.821   4.465  15.595  0.00  0.00    +0.000 N 
ATOM      2  C   UNL     1      46.764   4.235  14.246  0.00  0.00    +0.000 C 
ATOM      3  O   UNL     1      47.193   3.204  13.737  0.00  0.00    +0.000 OA
ATOM      4  H   UNL     1      46.650   5.400  15.950  0.00  0.00    +0.000 HD
ENDROOT
BRANCH   2   5
ATOM      5  C   UNL     1      46.094   5.263  13.436  0.00  0.00    +0.000 A 
ATOM      6  C   UNL     1      46.719   6.486  13.226  0.00  0.00    +0.000 A 
ATOM      7  S   UNL     1      45.832   7.545  12.229  0.00  0.00    +0.000 S 
ATOM      8  C   UNL     1      44.557   6.431  12.084  0.00  0.00    +0.000 A 
ATOM      9  N   UNL     1      43.441   6.733  11.365  0.00  0.00    +0.000 NA
ATOM     10  C   UNL     1      42.539   5.811  11.367  0.00  0.00    +0.000 A 
ATOM     11  N   UNL     1      42.653   4.609  12.018  0.00  0.00    +0.000 N 
ATOM     12  C   UNL     1      43.774   4.244  12.725  0.00  0.00    +0.000 A 
ATOM     13  O   UNL     1      43.867   3.139  13.251  0.00  0.00    +0.000 OA
ATOM     14  C   UNL     1      44.811   5.256  12.772  0.00  0.00    +0.000 A 
ATOM     15  H   UNL     1      41.914   3.925  11.970  0.00  0.00    +0.000 HD
ENDBRANCH   2   5
BRANCH   1  16
ATOM     16  C   UNL     1      47.422   3.529  16.515  0.00  0.00    +0.000 C 
BRANCH  16  21
ATOM     17  C   UNL     1      47.865   6.243  19.168  0.00  0.00    +0.000 A 
ATOM     18  C   UNL     1      48.494   5.526  20.186  0.00  0.00    +0.000 A 
ATOM     19  C   UNL     1      48.796   4.174  20.008  0.00  0.00    +0.000 A 
ATOM     20  C   UNL     1      48.467   3.531  18.814  0.00  0.00    +0.000 A 
ATOM     21  C   UNL     1      47.842   4.237  17.778  0.00  0.00    +0.000 A 
ATOM     22  C   UNL     1      47.549   5.596  17.969  0.00  0.00    +0.000 A 
BRANCH  17  24
ATOM     23  C   UNL     1      47.561   8.192  20.495  0.00  0.00    +0.000 C 
ATOM     24  O   UNL     1      47.498   7.560  19.222  0.00  0.00    +0.000 OA
ENDBRANCH  17  24
ENDBRANCH  16  21
ENDBRANCH   1  16
TORSDOF 4
ENDMDL
MODEL 9
REMARK VINA RESULT:    -6.376      5.986      9.562
REMARK INTER + INTRA:          -8.444
REMARK INTER:                  -7.926
REMARK INTRA:                  -0.518
REMARK UNBOUND:                -0.577
REMARK  Name = 
REMARK  5 active torsions:
REMARK  status: ('A' for Active; 'I' for Inactive)
REMARK    1  A    between atoms: C_1  and  O_2
REMARK    2  A    between atoms: O_2  and  C_3
REMARK    3  A    between atoms: C_7  and  C_8
REMARK    4  A    between atoms: C_8  and  N_9
REMARK    5  A    between atoms: C_10  and  C_12
REMARK                            x       y       z     vdW  Elec       q    Type
REMARK                         _______ _______ _______ _____ _____    ______ ____
ROOT
ATOM      1  N   UNL     1      44.218   7.969  11.358  0.00  0.00    +0.000 N 
ATOM      2  C   UNL     1      45.147   6.979  11.541  0.00  0.00    +0.000 C 
ATOM      3  O   UNL     1      46.328   7.221  11.771  0.00  0.00    +0.000 OA
ATOM      4  H   UNL     1      43.311   7.736  10.970  0.00  0.00    +0.000 HD
ENDROOT
BRANCH   2   5
ATOM      5  C   UNL     1      44.644   5.598  11.517  0.00  0.00    +0.000 A 
ATOM      6  C   UNL     1      43.964   5.097  12.620  0.00  0.00    +0.000 A 
ATOM      7  S   UNL     1      43.406   3.500  12.414  0.00  0.00    +0.000 S 
ATOM      8  C   UNL     1      44.097   3.400  10.864  0.00  0.00    +0.000 A 
ATOM      9  N   UNL     1      44.006   2.258  10.129  0.00  0.00    +0.000 NA
ATOM     10  C   UNL     1      44.604   2.309   8.987  0.00  0.00    +0.000 A 
ATOM     11  N   UNL     1      45.281   3.402   8.508  0.00  0.00    +0.000 N 
ATOM     12  C   UNL     1      45.368   4.589   9.197  0.00  0.00    +0.000 A 
ATOM     13  O   UNL     1      45.935   5.566   8.718  0.00  0.00    +0.000 OA
ATOM     14  C   UNL     1      44.730   4.577  10.498  0.00  0.00    +0.000 A 
ATOM     15  H   UNL     1      45.717   3.380   7.599  0.00  0.00    +0.000 HD
ENDBRANCH   2   5
BRANCH   1  16
ATOM     16  C   UNL     1      44.564   9.370  11.388  0.00  0.00    +0.000 C 
BRANCH  16  21
ATOM     17  C   UNL     1      41.272  10.797  10.076  0.00  0.00    +0.000 A 
ATOM     18  C   UNL     1      41.732  11.752   9.170  0.00  0.00    +0.000 A 
ATOM     19  C   UNL     1      43.104  11.920   8.965  0.00  0.00    +0.000 A 
ATOM     20  C   UNL     1      44.021  11.137   9.668  0.00  0.00    +0.000 A 
ATOM     21  C   UNL     1      43.576  10.168  10.576  0.00  0.00    +0.000 A 
ATOM     22  C   UNL     1      42.195  10.007  10.769  0.00  0.00    +0.000 A 
BRANCH  17  24
ATOM     23  C   UNL     1      38.992  11.420   9.814  0.00  0.00    +0.000 C 
ATOM     24  O   UNL     1      39.961  10.548  10.382  0.00  0.00    +0.000 OA
ENDBRANCH  17  24
ENDBRANCH  16  21
ENDBRANCH   1  16
TORSDOF 4
ENDMDL
