MODEL 1
REMARK VINA RESULT:    -7.866      0.000      0.000
REMARK INTER + INTRA:         -12.435
REMARK INTER:                 -11.545
REMARK INTRA:                  -0.890
REMARK UNBOUND:                -0.890
REMARK  Name = 
REMARK  9 active torsions:
REMARK  status: ('A' for Active; 'I' for Inactive)
REMARK    1  A    between atoms: C_1  and  O_2
REMARK    2  A    between atoms: O_2  and  C_3
REMARK    3  A    between atoms: C_8  and  C_9
REMARK    4  A    between atoms: N_11  and  C_12
REMARK    5  A    between atoms: C_12  and  C_13
REMARK    6  A    between atoms: C_16  and  C_17
REMARK    7  A    between atoms: C_17  and  O_18
REMARK    8  A    between atoms: O_18  and  C_19
REMARK    9  A    between atoms: C_19  and  C_20
REMARK                            x       y       z     vdW  Elec       q    Type
REMARK                         _______ _______ _______ _____ _____    ______ ____
ROOT
ATOM      1  C   UNL     1      48.191   6.690  14.131  0.00  0.00    +0.000 C 
ATOM      2  O   UNL     1      48.754   6.236  13.139  0.00  0.00    +0.000 OA
ATOM      3  N   UNL     1      47.074   7.490  14.037  0.00  0.00    +0.000 N 
ATOM      4  H   UNL     1      46.494   7.598  14.859  0.00  0.00    +0.000 HD
ENDROOT
BRANCH   1  10
ATOM      5  C   UNL     1      48.898   4.640  18.656  0.00  0.00    +0.000 A 
ATOM      6  N   UNL     1      48.184   3.501  18.537  0.00  0.00    +0.000 NA
ATOM      7  C   UNL     1      47.557   3.250  17.368  0.00  0.00    +0.000 A 
ATOM      8  C   UNL     1      47.586   4.080  16.251  0.00  0.00    +0.000 A 
ATOM      9  C   UNL     1      48.348   5.258  16.351  0.00  0.00    +0.000 A 
ATOM     10  C   UNL     1      48.634   6.378  15.488  0.00  0.00    +0.000 A 
ATOM     11  C   UNL     1      49.436   7.238  16.223  0.00  0.00    +0.000 A 
ATOM     12  N   UNL     1      49.641   6.704  17.462  0.00  0.00    +0.000 N 
ATOM     13  C   UNL     1      48.986   5.503  17.571  0.00  0.00    +0.000 A 
ATOM     14  H   UNL     1      50.174   7.126  18.212  0.00  0.00    +0.000 HD
BRANCH   5  16
ATOM     15  C   UNL     1      48.758   4.589  20.983  0.00  0.00    +0.000 C 
ATOM     16  O   UNL     1      49.524   4.964  19.843  0.00  0.00    +0.000 OA
ENDBRANCH   5  16
ENDBRANCH   1  10
BRANCH   3  17
ATOM     17  C   UNL     1      46.519   7.783  12.739  0.00  0.00    +0.000 C 
BRANCH  17  18
ATOM     18  C   UNL     1      45.749   6.631  12.170  0.00  0.00    +0.000 A 
ATOM     19  C   UNL     1      44.724   6.012  12.887  0.00  0.00    +0.000 A 
ATOM     20  C   UNL     1      44.082   4.894  12.356  0.00  0.00    +0.000 A 
ATOM     21  C   UNL     1      44.478   4.417  11.109  0.00  0.00    +0.000 A 
ATOM     22  N   UNL     1      45.441   5.031  10.374  0.00  0.00    +0.000 NA
ATOM     23  C   UNL     1      46.042   6.118  10.913  0.00  0.00    +0.000 A 
BRANCH  21  24
ATOM     24  C   UNL     1      43.904   3.126  10.568  0.00  0.00    +0.000 C 
BRANCH  24  25
ATOM     25  O   UNL     1      44.286   2.930   9.206  0.00  0.00    +0.000 OA
BRANCH  25  26
ATOM     26  C   UNL     1      45.182   1.828   9.067  0.00  0.00    +0.000 C 
BRANCH  26  27
ATOM     27  C   UNL     1      46.100   2.063   7.902  0.00  0.00    +0.000 A 
ATOM     28  C   UNL     1      46.006   3.218   7.118  0.00  0.00    +0.000 A 
ATOM     29  C   UNL     1      46.834   3.369   6.008  0.00  0.00    +0.000 A 
ATOM     30  C   UNL     1      47.725   2.353   5.707  0.00  0.00    +0.000 A 
ATOM     31  N   UNL     1      47.843   1.223   6.433  0.00  0.00    +0.000 NA
ATOM     32  C   UNL     1      47.031   1.104   7.509  0.00  0.00    +0.000 A 
ENDBRANCH  26  27
ENDBRANCH  25  26
ENDBRANCH  24  25
ENDBRANCH  21  24
ENDBRANCH  17  18
ENDBRANCH   3  17
TORSDOF 8
ENDMDL
MODEL 2
REMARK VINA RESULT:    -7.359      2.530      3.141
REMARK INTER + INTRA:         -11.690
REMARK INTER:                 -10.805
REMARK INTRA:                  -0.885
REMARK UNBOUND:                -0.890
REMARK  Name = 
REMARK  9 active torsions:
REMARK  status: ('A' for Active; 'I' for Inactive)
REMARK    1  A    between atoms: C_1  and  O_2
REMARK    2  A    between atoms: O_2  and  C_3
REMARK    3  A    between atoms: C_8  and  C_9
REMARK    4  A    between atoms: N_11  and  C_12
REMARK    5  A    between atoms: C_12  and  C_13
REMARK    6  A    between atoms: C_16  and  C_17
REMARK    7  A    between atoms: C_17  and  O_18
REMARK    8  A    between atoms: O_18  and  C_19
REMARK    9  A    between atoms: C_19  and  C_20
REMARK                            x       y       z     vdW  Elec       q    Type
REMARK                         _______ _______ _______ _____ _____    ______ ____
ROOT
ATOM      1  C   UNL     1      48.473   5.326  16.706  0.00  0.00    +0.000 C 
ATOM      2  O   UNL     1      49.388   4.509  16.731  0.00  0.00    +0.000 OA
ATOM      3  N   UNL     1      47.373   5.171  15.891  0.00  0.00    +0.000 N 
ATOM      4  H   UNL     1      46.540   5.699  16.108  0.00  0.00    +0.000 HD
ENDROOT
BRANCH   1  10
ATOM      5  C   UNL     1      47.860   8.554  20.499  0.00  0.00    +0.000 A 
ATOM      6  N   UNL     1      47.415   7.728  21.469  0.00  0.00    +0.000 NA
ATOM      7  C   UNL     1      47.281   6.414  21.190  0.00  0.00    +0.000 A 
ATOM      8  C   UNL     1      47.571   5.825  19.963  0.00  0.00    +0.000 A 
ATOM      9  C   UNL     1      48.062   6.668  18.950  0.00  0.00    +0.000 A 
ATOM     10  C   UNL     1      48.457   6.503  17.572  0.00  0.00    +0.000 A 
ATOM     11  C   UNL     1      48.811   7.765  17.118  0.00  0.00    +0.000 A 
ATOM     12  N   UNL     1      48.649   8.663  18.132  0.00  0.00    +0.000 N 
ATOM     13  C   UNL     1      48.189   8.026  19.256  0.00  0.00    +0.000 A 
ATOM     14  H   UNL     1      48.817   9.660  18.076  0.00  0.00    +0.000 HD
BRANCH   5  16
ATOM     15  C   UNL     1      46.743  10.599  20.542  0.00  0.00    +0.000 C 
ATOM     16  O   UNL     1      47.976   9.911  20.721  0.00  0.00    +0.000 OA
ENDBRANCH   5  16
ENDBRANCH   1  10
BRANCH   3  17
ATOM     17  C   UNL     1      47.267   3.996  15.061  0.00  0.00    +0.000 C 
BRANCH  17  18
ATOM     18  C   UNL     1      46.432   4.230  13.840  0.00  0.00    +0.000 A 
ATOM     19  C   UNL     1      45.947   5.498  13.519  0.00  0.00    +0.000 A 
ATOM     20  C   UNL     1      45.109   5.662  12.416  0.00  0.00    +0.000 A 
ATOM     21  C   UNL     1      44.775   4.548  11.649  0.00  0.00    +0.000 A 
ATOM     22  N   UNL     1      45.274   3.313  11.917  0.00  0.00    +0.000 NA
ATOM     23  C   UNL     1      46.090   3.186  12.989  0.00  0.00    +0.000 A 
BRANCH  21  24
ATOM     24  C   UNL     1      43.758   4.664  10.535  0.00  0.00    +0.000 C 
BRANCH  24  25
ATOM     25  O   UNL     1      43.970   3.656   9.546  0.00  0.00    +0.000 OA
BRANCH  25  26
ATOM     26  C   UNL     1      44.728   4.155   8.446  0.00  0.00    +0.000 C 
BRANCH  26  27
ATOM     27  C   UNL     1      45.719   3.118   8.000  0.00  0.00    +0.000 A 
ATOM     28  C   UNL     1      46.671   3.393   7.011  0.00  0.00    +0.000 A 
ATOM     29  C   UNL     1      47.531   2.387   6.579  0.00  0.00    +0.000 A 
ATOM     30  C   UNL     1      47.405   1.127   7.141  0.00  0.00    +0.000 A 
ATOM     31  N   UNL     1      46.498   0.819   8.091  0.00  0.00    +0.000 NA
ATOM     32  C   UNL     1      45.679   1.817   8.496  0.00  0.00    +0.000 A 
ENDBRANCH  26  27
ENDBRANCH  25  26
ENDBRANCH  24  25
ENDBRANCH  21  24
ENDBRANCH  17  18
ENDBRANCH   3  17
TORSDOF 8
ENDMDL
MODEL 3
REMARK VINA RESULT:    -7.355      1.997      2.597
REMARK INTER + INTRA:         -11.685
REMARK INTER:                 -10.896
REMARK INTRA:                  -0.790
REMARK UNBOUND:                -0.890
REMARK  Name = 
REMARK  9 active torsions:
REMARK  status: ('A' for Active; 'I' for Inactive)
REMARK    1  A    between atoms: C_1  and  O_2
REMARK    2  A    between atoms: O_2  and  C_3
REMARK    3  A    between atoms: C_8  and  C_9
REMARK    4  A    between atoms: N_11  and  C_12
REMARK    5  A    between atoms: C_12  and  C_13
REMARK    6  A    between atoms: C_16  and  C_17
REMARK    7  A    between atoms: C_17  and  O_18
REMARK    8  A    between atoms: O_18  and  C_19
REMARK    9  A    between atoms: C_19  and  C_20
REMARK                            x       y       z     vdW  Elec       q    Type
REMARK                         _______ _______ _______ _____ _____    ______ ____
ROOT
ATOM      1  C   UNL     1      48.990   6.511  15.851  0.00  0.00    +0.000 C 
ATOM      2  O   UNL     1      50.075   6.609  15.287  0.00  0.00    +0.000 OA
ATOM      3  N   UNL     1      47.802   6.474  15.153  0.00  0.00    +0.000 N 
ATOM      4  H   UNL     1      46.983   6.113  15.623  0.00  0.00    +0.000 HD
ENDROOT
BRANCH   1  10
ATOM      5  C   UNL     1      48.194   7.269  20.747  0.00  0.00    +0.000 A 
ATOM      6  N   UNL     1      47.617   8.490  20.727  0.00  0.00    +0.000 NA
ATOM      7  C   UNL     1      47.426   9.096  19.536  0.00  0.00    +0.000 A 
ATOM      8  C   UNL     1      47.777   8.559  18.301  0.00  0.00    +0.000 A 
ATOM      9  C   UNL     1      48.355   7.277  18.303  0.00  0.00    +0.000 A 
ATOM     10  C   UNL     1      48.875   6.378  17.301  0.00  0.00    +0.000 A 
ATOM     11  C   UNL     1      49.349   5.269  17.985  0.00  0.00    +0.000 A 
ATOM     12  N   UNL     1      49.147   5.452  19.323  0.00  0.00    +0.000 N 
ATOM     13  C   UNL     1      48.550   6.668  19.546  0.00  0.00    +0.000 A 
ATOM     14  H   UNL     1      49.411   4.810  20.058  0.00  0.00    +0.000 HD
BRANCH   5  16
ATOM     15  C   UNL     1      47.438   5.681  22.277  0.00  0.00    +0.000 C 
ATOM     16  O   UNL     1      48.449   6.625  21.940  0.00  0.00    +0.000 OA
ENDBRANCH   5  16
ENDBRANCH   1  10
BRANCH   3  17
ATOM     17  C   UNL     1      47.826   6.518  13.712  0.00  0.00    +0.000 C 
BRANCH  17  18
ATOM     18  C   UNL     1      46.622   5.872  13.098  0.00  0.00    +0.000 A 
ATOM     19  C   UNL     1      46.409   4.496  13.182  0.00  0.00    +0.000 A 
ATOM     20  C   UNL     1      45.316   3.922  12.532  0.00  0.00    +0.000 A 
ATOM     21  C   UNL     1      44.452   4.742  11.811  0.00  0.00    +0.000 A 
ATOM     22  N   UNL     1      44.615   6.089  11.755  0.00  0.00    +0.000 NA
ATOM     23  C   UNL     1      45.680   6.619  12.401  0.00  0.00    +0.000 A 
BRANCH  21  24
ATOM     24  C   UNL     1      43.342   4.138  10.979  0.00  0.00    +0.000 C 
BRANCH  24  25
ATOM     25  O   UNL     1      43.864   3.193  10.044  0.00  0.00    +0.000 OA
BRANCH  25  26
ATOM     26  C   UNL     1      44.402   3.840   8.892  0.00  0.00    +0.000 C 
BRANCH  26  27
ATOM     27  C   UNL     1      45.495   2.997   8.299  0.00  0.00    +0.000 A 
ATOM     28  C   UNL     1      46.412   3.526   7.384  0.00  0.00    +0.000 A 
ATOM     29  C   UNL     1      47.371   2.697   6.808  0.00  0.00    +0.000 A 
ATOM     30  C   UNL     1      47.377   1.357   7.155  0.00  0.00    +0.000 A 
ATOM     31  N   UNL     1      46.508   0.806   8.027  0.00  0.00    +0.000 NA
ATOM     32  C   UNL     1      45.590   1.635   8.576  0.00  0.00    +0.000 A 
ENDBRANCH  26  27
ENDBRANCH  25  26
ENDBRANCH  24  25
ENDBRANCH  21  24
ENDBRANCH  17  18
ENDBRANCH   3  17
TORSDOF 8
ENDMDL
MODEL 4
REMARK VINA RESULT:    -6.817      2.617      8.323
REMARK INTER + INTRA:         -10.895
REMARK INTER:                  -9.588
REMARK INTRA:                  -1.307
REMARK UNBOUND:                -0.890
REMARK  Name = 
REMARK  9 active torsions:
REMARK  status: ('A' for Active; 'I' for Inactive)
REMARK    1  A    between atoms: C_1  and  O_2
REMARK    2  A    between atoms: O_2  and  C_3
REMARK    3  A    between atoms: C_8  and  C_9
REMARK    4  A    between atoms: N_11  and  C_12
REMARK    5  A    between atoms: C_12  and  C_13
REMARK    6  A    between atoms: C_16  and  C_17
REMARK    7  A    between atoms: C_17  and  O_18
REMARK    8  A    between atoms: O_18  and  C_19
REMARK    9  A    between atoms: C_19  and  C_20
REMARK                            x       y       z     vdW  Elec       q    Type
REMARK                         _______ _______ _______ _____ _____    ______ ____
ROOT
ATOM      1  C   UNL     1      46.452   8.233  13.047  0.00  0.00    +0.000 C 
ATOM      2  O   UNL     1      46.319   9.405  12.711  0.00  0.00    +0.000 OA
ATOM      3  N   UNL     1      47.307   7.854  14.060  0.00  0.00    +0.000 N 
ATOM      4  H   UNL     1      47.172   6.946  14.482  0.00  0.00    +0.000 HD
ENDROOT
BRANCH   1  10
ATOM      5  C   UNL     1      44.603   3.792  11.621  0.00  0.00    +0.000 A 
ATOM      6  N   UNL     1      45.297   2.956  12.422  0.00  0.00    +0.000 NA
ATOM      7  C   UNL     1      46.186   3.481  13.290  0.00  0.00    +0.000 A 
ATOM      8  C   UNL     1      46.453   4.839  13.437  0.00  0.00    +0.000 A 
ATOM      9  C   UNL     1      45.718   5.725  12.629  0.00  0.00    +0.000 A 
ATOM     10  C   UNL     1      45.681   7.154  12.434  0.00  0.00    +0.000 A 
ATOM     11  C   UNL     1      44.744   7.384  11.438  0.00  0.00    +0.000 A 
ATOM     12  N   UNL     1      44.228   6.189  11.029  0.00  0.00    +0.000 N 
ATOM     13  C   UNL     1      44.807   5.162  11.731  0.00  0.00    +0.000 A 
ATOM     14  H   UNL     1      43.537   6.057  10.302  0.00  0.00    +0.000 HD
BRANCH   5  16
ATOM     15  C   UNL     1      44.365   2.705   9.572  0.00  0.00    +0.000 C 
ATOM     16  O   UNL     1      43.712   3.303  10.687  0.00  0.00    +0.000 OA
ENDBRANCH   5  16
ENDBRANCH   1  10
BRANCH   3  17
ATOM     17  C   UNL     1      48.048   8.863  14.776  0.00  0.00    +0.000 C 
BRANCH  17  18
ATOM     18  C   UNL     1      49.119   8.279  15.645  0.00  0.00    +0.000 A 
ATOM     19  C   UNL     1      50.200   7.581  15.102  0.00  0.00    +0.000 A 
ATOM     20  C   UNL     1      51.136   6.986  15.948  0.00  0.00    +0.000 A 
ATOM     21  C   UNL     1      50.974   7.107  17.326  0.00  0.00    +0.000 A 
ATOM     22  N   UNL     1      49.957   7.821  17.873  0.00  0.00    +0.000 NA
ATOM     23  C   UNL     1      49.067   8.392  17.028  0.00  0.00    +0.000 A 
BRANCH  21  24
ATOM     24  C   UNL     1      51.888   6.356  18.270  0.00  0.00    +0.000 C 
BRANCH  24  25
ATOM     25  O   UNL     1      52.130   5.031  17.799  0.00  0.00    +0.000 OA
BRANCH  25  26
ATOM     26  C   UNL     1      51.373   4.069  18.532  0.00  0.00    +0.000 C 
BRANCH  26  27
ATOM     27  C   UNL     1      50.291   3.500  17.660  0.00  0.00    +0.000 A 
ATOM     28  C   UNL     1      49.045   4.127  17.537  0.00  0.00    +0.000 A 
ATOM     29  C   UNL     1      48.046   3.536  16.768  0.00  0.00    +0.000 A 
ATOM     30  C   UNL     1      48.317   2.325  16.154  0.00  0.00    +0.000 A 
ATOM     31  N   UNL     1      49.501   1.685  16.251  0.00  0.00    +0.000 NA
ATOM     32  C   UNL     1      50.456   2.285  16.999  0.00  0.00    +0.000 A 
ENDBRANCH  26  27
ENDBRANCH  25  26
ENDBRANCH  24  25
ENDBRANCH  21  24
ENDBRANCH  17  18
ENDBRANCH   3  17
TORSDOF 8
ENDMDL
MODEL 5
REMARK VINA RESULT:    -6.704      1.708      9.514
REMARK INTER + INTRA:         -10.729
REMARK INTER:                  -9.877
REMARK INTRA:                  -0.852
REMARK UNBOUND:                -0.890
REMARK  Name = 
REMARK  9 active torsions:
REMARK  status: ('A' for Active; 'I' for Inactive)
REMARK    1  A    between atoms: C_1  and  O_2
REMARK    2  A    between atoms: O_2  and  C_3
REMARK    3  A    between atoms: C_8  and  C_9
REMARK    4  A    between atoms: N_11  and  C_12
REMARK    5  A    between atoms: C_12  and  C_13
REMARK    6  A    between atoms: C_16  and  C_17
REMARK    7  A    between atoms: C_17  and  O_18
REMARK    8  A    between atoms: O_18  and  C_19
REMARK    9  A    between atoms: C_19  and  C_20
REMARK                            x       y       z     vdW  Elec       q    Type
REMARK                         _______ _______ _______ _____ _____    ______ ____
ROOT
ATOM      1  C   UNL     1      45.085   4.464   9.416  0.00  0.00    +0.000 C 
ATOM      2  O   UNL     1      44.072   3.967   9.898  0.00  0.00    +0.000 OA
ATOM      3  N   UNL     1      45.647   5.617   9.920  0.00  0.00    +0.000 N 
ATOM      4  H   UNL     1      46.608   5.822   9.684  0.00  0.00    +0.000 HD
ENDROOT
BRANCH   1  10
ATOM      5  C   UNL     1      47.328   1.271   6.262  0.00  0.00    +0.000 A 
ATOM      6  N   UNL     1      47.007   0.086   6.825  0.00  0.00    +0.000 NA
ATOM      7  C   UNL     1      46.253   0.084   7.944  0.00  0.00    +0.000 A 
ATOM      8  C   UNL     1      45.764   1.222   8.580  0.00  0.00    +0.000 A 
ATOM      9  C   UNL     1      46.067   2.462   7.990  0.00  0.00    +0.000 A 
ATOM     10  C   UNL     1      45.801   3.846   8.302  0.00  0.00    +0.000 A 
ATOM     11  C   UNL     1      46.430   4.593   7.318  0.00  0.00    +0.000 A 
ATOM     12  N   UNL     1      47.052   3.746   6.447  0.00  0.00    +0.000 N 
ATOM     13  C   UNL     1      46.854   2.444   6.835  0.00  0.00    +0.000 A 
ATOM     14  H   UNL     1      47.601   4.018   5.642  0.00  0.00    +0.000 HD
BRANCH   5  16
ATOM     15  C   UNL     1      47.422   1.015   3.946  0.00  0.00    +0.000 C 
ATOM     16  O   UNL     1      48.130   1.329   5.140  0.00  0.00    +0.000 OA
ENDBRANCH   5  16
ENDBRANCH   1  10
BRANCH   3  17
ATOM     17  C   UNL     1      45.052   6.251  11.070  0.00  0.00    +0.000 C 
BRANCH  17  18
ATOM     18  C   UNL     1      46.069   6.655  12.093  0.00  0.00    +0.000 A 
ATOM     19  C   UNL     1      46.084   7.939  12.639  0.00  0.00    +0.000 A 
ATOM     20  C   UNL     1      47.093   8.301  13.531  0.00  0.00    +0.000 A 
ATOM     21  C   UNL     1      48.070   7.364  13.864  0.00  0.00    +0.000 A 
ATOM     22  N   UNL     1      48.046   6.096  13.380  0.00  0.00    +0.000 NA
ATOM     23  C   UNL     1      47.051   5.771  12.522  0.00  0.00    +0.000 A 
BRANCH  21  24
ATOM     24  C   UNL     1      49.255   7.766  14.714  0.00  0.00    +0.000 C 
BRANCH  24  25
ATOM     25  O   UNL     1      49.815   6.631  15.375  0.00  0.00    +0.000 OA
BRANCH  25  26
ATOM     26  C   UNL     1      49.476   6.613  16.760  0.00  0.00    +0.000 C 
BRANCH  26  27
ATOM     27  C   UNL     1      48.878   5.283  17.120  0.00  0.00    +0.000 A 
ATOM     28  C   UNL     1      47.804   4.745  16.401  0.00  0.00    +0.000 A 
ATOM     29  C   UNL     1      47.236   3.539  16.805  0.00  0.00    +0.000 A 
ATOM     30  C   UNL     1      47.752   2.912  17.926  0.00  0.00    +0.000 A 
ATOM     31  N   UNL     1      48.780   3.399  18.650  0.00  0.00    +0.000 NA
ATOM     32  C   UNL     1      49.316   4.569  18.233  0.00  0.00    +0.000 A 
ENDBRANCH  26  27
ENDBRANCH  25  26
ENDBRANCH  24  25
ENDBRANCH  21  24
ENDBRANCH  17  18
ENDBRANCH   3  17
TORSDOF 8
ENDMDL
MODEL 6
REMARK VINA RESULT:    -6.560      2.363      3.524
REMARK INTER + INTRA:         -10.518
REMARK INTER:                  -9.646
REMARK INTRA:                  -0.872
REMARK UNBOUND:                -0.890
REMARK  Name = 
REMARK  9 active torsions:
REMARK  status: ('A' for Active; 'I' for Inactive)
REMARK    1  A    between atoms: C_1  and  O_2
REMARK    2  A    between atoms: O_2  and  C_3
REMARK    3  A    between atoms: C_8  and  C_9
REMARK    4  A    between atoms: N_11  and  C_12
REMARK    5  A    between atoms: C_12  and  C_13
REMARK    6  A    between atoms: C_16  and  C_17
REMARK    7  A    between atoms: C_17  and  O_18
REMARK    8  A    between atoms: O_18  and  C_19
REMARK    9  A    between atoms: C_19  and  C_20
REMARK                            x       y       z     vdW  Elec       q    Type
REMARK                         _______ _______ _______ _____ _____    ______ ____
ROOT
ATOM      1  C   UNL     1      47.967   4.763  17.062  0.00  0.00    +0.000 C 
ATOM      2  O   UNL     1      48.260   3.647  17.479  0.00  0.00    +0.000 OA
ATOM      3  N   UNL     1      47.524   4.971  15.773  0.00  0.00    +0.000 N 
ATOM      4  H   UNL     1      47.036   5.832  15.570  0.00  0.00    +0.000 HD
ENDROOT
BRANCH   1  10
ATOM      5  C   UNL     1      49.036   9.207  19.133  0.00  0.00    +0.000 A 
ATOM      6  N   UNL     1      49.863   9.731  18.203  0.00  0.00    +0.000 NA
ATOM      7  C   UNL     1      50.136   9.006  17.098  0.00  0.00    +0.000 A 
ATOM      8  C   UNL     1      49.626   7.740  16.826  0.00  0.00    +0.000 A 
ATOM      9  C   UNL     1      48.742   7.192  17.772  0.00  0.00    +0.000 A 
ATOM     10  C   UNL     1      48.019   5.950  17.912  0.00  0.00    +0.000 A 
ATOM     11  C   UNL     1      47.346   6.028  19.121  0.00  0.00    +0.000 A 
ATOM     12  N   UNL     1      47.624   7.228  19.708  0.00  0.00    +0.000 N 
ATOM     13  C   UNL     1      48.476   7.954  18.913  0.00  0.00    +0.000 A 
ATOM     14  H   UNL     1      47.281   7.546  20.606  0.00  0.00    +0.000 HD
BRANCH   5  16
ATOM     15  C   UNL     1      48.103  11.131  20.061  0.00  0.00    +0.000 C 
ATOM     16  O   UNL     1      48.757   9.889  20.299  0.00  0.00    +0.000 OA
ENDBRANCH   5  16
ENDBRANCH   1  10
BRANCH   3  17
ATOM     17  C   UNL     1      47.365   3.843  14.888  0.00  0.00    +0.000 C 
BRANCH  17  18
ATOM     18  C   UNL     1      46.498   4.158  13.708  0.00  0.00    +0.000 A 
ATOM     19  C   UNL     1      46.155   5.472  13.384  0.00  0.00    +0.000 A 
ATOM     20  C   UNL     1      45.284   5.719  12.324  0.00  0.00    +0.000 A 
ATOM     21  C   UNL     1      44.775   4.643  11.601  0.00  0.00    +0.000 A 
ATOM     22  N   UNL     1      45.133   3.360  11.870  0.00  0.00    +0.000 NA
ATOM     23  C   UNL     1      45.985   3.151  12.901  0.00  0.00    +0.000 A 
BRANCH  21  24
ATOM     24  C   UNL     1      43.720   4.865  10.540  0.00  0.00    +0.000 C 
BRANCH  24  25
ATOM     25  O   UNL     1      43.987   4.073   9.383  0.00  0.00    +0.000 OA
BRANCH  25  26
ATOM     26  C   UNL     1      45.134   4.547   8.678  0.00  0.00    +0.000 C 
BRANCH  26  27
ATOM     27  C   UNL     1      45.895   3.385   8.106  0.00  0.00    +0.000 A 
ATOM     28  C   UNL     1      45.645   2.072   8.519  0.00  0.00    +0.000 A 
ATOM     29  C   UNL     1      46.415   1.028   8.012  0.00  0.00    +0.000 A 
ATOM     30  C   UNL     1      47.424   1.331   7.113  0.00  0.00    +0.000 A 
ATOM     31  N   UNL     1      47.702   2.583   6.694  0.00  0.00    +0.000 NA
ATOM     32  C   UNL     1      46.934   3.577   7.198  0.00  0.00    +0.000 A 
ENDBRANCH  26  27
ENDBRANCH  25  26
ENDBRANCH  24  25
ENDBRANCH  21  24
ENDBRANCH  17  18
ENDBRANCH   3  17
TORSDOF 8
ENDMDL
MODEL 7
REMARK VINA RESULT:    -6.497      2.312      2.793
REMARK INTER + INTRA:         -10.425
REMARK INTER:                  -9.552
REMARK INTRA:                  -0.873
REMARK UNBOUND:                -0.890
REMARK  Name = 
REMARK  9 active torsions:
REMARK  status: ('A' for Active; 'I' for Inactive)
REMARK    1  A    between atoms: C_1  and  O_2
REMARK    2  A    between atoms: O_2  and  C_3
REMARK    3  A    between atoms: C_8  and  C_9
REMARK    4  A    between atoms: N_11  and  C_12
REMARK    5  A    between atoms: C_12  and  C_13
REMARK    6  A    between atoms: C_16  and  C_17
REMARK    7  A    between atoms: C_17  and  O_18
REMARK    8  A    between atoms: O_18  and  C_19
REMARK    9  A    between atoms: C_19  and  C_20
REMARK                            x       y       z     vdW  Elec       q    Type
REMARK                         _______ _______ _______ _____ _____    ______ ____
ROOT
ATOM      1  C   UNL     1      48.333   8.526  14.654  0.00  0.00    +0.000 C 
ATOM      2  O   UNL     1      48.596   9.531  14.002  0.00  0.00    +0.000 OA
ATOM      3  N   UNL     1      47.338   7.649  14.279  0.00  0.00    +0.000 N 
ATOM      4  H   UNL     1      47.350   6.718  14.671  0.00  0.00    +0.000 HD
ENDROOT
BRANCH   1  10
ATOM      5  C   UNL     1      50.042   7.991  19.341  0.00  0.00    +0.000 A 
ATOM      6  N   UNL     1      49.075   8.622  20.040  0.00  0.00    +0.000 NA
ATOM      7  C   UNL     1      48.032   9.154  19.368  0.00  0.00    +0.000 A 
ATOM      8  C   UNL     1      47.863   9.103  17.987  0.00  0.00    +0.000 A 
ATOM      9  C   UNL     1      48.847   8.425  17.248  0.00  0.00    +0.000 A 
ATOM     10  C   UNL     1      49.085   8.154  15.850  0.00  0.00    +0.000 A 
ATOM     11  C   UNL     1      50.283   7.459  15.789  0.00  0.00    +0.000 A 
ATOM     12  N   UNL     1      50.771   7.303  17.053  0.00  0.00    +0.000 N 
ATOM     13  C   UNL     1      49.923   7.887  17.960  0.00  0.00    +0.000 A 
ATOM     14  H   UNL     1      51.640   6.848  17.304  0.00  0.00    +0.000 HD
BRANCH   5  16
ATOM     15  C   UNL     1      52.080   8.470  20.366  0.00  0.00    +0.000 C 
ATOM     16  O   UNL     1      51.149   7.466  19.976  0.00  0.00    +0.000 OA
ENDBRANCH   5  16
ENDBRANCH   1  10
BRANCH   3  17
ATOM     17  C   UNL     1      46.598   7.895  13.066  0.00  0.00    +0.000 C 
BRANCH  17  18
ATOM     18  C   UNL     1      45.987   6.648  12.504  0.00  0.00    +0.000 A 
ATOM     19  C   UNL     1      45.688   6.529  11.146  0.00  0.00    +0.000 A 
ATOM     20  C   UNL     1      45.049   5.383  10.674  0.00  0.00    +0.000 A 
ATOM     21  C   UNL     1      44.724   4.371  11.574  0.00  0.00    +0.000 A 
ATOM     22  N   UNL     1      45.047   4.447  12.891  0.00  0.00    +0.000 NA
ATOM     23  C   UNL     1      45.673   5.568  13.319  0.00  0.00    +0.000 A 
BRANCH  21  24
ATOM     24  C   UNL     1      43.906   3.181  11.123  0.00  0.00    +0.000 C 
BRANCH  24  25
ATOM     25  O   UNL     1      43.905   3.074   9.699  0.00  0.00    +0.000 OA
BRANCH  25  26
ATOM     26  C   UNL     1      44.538   1.872   9.265  0.00  0.00    +0.000 C 
BRANCH  26  27
ATOM     27  C   UNL     1      45.601   2.193   8.253  0.00  0.00    +0.000 A 
ATOM     28  C   UNL     1      46.583   1.260   7.903  0.00  0.00    +0.000 A 
ATOM     29  C   UNL     1      47.588   1.617   7.008  0.00  0.00    +0.000 A 
ATOM     30  C   UNL     1      47.589   2.904   6.497  0.00  0.00    +0.000 A 
ATOM     31  N   UNL     1      46.665   3.834   6.813  0.00  0.00    +0.000 NA
ATOM     32  C   UNL     1      45.697   3.459   7.680  0.00  0.00    +0.000 A 
ENDBRANCH  26  27
ENDBRANCH  25  26
ENDBRANCH  24  25
ENDBRANCH  21  24
ENDBRANCH  17  18
ENDBRANCH   3  17
TORSDOF 8
ENDMDL
MODEL 8
REMARK VINA RESULT:    -6.406      3.440      5.857
REMARK INTER + INTRA:         -10.293
REMARK INTER:                  -9.454
REMARK INTRA:                  -0.839
REMARK UNBOUND:                -0.890
REMARK  Name = 
REMARK  9 active torsions:
REMARK  status: ('A' for Active; 'I' for Inactive)
REMARK    1  A    between atoms: C_1  and  O_2
REMARK    2  A    between atoms: O_2  and  C_3
REMARK    3  A    between atoms: C_8  and  C_9
REMARK    4  A    between atoms: N_11  and  C_12
REMARK    5  A    between atoms: C_12  and  C_13
REMARK    6  A    between atoms: C_16  and  C_17
REMARK    7  A    between atoms: C_17  and  O_18
REMARK    8  A    between atoms: O_18  and  C_19
REMARK    9  A    between atoms: C_19  and  C_20
REMARK                            x       y       z     vdW  Elec       q    Type
REMARK                         _______ _______ _______ _____ _____    ______ ____
ROOT
ATOM      1  C   UNL     1      48.521   8.025  13.694  0.00  0.00    +0.000 C 
ATOM      2  O   UNL     1      47.624   8.599  14.303  0.00  0.00    +0.000 OA
ATOM      3  N   UNL     1      48.604   6.651  13.635  0.00  0.00    +0.000 N 
ATOM      4  H   UNL     1      49.171   6.238  12.907  0.00  0.00    +0.000 HD
ENDROOT
BRANCH   1  10
ATOM      5  C   UNL     1      51.011  11.034  10.544  0.00  0.00    +0.000 A 
ATOM      6  N   UNL     1      49.992  11.728   9.993  0.00  0.00    +0.000 NA
ATOM      7  C   UNL     1      48.733  11.461  10.399  0.00  0.00    +0.000 A 
ATOM      8  C   UNL     1      48.387  10.515  11.359  0.00  0.00    +0.000 A 
ATOM      9  C   UNL     1      49.439   9.802  11.961  0.00  0.00    +0.000 A 
ATOM     10  C   UNL     1      49.544   8.753  12.947  0.00  0.00    +0.000 A 
ATOM     11  C   UNL     1      50.895   8.464  13.062  0.00  0.00    +0.000 A 
ATOM     12  N   UNL     1      51.595   9.269  12.211  0.00  0.00    +0.000 N 
ATOM     13  C   UNL     1      50.735  10.088  11.523  0.00  0.00    +0.000 A 
ATOM     14  H   UNL     1      52.598   9.262  12.075  0.00  0.00    +0.000 HD
BRANCH   5  16
ATOM     15  C   UNL     1      52.450  11.201   8.717  0.00  0.00    +0.000 C 
ATOM     16  O   UNL     1      52.312  11.240  10.134  0.00  0.00    +0.000 OA
ENDBRANCH   5  16
ENDBRANCH   1  10
BRANCH   3  17
ATOM     17  C   UNL     1      47.590   5.852  14.277  0.00  0.00    +0.000 C 
BRANCH  17  18
ATOM     18  C   UNL     1      46.635   5.240  13.299  0.00  0.00    +0.000 A 
ATOM     19  C   UNL     1      46.226   5.925  12.153  0.00  0.00    +0.000 A 
ATOM     20  C   UNL     1      45.277   5.353  11.306  0.00  0.00    +0.000 A 
ATOM     21  C   UNL     1      44.757   4.100  11.620  0.00  0.00    +0.000 A 
ATOM     22  N   UNL     1      45.175   3.398  12.705  0.00  0.00    +0.000 NA
ATOM     23  C   UNL     1      46.102   3.974  13.505  0.00  0.00    +0.000 A 
BRANCH  21  24
ATOM     24  C   UNL     1      43.625   3.516  10.804  0.00  0.00    +0.000 C 
BRANCH  24  25
ATOM     25  O   UNL     1      44.053   3.231   9.472  0.00  0.00    +0.000 OA
BRANCH  25  26
ATOM     26  C   UNL     1      45.100   2.261   9.456  0.00  0.00    +0.000 C 
BRANCH  26  27
ATOM     27  C   UNL     1      45.863   2.357   8.166  0.00  0.00    +0.000 A 
ATOM     28  C   UNL     1      46.651   1.298   7.701  0.00  0.00    +0.000 A 
ATOM     29  C   UNL     1      47.393   1.449   6.533  0.00  0.00    +0.000 A 
ATOM     30  C   UNL     1      47.335   2.661   5.868  0.00  0.00    +0.000 A 
ATOM     31  N   UNL     1      46.594   3.708   6.284  0.00  0.00    +0.000 NA
ATOM     32  C   UNL     1      45.878   3.533   7.419  0.00  0.00    +0.000 A 
ENDBRANCH  26  27
ENDBRANCH  25  26
ENDBRANCH  24  25
ENDBRANCH  21  24
ENDBRANCH  17  18
ENDBRANCH   3  17
TORSDOF 8
ENDMDL
MODEL 9
REMARK VINA RESULT:    -6.324      4.995      7.842
REMARK INTER + INTRA:         -10.172
REMARK INTER:                  -9.276
REMARK INTRA:                  -0.896
REMARK UNBOUND:                -0.890
REMARK  Name = 
REMARK  9 active torsions:
REMARK  status: ('A' for Active; 'I' for Inactive)
REMARK    1  A    between atoms: C_1  and  O_2
REMARK    2  A    between atoms: O_2  and  C_3
REMARK    3  A    between atoms: C_8  and  C_9
REMARK    4  A    between atoms: N_11  and  C_12
REMARK    5  A    between atoms: C_12  and  C_13
REMARK    6  A    between atoms: C_16  and  C_17
REMARK    7  A    between atoms: C_17  and  O_18
REMARK    8  A    between atoms: O_18  and  C_19
REMARK    9  A    between atoms: C_19  and  C_20
REMARK                            x       y       z     vdW  Elec       q    Type
REMARK                         _______ _______ _______ _____ _____    ______ ____
ROOT
ATOM      1  C   UNL     1      51.877   7.855  10.616  0.00  0.00    +0.000 C 
ATOM      2  O   UNL     1      52.012   9.074  10.624  0.00  0.00    +0.000 OA
ATOM      3  N   UNL     1      50.934   7.216  11.391  0.00  0.00    +0.000 N 
ATOM      4  H   UNL     1      50.674   6.271  11.144  0.00  0.00    +0.000 HD
ENDROOT
BRANCH   1  10
ATOM      5  C   UNL     1      54.218   5.700   6.736  0.00  0.00    +0.000 A 
ATOM      6  N   UNL     1      53.974   6.598   5.758  0.00  0.00    +0.000 NA
ATOM      7  C   UNL     1      53.260   7.703   6.058  0.00  0.00    +0.000 A 
ATOM      8  C   UNL     1      52.745   8.005   7.316  0.00  0.00    +0.000 A 
ATOM      9  C   UNL     1      53.014   7.092   8.351  0.00  0.00    +0.000 A 
ATOM     10  C   UNL     1      52.675   6.989   9.750  0.00  0.00    +0.000 A 
ATOM     11  C   UNL     1      53.229   5.799  10.196  0.00  0.00    +0.000 A 
ATOM     12  N   UNL     1      53.870   5.190   9.156  0.00  0.00    +0.000 N 
ATOM     13  C   UNL     1      53.750   5.951   8.020  0.00  0.00    +0.000 A 
ATOM     14  H   UNL     1      54.349   4.300   9.191  0.00  0.00    +0.000 HD
BRANCH   5  16
ATOM     15  C   UNL     1      54.583   3.985   5.199  0.00  0.00    +0.000 C 
ATOM     16  O   UNL     1      54.908   4.534   6.472  0.00  0.00    +0.000 OA
ENDBRANCH   5  16
ENDBRANCH   1  10
BRANCH   3  17
ATOM     17  C   UNL     1      50.049   7.999  12.218  0.00  0.00    +0.000 C 
BRANCH  17  18
ATOM     18  C   UNL     1      48.671   7.416  12.295  0.00  0.00    +0.000 A 
ATOM     19  C   UNL     1      47.567   8.078  11.756  0.00  0.00    +0.000 A 
ATOM     20  C   UNL     1      46.290   7.540  11.916  0.00  0.00    +0.000 A 
ATOM     21  C   UNL     1      46.143   6.342  12.611  0.00  0.00    +0.000 A 
ATOM     22  N   UNL     1      47.209   5.658  13.102  0.00  0.00    +0.000 NA
ATOM     23  C   UNL     1      48.436   6.201  12.927  0.00  0.00    +0.000 A 
BRANCH  21  24
ATOM     24  C   UNL     1      44.764   5.806  12.925  0.00  0.00    +0.000 C 
BRANCH  24  25
ATOM     25  O   UNL     1      43.963   5.739  11.745  0.00  0.00    +0.000 OA
BRANCH  25  26
ATOM     26  C   UNL     1      43.592   4.396  11.440  0.00  0.00    +0.000 C 
BRANCH  26  27
ATOM     27  C   UNL     1      44.306   3.941  10.199  0.00  0.00    +0.000 A 
ATOM     28  C   UNL     1      44.396   2.586   9.861  0.00  0.00    +0.000 A 
ATOM     29  C   UNL     1      45.120   2.200   8.736  0.00  0.00    +0.000 A 
ATOM     30  C   UNL     1      45.744   3.182   7.986  0.00  0.00    +0.000 A 
ATOM     31  N   UNL     1      45.688   4.497   8.279  0.00  0.00    +0.000 NA
ATOM     32  C   UNL     1      44.973   4.845   9.374  0.00  0.00    +0.000 A 
ENDBRANCH  26  27
ENDBRANCH  25  26
ENDBRANCH  24  25
ENDBRANCH  21  24
ENDBRANCH  17  18
ENDBRANCH   3  17
TORSDOF 8
ENDMDL
