MODEL 1
REMARK VINA RESULT:    -8.152      0.000      0.000
REMARK INTER + INTRA:         -13.157
REMARK INTER:                 -11.965
REMARK INTRA:                  -1.191
REMARK UNBOUND:                -1.191
REMARK  Name = 
REMARK  9 active torsions:
REMARK  status: ('A' for Active; 'I' for Inactive)
REMARK    1  A    between atoms: C_1  and  C_2
REMARK    2  A    between atoms: C_2  and  C_3
REMARK    3  A    between atoms: C_5  and  C_6
REMARK    4  A    between atoms: C_6  and  C_7
REMARK    5  A    between atoms: C_7  and  C_8
REMARK    6  A    between atoms: C_10  and  O_11
REMARK    7  A    between atoms: O_11  and  C_12
REMARK    8  A    between atoms: C_18  and  C_19
REMARK    9  A    between atoms: C_24  and  C_25
REMARK                            x       y       z     vdW  Elec       q    Type
REMARK                         _______ _______ _______ _____ _____    ______ ____
ROOT
ATOM      1  C   UNL     1      45.056   5.044  10.399  0.00  0.00    +0.000 A 
ATOM      2  C   UNL     1      45.717   5.063   9.147  0.00  0.00    +0.000 A 
ATOM      3  C   UNL     1      45.631   3.990   8.262  0.00  0.00    +0.000 A 
ATOM      4  C   UNL     1      44.930   2.851   8.638  0.00  0.00    +0.000 A 
ATOM      5  C   UNL     1      44.238   2.823   9.851  0.00  0.00    +0.000 A 
ATOM      6  C   UNL     1      44.245   3.931  10.720  0.00  0.00    +0.000 A 
ENDROOT
BRANCH   6   7
ATOM      7  C   UNL     1      43.382   3.866  11.945  0.00  0.00    +0.000 C 
ATOM      8  N   UNL     1      42.369   4.788  12.043  0.00  0.00    +0.000 N 
ATOM      9  O   UNL     1      43.559   3.065  12.854  0.00  0.00    +0.000 OA
ATOM     10  H   UNL     1      42.293   5.597  11.442  0.00  0.00    +0.000 HD
ATOM     11  H   UNL     1      41.826   4.785  12.897  0.00  0.00    +0.000 HD
ENDBRANCH   6   7
BRANCH   1  12
ATOM     12  C   UNL     1      45.271   6.253  11.294  0.00  0.00    +0.000 C 
BRANCH  12  13
ATOM     13  C   UNL     1      46.751   6.467  11.626  0.00  0.00    +0.000 C 
BRANCH  13  16
ATOM     14  C   UNL     1      48.360   6.259  15.116  0.00  0.00    +0.000 A 
ATOM     15  C   UNL     1      48.034   6.678  13.802  0.00  0.00    +0.000 A 
ATOM     16  C   UNL     1      47.189   5.926  12.967  0.00  0.00    +0.000 A 
ATOM     17  C   UNL     1      46.708   4.703  13.432  0.00  0.00    +0.000 A 
ATOM     18  C   UNL     1      46.978   4.295  14.739  0.00  0.00    +0.000 A 
ATOM     19  C   UNL     1      47.748   5.092  15.610  0.00  0.00    +0.000 A 
BRANCH  19  20
ATOM     20  C   UNL     1      47.850   4.647  17.039  0.00  0.00    +0.000 C 
ATOM     21  N   UNL     1      46.957   5.211  17.912  0.00  0.00    +0.000 N 
ATOM     22  O   UNL     1      48.685   3.852  17.445  0.00  0.00    +0.000 OA
ATOM     23  H   UNL     1      46.409   6.030  17.678  0.00  0.00    +0.000 HD
ATOM     24  H   UNL     1      47.062   4.982  18.893  0.00  0.00    +0.000 HD
ENDBRANCH  19  20
BRANCH  14  26
ATOM     25  C   UNL     1      48.828   8.332  16.553  0.00  0.00    +0.000 C 
ATOM     26  C   UNL     1      49.379   7.089  15.872  0.00  0.00    +0.000 C 
ENDBRANCH  14  26
ENDBRANCH  13  16
ENDBRANCH  12  13
ENDBRANCH   1  12
BRANCH   3  27
ATOM     27  O   UNL     1      46.232   3.941   7.029  0.00  0.00    +0.000 OA
BRANCH  27  28
ATOM     28  C   UNL     1      46.635   2.655   6.503  0.00  0.00    +0.000 C 
ATOM     29  C   UNL     1      48.057   2.145   6.832  0.00  0.00    +0.000 C 
ATOM     30  N   UNL     1      48.225   1.730   5.423  0.00  0.00    +0.000 NA
ATOM     31  C   UNL     1      47.144   2.665   5.043  0.00  0.00    +0.000 C 
ATOM     32  H   UNL     1      47.993   0.750   5.252  0.00  0.00    +0.000 HD
ENDBRANCH  27  28
ENDBRANCH   3  27
TORSDOF 8
ENDMDL
MODEL 2
REMARK VINA RESULT:    -7.604      1.121      1.920
REMARK INTER + INTRA:         -12.352
REMARK INTER:                 -11.253
REMARK INTRA:                  -1.099
REMARK UNBOUND:                -1.191
REMARK  Name = 
REMARK  9 active torsions:
REMARK  status: ('A' for Active; 'I' for Inactive)
REMARK    1  A    between atoms: C_1  and  C_2
REMARK    2  A    between atoms: C_2  and  C_3
REMARK    3  A    between atoms: C_5  and  C_6
REMARK    4  A    between atoms: C_6  and  C_7
REMARK    5  A    between atoms: C_7  and  C_8
REMARK    6  A    between atoms: C_10  and  O_11
REMARK    7  A    between atoms: O_11  and  C_12
REMARK    8  A    between atoms: C_18  and  C_19
REMARK    9  A    between atoms: C_24  and  C_25
REMARK                            x       y       z     vdW  Elec       q    Type
REMARK                         _______ _______ _______ _____ _____    ______ ____
ROOT
ATOM      1  C   UNL     1      45.169   5.037  10.379  0.00  0.00    +0.000 A 
ATOM      2  C   UNL     1      45.792   5.044   9.107  0.00  0.00    +0.000 A 
ATOM      3  C   UNL     1      45.675   3.966   8.234  0.00  0.00    +0.000 A 
ATOM      4  C   UNL     1      44.981   2.832   8.639  0.00  0.00    +0.000 A 
ATOM      5  C   UNL     1      44.325   2.816   9.872  0.00  0.00    +0.000 A 
ATOM      6  C   UNL     1      44.363   3.930  10.732  0.00  0.00    +0.000 A 
ENDROOT
BRANCH   6   7
ATOM      7  C   UNL     1      43.536   3.878  11.983  0.00  0.00    +0.000 C 
ATOM      8  N   UNL     1      42.464   4.732  12.057  0.00  0.00    +0.000 N 
ATOM      9  O   UNL     1      43.791   3.146  12.931  0.00  0.00    +0.000 OA
ATOM     10  H   UNL     1      42.316   5.497  11.413  0.00  0.00    +0.000 HD
ATOM     11  H   UNL     1      41.944   4.742  12.925  0.00  0.00    +0.000 HD
ENDBRANCH   6   7
BRANCH   1  12
ATOM     12  C   UNL     1      45.416   6.251  11.259  0.00  0.00    +0.000 C 
BRANCH  12  13
ATOM     13  C   UNL     1      46.909   6.510  11.477  0.00  0.00    +0.000 C 
BRANCH  13  16
ATOM     14  C   UNL     1      47.593   5.325  15.074  0.00  0.00    +0.000 A 
ATOM     15  C   UNL     1      47.083   5.412  13.755  0.00  0.00    +0.000 A 
ATOM     16  C   UNL     1      47.352   6.512  12.922  0.00  0.00    +0.000 A 
ATOM     17  C   UNL     1      48.096   7.572  13.437  0.00  0.00    +0.000 A 
ATOM     18  C   UNL     1      48.647   7.486  14.716  0.00  0.00    +0.000 A 
ATOM     19  C   UNL     1      48.456   6.343  15.519  0.00  0.00    +0.000 A 
BRANCH  19  20
ATOM     20  C   UNL     1      49.218   6.275  16.810  0.00  0.00    +0.000 C 
ATOM     21  N   UNL     1      50.511   5.829  16.725  0.00  0.00    +0.000 N 
ATOM     22  O   UNL     1      48.740   6.566  17.896  0.00  0.00    +0.000 OA
ATOM     23  H   UNL     1      50.875   5.365  15.903  0.00  0.00    +0.000 HD
ATOM     24  H   UNL     1      51.013   5.702  17.596  0.00  0.00    +0.000 HD
ENDBRANCH  19  20
BRANCH  14  26
ATOM     25  C   UNL     1      48.098   2.981  15.987  0.00  0.00    +0.000 C 
ATOM     26  C   UNL     1      47.131   4.152  15.917  0.00  0.00    +0.000 C 
ENDBRANCH  14  26
ENDBRANCH  13  16
ENDBRANCH  12  13
ENDBRANCH   1  12
BRANCH   3  27
ATOM     27  O   UNL     1      46.239   3.905   6.984  0.00  0.00    +0.000 OA
BRANCH  27  28
ATOM     28  C   UNL     1      46.667   2.619   6.477  0.00  0.00    +0.000 C 
ATOM     29  C   UNL     1      48.105   2.151   6.797  0.00  0.00    +0.000 C 
ATOM     30  N   UNL     1      48.266   1.714   5.394  0.00  0.00    +0.000 NA
ATOM     31  C   UNL     1      47.158   2.616   5.010  0.00  0.00    +0.000 C 
ATOM     32  H   UNL     1      48.057   0.726   5.243  0.00  0.00    +0.000 HD
ENDBRANCH  27  28
ENDBRANCH   3  27
TORSDOF 8
ENDMDL
MODEL 3
REMARK VINA RESULT:    -7.540      2.549      3.076
REMARK INTER + INTRA:         -12.258
REMARK INTER:                 -11.289
REMARK INTRA:                  -0.968
REMARK UNBOUND:                -1.191
REMARK  Name = 
REMARK  9 active torsions:
REMARK  status: ('A' for Active; 'I' for Inactive)
REMARK    1  A    between atoms: C_1  and  C_2
REMARK    2  A    between atoms: C_2  and  C_3
REMARK    3  A    between atoms: C_5  and  C_6
REMARK    4  A    between atoms: C_6  and  C_7
REMARK    5  A    between atoms: C_7  and  C_8
REMARK    6  A    between atoms: C_10  and  O_11
REMARK    7  A    between atoms: O_11  and  C_12
REMARK    8  A    between atoms: C_18  and  C_19
REMARK    9  A    between atoms: C_24  and  C_25
REMARK                            x       y       z     vdW  Elec       q    Type
REMARK                         _______ _______ _______ _____ _____    ______ ____
ROOT
ATOM      1  C   UNL     1      45.163   4.969  10.321  0.00  0.00    +0.000 A 
ATOM      2  C   UNL     1      45.777   4.982   9.046  0.00  0.00    +0.000 A 
ATOM      3  C   UNL     1      45.629   3.920   8.156  0.00  0.00    +0.000 A 
ATOM      4  C   UNL     1      44.913   2.796   8.550  0.00  0.00    +0.000 A 
ATOM      5  C   UNL     1      44.266   2.776   9.787  0.00  0.00    +0.000 A 
ATOM      6  C   UNL     1      44.335   3.875  10.664  0.00  0.00    +0.000 A 
ENDROOT
BRANCH   6   7
ATOM      7  C   UNL     1      43.517   3.822  11.920  0.00  0.00    +0.000 C 
ATOM      8  N   UNL     1      43.734   2.758  12.760  0.00  0.00    +0.000 N 
ATOM      9  O   UNL     1      42.661   4.651  12.205  0.00  0.00    +0.000 OA
ATOM     10  H   UNL     1      44.266   1.940  12.496  0.00  0.00    +0.000 HD
ATOM     11  H   UNL     1      43.140   2.688  13.576  0.00  0.00    +0.000 HD
ENDBRANCH   6   7
BRANCH   1  12
ATOM     12  C   UNL     1      45.443   6.164  11.218  0.00  0.00    +0.000 C 
BRANCH  12  13
ATOM     13  C   UNL     1      46.309   5.787  12.424  0.00  0.00    +0.000 C 
BRANCH  13  16
ATOM     14  C   UNL     1      49.478   7.296  14.004  0.00  0.00    +0.000 A 
ATOM     15  C   UNL     1      48.258   6.598  13.829  0.00  0.00    +0.000 A 
ATOM     16  C   UNL     1      47.532   6.652  12.626  0.00  0.00    +0.000 A 
ATOM     17  C   UNL     1      48.005   7.466  11.598  0.00  0.00    +0.000 A 
ATOM     18  C   UNL     1      49.229   8.124  11.732  0.00  0.00    +0.000 A 
ATOM     19  C   UNL     1      50.003   7.996  12.903  0.00  0.00    +0.000 A 
BRANCH  19  20
ATOM     20  C   UNL     1      51.373   8.609  12.890  0.00  0.00    +0.000 C 
ATOM     21  N   UNL     1      52.356   7.877  12.279  0.00  0.00    +0.000 N 
ATOM     22  O   UNL     1      51.641   9.683  13.408  0.00  0.00    +0.000 OA
ATOM     23  H   UNL     1      52.242   6.899  12.042  0.00  0.00    +0.000 HD
ATOM     24  H   UNL     1      53.301   8.239  12.330  0.00  0.00    +0.000 HD
ENDBRANCH  19  20
BRANCH  14  26
ATOM     25  C   UNL     1      49.355   6.426  16.414  0.00  0.00    +0.000 C 
ATOM     26  C   UNL     1      50.101   7.261  15.386  0.00  0.00    +0.000 C 
ENDBRANCH  14  26
ENDBRANCH  13  16
ENDBRANCH  12  13
ENDBRANCH   1  12
BRANCH   3  27
ATOM     27  O   UNL     1      46.182   3.866   6.902  0.00  0.00    +0.000 OA
BRANCH  27  28
ATOM     28  C   UNL     1      46.642   2.590   6.399  0.00  0.00    +0.000 C 
ATOM     29  C   UNL     1      48.075   2.136   6.764  0.00  0.00    +0.000 C 
ATOM     30  N   UNL     1      48.287   1.711   5.363  0.00  0.00    +0.000 NA
ATOM     31  C   UNL     1      47.182   2.603   4.950  0.00  0.00    +0.000 C 
ATOM     32  H   UNL     1      48.095   0.722   5.199  0.00  0.00    +0.000 HD
ENDBRANCH  27  28
ENDBRANCH   3  27
TORSDOF 8
ENDMDL
MODEL 4
REMARK VINA RESULT:    -7.532      3.407      4.154
REMARK INTER + INTRA:         -12.246
REMARK INTER:                 -11.254
REMARK INTRA:                  -0.992
REMARK UNBOUND:                -1.191
REMARK  Name = 
REMARK  9 active torsions:
REMARK  status: ('A' for Active; 'I' for Inactive)
REMARK    1  A    between atoms: C_1  and  C_2
REMARK    2  A    between atoms: C_2  and  C_3
REMARK    3  A    between atoms: C_5  and  C_6
REMARK    4  A    between atoms: C_6  and  C_7
REMARK    5  A    between atoms: C_7  and  C_8
REMARK    6  A    between atoms: C_10  and  O_11
REMARK    7  A    between atoms: O_11  and  C_12
REMARK    8  A    between atoms: C_18  and  C_19
REMARK    9  A    between atoms: C_24  and  C_25
REMARK                            x       y       z     vdW  Elec       q    Type
REMARK                         _______ _______ _______ _____ _____    ______ ____
ROOT
ATOM      1  C   UNL     1      45.104   5.030  10.298  0.00  0.00    +0.000 A 
ATOM      2  C   UNL     1      45.729   5.037   9.028  0.00  0.00    +0.000 A 
ATOM      3  C   UNL     1      45.646   3.943   8.169  0.00  0.00    +0.000 A 
ATOM      4  C   UNL     1      44.985   2.796   8.589  0.00  0.00    +0.000 A 
ATOM      5  C   UNL     1      44.327   2.778   9.821  0.00  0.00    +0.000 A 
ATOM      6  C   UNL     1      44.329   3.905  10.665  0.00  0.00    +0.000 A 
ENDROOT
BRANCH   6   7
ATOM      7  C   UNL     1      43.502   3.846  11.915  0.00  0.00    +0.000 C 
ATOM      8  N   UNL     1      42.439   4.711  11.999  0.00  0.00    +0.000 N 
ATOM      9  O   UNL     1      43.748   3.099  12.853  0.00  0.00    +0.000 OA
ATOM     10  H   UNL     1      42.300   5.486  11.365  0.00  0.00    +0.000 HD
ATOM     11  H   UNL     1      41.918   4.715  12.866  0.00  0.00    +0.000 HD
ENDBRANCH   6   7
BRANCH   1  12
ATOM     12  C   UNL     1      45.312   6.264  11.161  0.00  0.00    +0.000 C 
BRANCH  12  13
ATOM     13  C   UNL     1      46.601   6.179  11.983  0.00  0.00    +0.000 C 
BRANCH  13  16
ATOM     14  C   UNL     1      49.587   8.594  11.716  0.00  0.00    +0.000 A 
ATOM     15  C   UNL     1      48.810   7.413  11.816  0.00  0.00    +0.000 A 
ATOM     16  C   UNL     1      47.419   7.450  12.019  0.00  0.00    +0.000 A 
ATOM     17  C   UNL     1      46.801   8.689  12.183  0.00  0.00    +0.000 A 
ATOM     18  C   UNL     1      47.540   9.865  12.040  0.00  0.00    +0.000 A 
ATOM     19  C   UNL     1      48.918   9.831  11.744  0.00  0.00    +0.000 A 
BRANCH  19  20
ATOM     20  C   UNL     1      49.589  11.141  11.452  0.00  0.00    +0.000 C 
ATOM     21  N   UNL     1      49.636  11.514  10.134  0.00  0.00    +0.000 N 
ATOM     22  O   UNL     1      50.101  11.847  12.308  0.00  0.00    +0.000 OA
ATOM     23  H   UNL     1      49.438  10.872   9.378  0.00  0.00    +0.000 HD
ATOM     24  H   UNL     1      50.154  12.355   9.912  0.00  0.00    +0.000 HD
ENDBRANCH  19  20
BRANCH  14  26
ATOM     25  C   UNL     1      51.577   7.536  10.490  0.00  0.00    +0.000 C 
ATOM     26  C   UNL     1      51.091   8.424  11.625  0.00  0.00    +0.000 C 
ENDBRANCH  14  26
ENDBRANCH  13  16
ENDBRANCH  12  13
ENDBRANCH   1  12
BRANCH   3  27
ATOM     27  O   UNL     1      46.215   3.881   6.922  0.00  0.00    +0.000 OA
BRANCH  27  28
ATOM     28  C   UNL     1      46.674   2.600   6.430  0.00  0.00    +0.000 C 
ATOM     29  C   UNL     1      48.122   2.170   6.758  0.00  0.00    +0.000 C 
ATOM     30  N   UNL     1      48.295   1.720   5.360  0.00  0.00    +0.000 NA
ATOM     31  C   UNL     1      47.168   2.591   4.964  0.00  0.00    +0.000 C 
ATOM     32  H   UNL     1      48.110   0.726   5.221  0.00  0.00    +0.000 HD
ENDBRANCH  27  28
ENDBRANCH   3  27
TORSDOF 8
ENDMDL
MODEL 5
REMARK VINA RESULT:    -7.333      2.586      3.250
REMARK INTER + INTRA:         -11.954
REMARK INTER:                 -10.906
REMARK INTRA:                  -1.048
REMARK UNBOUND:                -1.191
REMARK  Name = 
REMARK  9 active torsions:
REMARK  status: ('A' for Active; 'I' for Inactive)
REMARK    1  A    between atoms: C_1  and  C_2
REMARK    2  A    between atoms: C_2  and  C_3
REMARK    3  A    between atoms: C_5  and  C_6
REMARK    4  A    between atoms: C_6  and  C_7
REMARK    5  A    between atoms: C_7  and  C_8
REMARK    6  A    between atoms: C_10  and  O_11
REMARK    7  A    between atoms: O_11  and  C_12
REMARK    8  A    between atoms: C_18  and  C_19
REMARK    9  A    between atoms: C_24  and  C_25
REMARK                            x       y       z     vdW  Elec       q    Type
REMARK                         _______ _______ _______ _____ _____    ______ ____
ROOT
ATOM      1  C   UNL     1      45.182   5.005  10.328  0.00  0.00    +0.000 A 
ATOM      2  C   UNL     1      45.810   4.992   9.060  0.00  0.00    +0.000 A 
ATOM      3  C   UNL     1      45.613   3.947   8.160  0.00  0.00    +0.000 A 
ATOM      4  C   UNL     1      44.828   2.864   8.535  0.00  0.00    +0.000 A 
ATOM      5  C   UNL     1      44.166   2.871   9.765  0.00  0.00    +0.000 A 
ATOM      6  C   UNL     1      44.288   3.958  10.652  0.00  0.00    +0.000 A 
ENDROOT
BRANCH   6   7
ATOM      7  C   UNL     1      43.453   3.942  11.898  0.00  0.00    +0.000 C 
ATOM      8  N   UNL     1      42.396   4.817  11.950  0.00  0.00    +0.000 N 
ATOM      9  O   UNL     1      43.688   3.222  12.859  0.00  0.00    +0.000 OA
ATOM     10  H   UNL     1      42.266   5.573  11.293  0.00  0.00    +0.000 HD
ATOM     11  H   UNL     1      41.870   4.850  12.814  0.00  0.00    +0.000 HD
ENDBRANCH   6   7
BRANCH   1  12
ATOM     12  C   UNL     1      45.519   6.174  11.238  0.00  0.00    +0.000 C 
BRANCH  12  13
ATOM     13  C   UNL     1      46.504   5.779  12.342  0.00  0.00    +0.000 C 
BRANCH  13  16
ATOM     14  C   UNL     1      48.483   9.080  12.361  0.00  0.00    +0.000 A 
ATOM     15  C   UNL     1      47.705   7.975  11.937  0.00  0.00    +0.000 A 
ATOM     16  C   UNL     1      47.450   6.875  12.776  0.00  0.00    +0.000 A 
ATOM     17  C   UNL     1      48.033   6.853  14.041  0.00  0.00    +0.000 A 
ATOM     18  C   UNL     1      48.763   7.952  14.497  0.00  0.00    +0.000 A 
ATOM     19  C   UNL     1      48.941   9.095  13.691  0.00  0.00    +0.000 A 
BRANCH  19  20
ATOM     20  C   UNL     1      49.601  10.285  14.325  0.00  0.00    +0.000 C 
ATOM     21  N   UNL     1      48.763  11.259  14.798  0.00  0.00    +0.000 N 
ATOM     22  O   UNL     1      50.813  10.425  14.406  0.00  0.00    +0.000 OA
ATOM     23  H   UNL     1      47.782  11.301  14.554  0.00  0.00    +0.000 HD
ATOM     24  H   UNL     1      49.194  12.103  15.157  0.00  0.00    +0.000 HD
ENDBRANCH  19  20
BRANCH  14  26
ATOM     25  C   UNL     1      47.745  11.238  11.187  0.00  0.00    +0.000 C 
ATOM     26  C   UNL     1      48.792  10.144  11.326  0.00  0.00    +0.000 C 
ENDBRANCH  14  26
ENDBRANCH  13  16
ENDBRANCH  12  13
ENDBRANCH   1  12
BRANCH   3  27
ATOM     27  O   UNL     1      46.177   3.871   6.912  0.00  0.00    +0.000 OA
BRANCH  27  28
ATOM     28  C   UNL     1      46.636   2.585   6.433  0.00  0.00    +0.000 C 
ATOM     29  C   UNL     1      48.046   2.110   6.856  0.00  0.00    +0.000 C 
ATOM     30  N   UNL     1      48.306   1.675   5.467  0.00  0.00    +0.000 NA
ATOM     31  C   UNL     1      47.233   2.582   5.006  0.00  0.00    +0.000 C 
ATOM     32  H   UNL     1      48.105   0.689   5.299  0.00  0.00    +0.000 HD
ENDBRANCH  27  28
ENDBRANCH   3  27
TORSDOF 8
ENDMDL
MODEL 6
REMARK VINA RESULT:    -6.511      2.736      8.012
REMARK INTER + INTRA:         -10.747
REMARK INTER:                  -9.330
REMARK INTRA:                  -1.417
REMARK UNBOUND:                -1.191
REMARK  Name = 
REMARK  9 active torsions:
REMARK  status: ('A' for Active; 'I' for Inactive)
REMARK    1  A    between atoms: C_1  and  C_2
REMARK    2  A    between atoms: C_2  and  C_3
REMARK    3  A    between atoms: C_5  and  C_6
REMARK    4  A    between atoms: C_6  and  C_7
REMARK    5  A    between atoms: C_7  and  C_8
REMARK    6  A    between atoms: C_10  and  O_11
REMARK    7  A    between atoms: O_11  and  C_12
REMARK    8  A    between atoms: C_18  and  C_19
REMARK    9  A    between atoms: C_24  and  C_25
REMARK                            x       y       z     vdW  Elec       q    Type
REMARK                         _______ _______ _______ _____ _____    ______ ____
ROOT
ATOM      1  C   UNL     1      48.903   7.904  13.562  0.00  0.00    +0.000 A 
ATOM      2  C   UNL     1      48.762   6.686  14.270  0.00  0.00    +0.000 A 
ATOM      3  C   UNL     1      49.183   6.559  15.591  0.00  0.00    +0.000 A 
ATOM      4  C   UNL     1      49.808   7.633  16.213  0.00  0.00    +0.000 A 
ATOM      5  C   UNL     1      49.924   8.857  15.550  0.00  0.00    +0.000 A 
ATOM      6  C   UNL     1      49.428   9.027  14.243  0.00  0.00    +0.000 A 
ENDROOT
BRANCH   6   7
ATOM      7  C   UNL     1      49.484  10.402  13.646  0.00  0.00    +0.000 C 
ATOM      8  N   UNL     1      48.376  11.196  13.807  0.00  0.00    +0.000 N 
ATOM      9  O   UNL     1      50.441  10.822  13.008  0.00  0.00    +0.000 OA
ATOM     10  H   UNL     1      47.486  10.850  14.137  0.00  0.00    +0.000 HD
ATOM     11  H   UNL     1      48.389  12.100  13.352  0.00  0.00    +0.000 HD
ENDBRANCH   6   7
BRANCH   1  12
ATOM     12  C   UNL     1      48.453   7.898  12.110  0.00  0.00    +0.000 C 
BRANCH  12  13
ATOM     13  C   UNL     1      46.972   8.261  11.965  0.00  0.00    +0.000 C 
BRANCH  13  16
ATOM     14  C   UNL     1      45.405   4.986  10.687  0.00  0.00    +0.000 A 
ATOM     15  C   UNL     1      46.179   6.169  10.771  0.00  0.00    +0.000 A 
ATOM     16  C   UNL     1      46.036   7.081  11.832  0.00  0.00    +0.000 A 
ATOM     17  C   UNL     1      45.061   6.834  12.796  0.00  0.00    +0.000 A 
ATOM     18  C   UNL     1      44.320   5.651  12.758  0.00  0.00    +0.000 A 
ATOM     19  C   UNL     1      44.527   4.692  11.746  0.00  0.00    +0.000 A 
BRANCH  19  20
ATOM     20  C   UNL     1      43.801   3.386  11.880  0.00  0.00    +0.000 C 
ATOM     21  N   UNL     1      44.381   2.453  12.698  0.00  0.00    +0.000 N 
ATOM     22  O   UNL     1      42.765   3.122  11.288  0.00  0.00    +0.000 OA
ATOM     23  H   UNL     1      45.336   2.531  13.023  0.00  0.00    +0.000 HD
ATOM     24  H   UNL     1      43.946   1.539  12.737  0.00  0.00    +0.000 HD
ENDBRANCH  19  20
BRANCH  14  26
ATOM     25  C   UNL     1      44.395   4.212   8.459  0.00  0.00    +0.000 C 
ATOM     26  C   UNL     1      45.560   4.147   9.433  0.00  0.00    +0.000 C 
ENDBRANCH  14  26
ENDBRANCH  13  16
ENDBRANCH  12  13
ENDBRANCH   1  12
BRANCH   3  27
ATOM     27  O   UNL     1      49.070   5.417  16.344  0.00  0.00    +0.000 OA
BRANCH  27  28
ATOM     28  C   UNL     1      47.774   4.782  16.452  0.00  0.00    +0.000 C 
ATOM     29  C   UNL     1      47.155   4.622  17.859  0.00  0.00    +0.000 C 
ATOM     30  N   UNL     1      46.771   3.234  17.523  0.00  0.00    +0.000 NA
ATOM     31  C   UNL     1      47.792   3.236  16.453  0.00  0.00    +0.000 C 
ATOM     32  H   UNL     1      45.816   3.144  17.173  0.00  0.00    +0.000 HD
ENDBRANCH  27  28
ENDBRANCH   3  27
TORSDOF 8
ENDMDL
MODEL 7
REMARK VINA RESULT:    -6.160      3.415      8.206
REMARK INTER + INTRA:         -10.232
REMARK INTER:                  -9.418
REMARK INTRA:                  -0.814
REMARK UNBOUND:                -1.191
REMARK  Name = 
REMARK  9 active torsions:
REMARK  status: ('A' for Active; 'I' for Inactive)
REMARK    1  A    between atoms: C_1  and  C_2
REMARK    2  A    between atoms: C_2  and  C_3
REMARK    3  A    between atoms: C_5  and  C_6
REMARK    4  A    between atoms: C_6  and  C_7
REMARK    5  A    between atoms: C_7  and  C_8
REMARK    6  A    between atoms: C_10  and  O_11
REMARK    7  A    between atoms: O_11  and  C_12
REMARK    8  A    between atoms: C_18  and  C_19
REMARK    9  A    between atoms: C_24  and  C_25
REMARK                            x       y       z     vdW  Elec       q    Type
REMARK                         _______ _______ _______ _____ _____    ______ ____
ROOT
ATOM      1  C   UNL     1      49.235   6.873  15.604  0.00  0.00    +0.000 A 
ATOM      2  C   UNL     1      48.767   5.893  16.512  0.00  0.00    +0.000 A 
ATOM      3  C   UNL     1      49.628   5.252  17.399  0.00  0.00    +0.000 A 
ATOM      4  C   UNL     1      50.987   5.537  17.356  0.00  0.00    +0.000 A 
ATOM      5  C   UNL     1      51.468   6.528  16.497  0.00  0.00    +0.000 A 
ATOM      6  C   UNL     1      50.599   7.245  15.653  0.00  0.00    +0.000 A 
ENDROOT
BRANCH   6   7
ATOM      7  C   UNL     1      51.175   8.372  14.848  0.00  0.00    +0.000 C 
ATOM      8  N   UNL     1      51.047   9.637  15.368  0.00  0.00    +0.000 N 
ATOM      9  O   UNL     1      51.713   8.219  13.759  0.00  0.00    +0.000 OA
ATOM     10  H   UNL     1      50.445   9.860  16.147  0.00  0.00    +0.000 HD
ATOM     11  H   UNL     1      51.380  10.403  14.797  0.00  0.00    +0.000 HD
ENDBRANCH   6   7
BRANCH   1  12
ATOM     12  C   UNL     1      48.205   7.460  14.653  0.00  0.00    +0.000 C 
BRANCH  12  13
ATOM     13  C   UNL     1      48.205   6.751  13.296  0.00  0.00    +0.000 C 
BRANCH  13  16
ATOM     14  C   UNL     1      44.921   5.273  11.936  0.00  0.00    +0.000 A 
ATOM     15  C   UNL     1      45.958   6.179  12.271  0.00  0.00    +0.000 A 
ATOM     16  C   UNL     1      47.049   5.802  13.073  0.00  0.00    +0.000 A 
ATOM     17  C   UNL     1      47.075   4.512  13.600  0.00  0.00    +0.000 A 
ATOM     18  C   UNL     1      46.090   3.589  13.244  0.00  0.00    +0.000 A 
ATOM     19  C   UNL     1      45.045   3.939  12.365  0.00  0.00    +0.000 A 
BRANCH  19  20
ATOM     20  C   UNL     1      44.129   2.838  11.917  0.00  0.00    +0.000 C 
ATOM     21  N   UNL     1      44.264   2.431  10.616  0.00  0.00    +0.000 N 
ATOM     22  O   UNL     1      43.279   2.329  12.634  0.00  0.00    +0.000 OA
ATOM     23  H   UNL     1      44.780   2.965   9.929  0.00  0.00    +0.000 HD
ATOM     24  H   UNL     1      43.600   1.746  10.276  0.00  0.00    +0.000 HD
ENDBRANCH  19  20
BRANCH  14  26
ATOM     25  C   UNL     1      42.398   5.730  11.883  0.00  0.00    +0.000 C 
ATOM     26  C   UNL     1      43.737   5.830  11.171  0.00  0.00    +0.000 C 
ENDBRANCH  14  26
ENDBRANCH  13  16
ENDBRANCH  12  13
ENDBRANCH   1  12
BRANCH   3  27
ATOM     27  O   UNL     1      49.247   4.302  18.314  0.00  0.00    +0.000 OA
BRANCH  27  28
ATOM     28  C   UNL     1      49.173   2.921  17.891  0.00  0.00    +0.000 C 
ATOM     29  C   UNL     1      50.366   2.334  17.103  0.00  0.00    +0.000 C 
ATOM     30  N   UNL     1      49.421   1.701  16.159  0.00  0.00    +0.000 NA
ATOM     31  C   UNL     1      48.385   2.668  16.584  0.00  0.00    +0.000 C 
ATOM     32  H   UNL     1      49.193   0.733  16.390  0.00  0.00    +0.000 HD
ENDBRANCH  27  28
ENDBRANCH   3  27
TORSDOF 8
ENDMDL
MODEL 8
REMARK VINA RESULT:    -6.152      4.075      7.106
REMARK INTER + INTRA:         -10.220
REMARK INTER:                  -9.222
REMARK INTRA:                  -0.998
REMARK UNBOUND:                -1.191
REMARK  Name = 
REMARK  9 active torsions:
REMARK  status: ('A' for Active; 'I' for Inactive)
REMARK    1  A    between atoms: C_1  and  C_2
REMARK    2  A    between atoms: C_2  and  C_3
REMARK    3  A    between atoms: C_5  and  C_6
REMARK    4  A    between atoms: C_6  and  C_7
REMARK    5  A    between atoms: C_7  and  C_8
REMARK    6  A    between atoms: C_10  and  O_11
REMARK    7  A    between atoms: O_11  and  C_12
REMARK    8  A    between atoms: C_18  and  C_19
REMARK    9  A    between atoms: C_24  and  C_25
REMARK                            x       y       z     vdW  Elec       q    Type
REMARK                         _______ _______ _______ _____ _____    ______ ____
ROOT
ATOM      1  C   UNL     1      45.690   6.057  12.323  0.00  0.00    +0.000 A 
ATOM      2  C   UNL     1      46.530   5.968  13.459  0.00  0.00    +0.000 A 
ATOM      3  C   UNL     1      46.907   4.736  13.990  0.00  0.00    +0.000 A 
ATOM      4  C   UNL     1      46.403   3.569  13.429  0.00  0.00    +0.000 A 
ATOM      5  C   UNL     1      45.604   3.629  12.285  0.00  0.00    +0.000 A 
ATOM      6  C   UNL     1      45.282   4.862  11.686  0.00  0.00    +0.000 A 
ENDROOT
BRANCH   6   7
ATOM      7  C   UNL     1      44.520   4.835  10.394  0.00  0.00    +0.000 C 
ATOM      8  N   UNL     1      45.245   4.999   9.240  0.00  0.00    +0.000 N 
ATOM      9  O   UNL     1      43.304   4.709  10.330  0.00  0.00    +0.000 OA
ATOM     10  H   UNL     1      46.207   5.310   9.226  0.00  0.00    +0.000 HD
ATOM     11  H   UNL     1      44.725   5.043   8.373  0.00  0.00    +0.000 HD
ENDBRANCH   6   7
BRANCH   1  12
ATOM     12  C   UNL     1      45.309   7.458  11.874  0.00  0.00    +0.000 C 
BRANCH  12  13
ATOM     13  C   UNL     1      45.828   8.532  12.835  0.00  0.00    +0.000 C 
BRANCH  13  16
ATOM     14  C   UNL     1      49.223   9.790  11.529  0.00  0.00    +0.000 A 
ATOM     15  C   UNL     1      48.228   9.017  12.177  0.00  0.00    +0.000 A 
ATOM     16  C   UNL     1      46.890   9.441  12.260  0.00  0.00    +0.000 A 
ATOM     17  C   UNL     1      46.552  10.688  11.738  0.00  0.00    +0.000 A 
ATOM     18  C   UNL     1      47.506  11.444  11.055  0.00  0.00    +0.000 A 
ATOM     19  C   UNL     1      48.826  10.978  10.889  0.00  0.00    +0.000 A 
BRANCH  19  20
ATOM     20  C   UNL     1      49.733  11.784  10.005  0.00  0.00    +0.000 C 
ATOM     21  N   UNL     1      49.244  12.097   8.764  0.00  0.00    +0.000 N 
ATOM     22  O   UNL     1      50.858  12.134  10.327  0.00  0.00    +0.000 OA
ATOM     23  H   UNL     1      48.429  11.645   8.369  0.00  0.00    +0.000 HD
ATOM     24  H   UNL     1      49.872  12.572   8.128  0.00  0.00    +0.000 HD
ENDBRANCH  19  20
BRANCH  14  26
ATOM     25  C   UNL     1      50.879   7.883  11.080  0.00  0.00    +0.000 C 
ATOM     26  C   UNL     1      50.651   9.288  11.615  0.00  0.00    +0.000 C 
ENDBRANCH  14  26
ENDBRANCH  13  16
ENDBRANCH  12  13
ENDBRANCH   1  12
BRANCH   3  27
ATOM     27  O   UNL     1      47.726   4.570  15.079  0.00  0.00    +0.000 OA
BRANCH  27  28
ATOM     28  C   UNL     1      47.195   3.912  16.253  0.00  0.00    +0.000 C 
ATOM     29  C   UNL     1      47.336   4.627  17.616  0.00  0.00    +0.000 C 
ATOM     30  N   UNL     1      47.754   3.350  18.233  0.00  0.00    +0.000 NA
ATOM     31  C   UNL     1      48.118   2.847  16.891  0.00  0.00    +0.000 C 
ATOM     32  H   UNL     1      46.989   2.832  18.668  0.00  0.00    +0.000 HD
ENDBRANCH  27  28
ENDBRANCH   3  27
TORSDOF 8
ENDMDL
MODEL 9
REMARK VINA RESULT:    -6.046      3.640      5.968
REMARK INTER + INTRA:         -10.065
REMARK INTER:                  -8.777
REMARK INTRA:                  -1.288
REMARK UNBOUND:                -1.191
REMARK  Name = 
REMARK  9 active torsions:
REMARK  status: ('A' for Active; 'I' for Inactive)
REMARK    1  A    between atoms: C_1  and  C_2
REMARK    2  A    between atoms: C_2  and  C_3
REMARK    3  A    between atoms: C_5  and  C_6
REMARK    4  A    between atoms: C_6  and  C_7
REMARK    5  A    between atoms: C_7  and  C_8
REMARK    6  A    between atoms: C_10  and  O_11
REMARK    7  A    between atoms: O_11  and  C_12
REMARK    8  A    between atoms: C_18  and  C_19
REMARK    9  A    between atoms: C_24  and  C_25
REMARK                            x       y       z     vdW  Elec       q    Type
REMARK                         _______ _______ _______ _____ _____    ______ ____
ROOT
ATOM      1  C   UNL     1      48.500   6.809  13.659  0.00  0.00    +0.000 A 
ATOM      2  C   UNL     1      47.353   6.028  13.934  0.00  0.00    +0.000 A 
ATOM      3  C   UNL     1      46.355   5.837  12.980  0.00  0.00    +0.000 A 
ATOM      4  C   UNL     1      46.459   6.474  11.750  0.00  0.00    +0.000 A 
ATOM      5  C   UNL     1      47.599   7.218  11.440  0.00  0.00    +0.000 A 
ATOM      6  C   UNL     1      48.655   7.351  12.362  0.00  0.00    +0.000 A 
ENDROOT
BRANCH   6   7
ATOM      7  C   UNL     1      49.894   8.066  11.909  0.00  0.00    +0.000 C 
ATOM      8  N   UNL     1      50.916   7.291  11.418  0.00  0.00    +0.000 N 
ATOM      9  O   UNL     1      50.041   9.279  11.988  0.00  0.00    +0.000 OA
ATOM     10  H   UNL     1      50.947   6.286  11.513  0.00  0.00    +0.000 HD
ATOM     11  H   UNL     1      51.774   7.766  11.171  0.00  0.00    +0.000 HD
ENDBRANCH   6   7
BRANCH   1  12
ATOM     12  C   UNL     1      49.489   6.983  14.799  0.00  0.00    +0.000 C 
BRANCH  12  13
ATOM     13  C   UNL     1      48.892   7.780  15.962  0.00  0.00    +0.000 C 
BRANCH  13  16
ATOM     14  C   UNL     1      48.679   4.856  18.456  0.00  0.00    +0.000 A 
ATOM     15  C   UNL     1      48.674   5.611  17.257  0.00  0.00    +0.000 A 
ATOM     16  C   UNL     1      48.760   7.015  17.259  0.00  0.00    +0.000 A 
ATOM     17  C   UNL     1      48.793   7.679  18.484  0.00  0.00    +0.000 A 
ATOM     18  C   UNL     1      48.847   6.952  19.675  0.00  0.00    +0.000 A 
ATOM     19  C   UNL     1      48.855   5.543  19.671  0.00  0.00    +0.000 A 
BRANCH  19  20
ATOM     20  C   UNL     1      49.076   4.854  20.985  0.00  0.00    +0.000 C 
ATOM     21  N   UNL     1      50.372   4.525  21.284  0.00  0.00    +0.000 N 
ATOM     22  O   UNL     1      48.175   4.561  21.758  0.00  0.00    +0.000 OA
ATOM     23  H   UNL     1      51.110   4.535  20.592  0.00  0.00    +0.000 HD
ATOM     24  H   UNL     1      50.529   3.990  22.130  0.00  0.00    +0.000 HD
ENDBRANCH  19  20
BRANCH  14  26
ATOM     25  C   UNL     1      48.472   2.819  16.910  0.00  0.00    +0.000 C 
ATOM     26  C   UNL     1      48.454   3.361  18.330  0.00  0.00    +0.000 C 
ENDBRANCH  14  26
ENDBRANCH  13  16
ENDBRANCH  12  13
ENDBRANCH   1  12
BRANCH   3  27
ATOM     27  O   UNL     1      45.223   5.086  13.170  0.00  0.00    +0.000 OA
BRANCH  27  28
ATOM     28  C   UNL     1      44.498   4.616  12.009  0.00  0.00    +0.000 C 
ATOM     29  C   UNL     1      42.955   4.706  12.028  0.00  0.00    +0.000 C 
ATOM     30  N   UNL     1      42.877   3.337  11.473  0.00  0.00    +0.000 NA
ATOM     31  C   UNL     1      44.254   3.090  11.953  0.00  0.00    +0.000 C 
ATOM     32  H   UNL     1      42.790   3.309  10.456  0.00  0.00    +0.000 HD
ENDBRANCH  27  28
ENDBRANCH   3  27
TORSDOF 8
ENDMDL
