MODEL 1
REMARK VINA RESULT:    -8.679      0.000      0.000
REMARK INTER + INTRA:         -14.848
REMARK INTER:                 -13.500
REMARK INTRA:                  -1.348
REMARK UNBOUND:                -1.348
REMARK  Name = 
REMARK  10 active torsions:
REMARK  status: ('A' for Active; 'I' for Inactive)
REMARK    1  A    between atoms: C_2  and  C_23
REMARK    2  A    between atoms: N_3  and  C_4
REMARK    3  A    between atoms: C_4  and  C_5
REMARK    4  A    between atoms: C_9  and  C_10
REMARK    5  A    between atoms: C_10  and  N_11
REMARK    6  A    between atoms: N_11  and  C_12
REMARK    7  A    between atoms: N_11  and  C_15
REMARK    8  A    between atoms: C_12  and  C_13
REMARK    9  A    between atoms: C_13  and  O_14
REMARK   10  A    between atoms: C_15  and  C_16
REMARK                            x       y       z     vdW  Elec       q    Type
REMARK                         _______ _______ _______ _____ _____    ______ ____
ROOT
ATOM      1  C   UNL     1      47.002   5.320  13.912  0.00  0.00    +0.000 A 
ATOM      2  C   UNL     1      48.130   6.110  13.653  0.00  0.00    +0.000 A 
ATOM      3  C   UNL     1      48.189   6.904  12.508  0.00  0.00    +0.000 A 
ATOM      4  C   UNL     1      47.149   6.872  11.582  0.00  0.00    +0.000 A 
ATOM      5  C   UNL     1      46.063   6.007  11.767  0.00  0.00    +0.000 A 
ATOM      6  C   UNL     1      45.980   5.261  12.953  0.00  0.00    +0.000 A 
ENDROOT
BRANCH   1   7
ATOM      7  C   UNL     1      46.900   4.513  15.179  0.00  0.00    +0.000 C 
BRANCH   7  10
ATOM      8  O   UNL     1      47.393   4.766  17.938  0.00  0.00    +0.000 OA
ATOM      9  C   UNL     1      48.325   4.491  17.189  0.00  0.00    +0.000 C 
ATOM     10  N   UNL     1      48.177   4.397  15.830  0.00  0.00    +0.000 N 
ATOM     11  H   UNL     1      48.927   4.006  15.272  0.00  0.00    +0.000 HD
BRANCH   9  12
ATOM     12  C   UNL     1      49.685   4.284  17.709  0.00  0.00    +0.000 A 
ATOM     13  C   UNL     1      50.279   5.274  18.482  0.00  0.00    +0.000 A 
ATOM     14  S   UNL     1      51.849   4.876  19.011  0.00  0.00    +0.000 S 
ATOM     15  C   UNL     1      51.776   3.351  18.259  0.00  0.00    +0.000 A 
ATOM     16  N   UNL     1      52.809   2.472  18.363  0.00  0.00    +0.000 NA
ATOM     17  C   UNL     1      52.605   1.337  17.782  0.00  0.00    +0.000 A 
ATOM     18  N   UNL     1      51.470   1.009  17.090  0.00  0.00    +0.000 N 
ATOM     19  C   UNL     1      50.434   1.893  16.894  0.00  0.00    +0.000 A 
ATOM     20  O   UNL     1      49.495   1.616  16.154  0.00  0.00    +0.000 OA
ATOM     21  C   UNL     1      50.589   3.162  17.579  0.00  0.00    +0.000 A 
ATOM     22  H   UNL     1      51.380   0.112  16.634  0.00  0.00    +0.000 HD
ENDBRANCH   9  12
ENDBRANCH   7  10
ENDBRANCH   1   7
BRANCH   5  23
ATOM     23  C   UNL     1      45.025   5.834  10.678  0.00  0.00    +0.000 C 
BRANCH  23  24
ATOM     24  N   UNL     1      44.626   4.408  10.456  0.00  0.00    +0.000 NA
BRANCH  24  25
ATOM     25  C   UNL     1      43.359   4.125  11.185  0.00  0.00    +0.000 C 
BRANCH  25  26
ATOM     26  C   UNL     1      43.358   2.871  12.082  0.00  0.00    +0.000 C 
BRANCH  26  27
ATOM     27  O   UNL     1      43.244   1.671  11.324  0.00  0.00    +0.000 OA
ATOM     28  H   UNL     1      42.570   1.129  11.771  0.00  0.00    +0.000 HD
ENDBRANCH  26  27
ENDBRANCH  25  26
ENDBRANCH  24  25
BRANCH  24  29
ATOM     29  C   UNL     1      44.458   4.181   8.999  0.00  0.00    +0.000 C 
BRANCH  29  30
ATOM     30  C   UNL     1      45.433   3.187   8.407  0.00  0.00    +0.000 A 
ATOM     31  C   UNL     1      46.341   3.558   7.429  0.00  0.00    +0.000 A 
ATOM     32  C   UNL     1      47.177   2.594   6.888  0.00  0.00    +0.000 A 
ATOM     33  C   UNL     1      47.066   1.303   7.366  0.00  0.00    +0.000 A 
ATOM     34  N   UNL     1      46.184   0.959   8.326  0.00  0.00    +0.000 NA
ATOM     35  N   UNL     1      45.358   1.910   8.848  0.00  0.00    +0.000 NA
ENDBRANCH  29  30
ENDBRANCH  24  29
ENDBRANCH  23  24
ENDBRANCH   5  23
TORSDOF 10
ENDMDL
MODEL 2
REMARK VINA RESULT:    -8.226      2.182      2.940
REMARK INTER + INTRA:         -14.143
REMARK INTER:                 -12.723
REMARK INTRA:                  -1.419
REMARK UNBOUND:                -1.348
REMARK  Name = 
REMARK  10 active torsions:
REMARK  status: ('A' for Active; 'I' for Inactive)
REMARK    1  A    between atoms: C_2  and  C_23
REMARK    2  A    between atoms: N_3  and  C_4
REMARK    3  A    between atoms: C_4  and  C_5
REMARK    4  A    between atoms: C_9  and  C_10
REMARK    5  A    between atoms: C_10  and  N_11
REMARK    6  A    between atoms: N_11  and  C_12
REMARK    7  A    between atoms: N_11  and  C_15
REMARK    8  A    between atoms: C_12  and  C_13
REMARK    9  A    between atoms: C_13  and  O_14
REMARK   10  A    between atoms: C_15  and  C_16
REMARK                            x       y       z     vdW  Elec       q    Type
REMARK                         _______ _______ _______ _____ _____    ______ ____
ROOT
ATOM      1  C   UNL     1      47.265   7.525  12.031  0.00  0.00    +0.000 A 
ATOM      2  C   UNL     1      46.674   8.791  12.135  0.00  0.00    +0.000 A 
ATOM      3  C   UNL     1      45.302   8.949  11.942  0.00  0.00    +0.000 A 
ATOM      4  C   UNL     1      44.517   7.855  11.585  0.00  0.00    +0.000 A 
ATOM      5  C   UNL     1      45.106   6.602  11.369  0.00  0.00    +0.000 A 
ATOM      6  C   UNL     1      46.474   6.438  11.629  0.00  0.00    +0.000 A 
ENDROOT
BRANCH   1   7
ATOM      7  C   UNL     1      48.733   7.334  12.305  0.00  0.00    +0.000 C 
BRANCH   7  10
ATOM      8  O   UNL     1      48.851   8.503  14.862  0.00  0.00    +0.000 OA
ATOM      9  C   UNL     1      48.948   7.284  14.760  0.00  0.00    +0.000 C 
ATOM     10  N   UNL     1      48.948   6.644  13.549  0.00  0.00    +0.000 N 
ATOM     11  H   UNL     1      48.861   5.634  13.518  0.00  0.00    +0.000 HD
BRANCH   9  12
ATOM     12  C   UNL     1      49.115   6.431  15.945  0.00  0.00    +0.000 A 
ATOM     13  C   UNL     1      50.073   6.762  16.896  0.00  0.00    +0.000 A 
ATOM     14  S   UNL     1      50.134   5.676  18.209  0.00  0.00    +0.000 S 
ATOM     15  C   UNL     1      48.857   4.748  17.573  0.00  0.00    +0.000 A 
ATOM     16  N   UNL     1      48.378   3.667  18.246  0.00  0.00    +0.000 NA
ATOM     17  C   UNL     1      47.381   3.079  17.672  0.00  0.00    +0.000 A 
ATOM     18  N   UNL     1      46.832   3.463  16.478  0.00  0.00    +0.000 N 
ATOM     19  C   UNL     1      47.334   4.502  15.727  0.00  0.00    +0.000 A 
ATOM     20  O   UNL     1      46.907   4.731  14.599  0.00  0.00    +0.000 OA
ATOM     21  C   UNL     1      48.416   5.233  16.357  0.00  0.00    +0.000 A 
ATOM     22  H   UNL     1      46.069   2.947  16.067  0.00  0.00    +0.000 HD
ENDBRANCH   9  12
ENDBRANCH   7  10
ENDBRANCH   1   7
BRANCH   5  23
ATOM     23  C   UNL     1      44.289   5.458  10.806  0.00  0.00    +0.000 C 
BRANCH  23  24
ATOM     24  N   UNL     1      45.102   4.239  10.501  0.00  0.00    +0.000 NA
BRANCH  24  25
ATOM     25  C   UNL     1      45.017   3.284  11.640  0.00  0.00    +0.000 C 
BRANCH  25  26
ATOM     26  C   UNL     1      43.614   3.065  12.239  0.00  0.00    +0.000 C 
BRANCH  26  27
ATOM     27  O   UNL     1      42.951   1.948  11.656  0.00  0.00    +0.000 OA
ATOM     28  H   UNL     1      42.753   2.198  10.736  0.00  0.00    +0.000 HD
ENDBRANCH  26  27
ENDBRANCH  25  26
ENDBRANCH  24  25
BRANCH  24  29
ATOM     29  C   UNL     1      44.586   3.620   9.254  0.00  0.00    +0.000 C 
BRANCH  29  30
ATOM     30  C   UNL     1      45.625   2.860   8.460  0.00  0.00    +0.000 A 
ATOM     31  C   UNL     1      46.428   3.493   7.525  0.00  0.00    +0.000 A 
ATOM     32  C   UNL     1      47.330   2.737   6.792  0.00  0.00    +0.000 A 
ATOM     33  C   UNL     1      47.386   1.380   7.042  0.00  0.00    +0.000 A 
ATOM     34  N   UNL     1      46.605   0.780   7.963  0.00  0.00    +0.000 NA
ATOM     35  N   UNL     1      45.715   1.527   8.676  0.00  0.00    +0.000 NA
ENDBRANCH  29  30
ENDBRANCH  24  29
ENDBRANCH  23  24
ENDBRANCH   5  23
TORSDOF 10
ENDMDL
MODEL 3
REMARK VINA RESULT:    -8.160      1.787      2.188
REMARK INTER + INTRA:         -14.040
REMARK INTER:                 -12.937
REMARK INTRA:                  -1.102
REMARK UNBOUND:                -1.348
REMARK  Name = 
REMARK  10 active torsions:
REMARK  status: ('A' for Active; 'I' for Inactive)
REMARK    1  A    between atoms: C_2  and  C_23
REMARK    2  A    between atoms: N_3  and  C_4
REMARK    3  A    between atoms: C_4  and  C_5
REMARK    4  A    between atoms: C_9  and  C_10
REMARK    5  A    between atoms: C_10  and  N_11
REMARK    6  A    between atoms: N_11  and  C_12
REMARK    7  A    between atoms: N_11  and  C_15
REMARK    8  A    between atoms: C_12  and  C_13
REMARK    9  A    between atoms: C_13  and  O_14
REMARK   10  A    between atoms: C_15  and  C_16
REMARK                            x       y       z     vdW  Elec       q    Type
REMARK                         _______ _______ _______ _____ _____    ______ ____
ROOT
ATOM      1  C   UNL     1      47.119   5.028  13.726  0.00  0.00    +0.000 A 
ATOM      2  C   UNL     1      48.104   6.014  13.593  0.00  0.00    +0.000 A 
ATOM      3  C   UNL     1      47.976   7.016  12.631  0.00  0.00    +0.000 A 
ATOM      4  C   UNL     1      46.893   7.008  11.754  0.00  0.00    +0.000 A 
ATOM      5  C   UNL     1      45.955   5.969  11.800  0.00  0.00    +0.000 A 
ATOM      6  C   UNL     1      46.056   5.002  12.811  0.00  0.00    +0.000 A 
ENDROOT
BRANCH   1   7
ATOM      7  C   UNL     1      47.214   3.983  14.806  0.00  0.00    +0.000 C 
BRANCH   7  10
ATOM      8  O   UNL     1      46.551   3.253  17.442  0.00  0.00    +0.000 OA
ATOM      9  C   UNL     1      47.436   4.082  17.258  0.00  0.00    +0.000 C 
ATOM     10  N   UNL     1      47.785   4.525  16.010  0.00  0.00    +0.000 N 
ATOM     11  H   UNL     1      48.627   5.077  15.893  0.00  0.00    +0.000 HD
BRANCH   9  12
ATOM     12  C   UNL     1      48.158   4.689  18.387  0.00  0.00    +0.000 A 
ATOM     13  C   UNL     1      47.470   5.499  19.281  0.00  0.00    +0.000 A 
ATOM     14  S   UNL     1      48.448   6.117  20.533  0.00  0.00    +0.000 S 
ATOM     15  C   UNL     1      49.815   5.292  19.947  0.00  0.00    +0.000 A 
ATOM     16  N   UNL     1      51.007   5.364  20.601  0.00  0.00    +0.000 NA
ATOM     17  C   UNL     1      51.949   4.657  20.073  0.00  0.00    +0.000 A 
ATOM     18  N   UNL     1      51.814   3.898  18.941  0.00  0.00    +0.000 N 
ATOM     19  C   UNL     1      50.651   3.857  18.206  0.00  0.00    +0.000 A 
ATOM     20  O   UNL     1      50.606   3.280  17.124  0.00  0.00    +0.000 OA
ATOM     21  C   UNL     1      49.544   4.587  18.790  0.00  0.00    +0.000 A 
ATOM     22  H   UNL     1      52.597   3.386  18.562  0.00  0.00    +0.000 HD
ENDBRANCH   9  12
ENDBRANCH   7  10
ENDBRANCH   1   7
BRANCH   5  23
ATOM     23  C   UNL     1      44.883   5.857  10.735  0.00  0.00    +0.000 C 
BRANCH  23  24
ATOM     24  N   UNL     1      44.428   4.452  10.494  0.00  0.00    +0.000 NA
BRANCH  24  25
ATOM     25  C   UNL     1      43.162   4.202  11.238  0.00  0.00    +0.000 C 
BRANCH  25  26
ATOM     26  C   UNL     1      42.485   5.439  11.859  0.00  0.00    +0.000 C 
BRANCH  26  27
ATOM     27  O   UNL     1      42.526   5.413  13.282  0.00  0.00    +0.000 OA
ATOM     28  H   UNL     1      42.209   4.533  13.549  0.00  0.00    +0.000 HD
ENDBRANCH  26  27
ENDBRANCH  25  26
ENDBRANCH  24  25
BRANCH  24  29
ATOM     29  C   UNL     1      44.229   4.258   9.036  0.00  0.00    +0.000 C 
BRANCH  29  30
ATOM     30  C   UNL     1      45.288   3.405   8.371  0.00  0.00    +0.000 A 
ATOM     31  C   UNL     1      45.421   2.058   8.662  0.00  0.00    +0.000 A 
ATOM     32  C   UNL     1      46.440   1.338   8.058  0.00  0.00    +0.000 A 
ATOM     33  C   UNL     1      47.270   2.007   7.182  0.00  0.00    +0.000 A 
ATOM     34  N   UNL     1      47.122   3.317   6.900  0.00  0.00    +0.000 NA
ATOM     35  N   UNL     1      46.122   4.023   7.503  0.00  0.00    +0.000 NA
ENDBRANCH  29  30
ENDBRANCH  24  29
ENDBRANCH  23  24
ENDBRANCH   5  23
TORSDOF 10
ENDMDL
MODEL 4
REMARK VINA RESULT:    -7.801      1.798      2.833
REMARK INTER + INTRA:         -13.481
REMARK INTER:                 -12.432
REMARK INTRA:                  -1.049
REMARK UNBOUND:                -1.348
REMARK  Name = 
REMARK  10 active torsions:
REMARK  status: ('A' for Active; 'I' for Inactive)
REMARK    1  A    between atoms: C_2  and  C_23
REMARK    2  A    between atoms: N_3  and  C_4
REMARK    3  A    between atoms: C_4  and  C_5
REMARK    4  A    between atoms: C_9  and  C_10
REMARK    5  A    between atoms: C_10  and  N_11
REMARK    6  A    between atoms: N_11  and  C_12
REMARK    7  A    between atoms: N_11  and  C_15
REMARK    8  A    between atoms: C_12  and  C_13
REMARK    9  A    between atoms: C_13  and  O_14
REMARK   10  A    between atoms: C_15  and  C_16
REMARK                            x       y       z     vdW  Elec       q    Type
REMARK                         _______ _______ _______ _____ _____    ______ ____
ROOT
ATOM      1  C   UNL     1      46.965   5.198  13.826  0.00  0.00    +0.000 A 
ATOM      2  C   UNL     1      48.041   6.089  13.724  0.00  0.00    +0.000 A 
ATOM      3  C   UNL     1      48.126   6.974  12.649  0.00  0.00    +0.000 A 
ATOM      4  C   UNL     1      47.170   6.937  11.637  0.00  0.00    +0.000 A 
ATOM      5  C   UNL     1      46.147   5.979  11.665  0.00  0.00    +0.000 A 
ATOM      6  C   UNL     1      46.032   5.137  12.781  0.00  0.00    +0.000 A 
ENDROOT
BRANCH   1   7
ATOM      7  C   UNL     1      46.829   4.287  15.017  0.00  0.00    +0.000 C 
BRANCH   7  10
ATOM      8  O   UNL     1      48.736   2.838  16.495  0.00  0.00    +0.000 OA
ATOM      9  C   UNL     1      48.531   4.014  16.778  0.00  0.00    +0.000 C 
ATOM     10  N   UNL     1      47.587   4.773  16.138  0.00  0.00    +0.000 N 
ATOM     11  H   UNL     1      47.569   5.776  16.286  0.00  0.00    +0.000 HD
BRANCH   9  12
ATOM     12  C   UNL     1      49.270   4.676  17.863  0.00  0.00    +0.000 A 
ATOM     13  C   UNL     1      50.655   4.575  17.909  0.00  0.00    +0.000 A 
ATOM     14  S   UNL     1      51.356   5.403  19.223  0.00  0.00    +0.000 S 
ATOM     15  C   UNL     1      49.838   5.959  19.755  0.00  0.00    +0.000 A 
ATOM     16  N   UNL     1      49.735   6.775  20.839  0.00  0.00    +0.000 NA
ATOM     17  C   UNL     1      48.531   7.157  21.107  0.00  0.00    +0.000 A 
ATOM     18  N   UNL     1      47.419   6.782  20.401  0.00  0.00    +0.000 N 
ATOM     19  C   UNL     1      47.468   5.899  19.347  0.00  0.00    +0.000 A 
ATOM     20  O   UNL     1      46.440   5.478  18.826  0.00  0.00    +0.000 OA
ATOM     21  C   UNL     1      48.806   5.488  18.968  0.00  0.00    +0.000 A 
ATOM     22  H   UNL     1      46.500   7.095  20.676  0.00  0.00    +0.000 HD
ENDBRANCH   9  12
ENDBRANCH   7  10
ENDBRANCH   1   7
BRANCH   5  23
ATOM     23  C   UNL     1      45.218   5.815  10.480  0.00  0.00    +0.000 C 
BRANCH  23  24
ATOM     24  N   UNL     1      44.797   4.398  10.245  0.00  0.00    +0.000 NA
BRANCH  24  25
ATOM     25  C   UNL     1      43.500   4.141  10.930  0.00  0.00    +0.000 C 
BRANCH  25  26
ATOM     26  C   UNL     1      43.296   2.717  11.484  0.00  0.00    +0.000 C 
BRANCH  26  27
ATOM     27  O   UNL     1      44.085   2.476  12.645  0.00  0.00    +0.000 OA
ATOM     28  H   UNL     1      44.961   2.860  12.464  0.00  0.00    +0.000 HD
ENDBRANCH  26  27
ENDBRANCH  25  26
ENDBRANCH  24  25
BRANCH  24  29
ATOM     29  C   UNL     1      44.674   4.173   8.783  0.00  0.00    +0.000 C 
BRANCH  29  30
ATOM     30  C   UNL     1      45.640   3.150   8.226  0.00  0.00    +0.000 A 
ATOM     31  C   UNL     1      46.587   3.491   7.275  0.00  0.00    +0.000 A 
ATOM     32  C   UNL     1      47.414   2.501   6.766  0.00  0.00    +0.000 A 
ATOM     33  C   UNL     1      47.253   1.217   7.246  0.00  0.00    +0.000 A 
ATOM     34  N   UNL     1      46.332   0.902   8.180  0.00  0.00    +0.000 NA
ATOM     35  N   UNL     1      45.517   1.878   8.671  0.00  0.00    +0.000 NA
ENDBRANCH  29  30
ENDBRANCH  24  29
ENDBRANCH  23  24
ENDBRANCH   5  23
TORSDOF 10
ENDMDL
MODEL 5
REMARK VINA RESULT:    -7.424      3.064      3.583
REMARK INTER + INTRA:         -12.896
REMARK INTER:                 -12.057
REMARK INTRA:                  -0.839
REMARK UNBOUND:                -1.348
REMARK  Name = 
REMARK  10 active torsions:
REMARK  status: ('A' for Active; 'I' for Inactive)
REMARK    1  A    between atoms: C_2  and  C_23
REMARK    2  A    between atoms: N_3  and  C_4
REMARK    3  A    between atoms: C_4  and  C_5
REMARK    4  A    between atoms: C_9  and  C_10
REMARK    5  A    between atoms: C_10  and  N_11
REMARK    6  A    between atoms: N_11  and  C_12
REMARK    7  A    between atoms: N_11  and  C_15
REMARK    8  A    between atoms: C_12  and  C_13
REMARK    9  A    between atoms: C_13  and  O_14
REMARK   10  A    between atoms: C_15  and  C_16
REMARK                            x       y       z     vdW  Elec       q    Type
REMARK                         _______ _______ _______ _____ _____    ______ ____
ROOT
ATOM      1  C   UNL     1      47.593   6.312  13.696  0.00  0.00    +0.000 A 
ATOM      2  C   UNL     1      47.470   5.186  14.521  0.00  0.00    +0.000 A 
ATOM      3  C   UNL     1      46.703   4.094  14.116  0.00  0.00    +0.000 A 
ATOM      4  C   UNL     1      46.004   4.140  12.912  0.00  0.00    +0.000 A 
ATOM      5  C   UNL     1      46.026   5.299  12.125  0.00  0.00    +0.000 A 
ATOM      6  C   UNL     1      46.851   6.367  12.507  0.00  0.00    +0.000 A 
ENDROOT
BRANCH   1   7
ATOM      7  C   UNL     1      48.474   7.467  14.094  0.00  0.00    +0.000 C 
BRANCH   7  10
ATOM      8  O   UNL     1      50.280   6.427  15.985  0.00  0.00    +0.000 OA
ATOM      9  C   UNL     1      49.386   7.177  16.364  0.00  0.00    +0.000 C 
ATOM     10  N   UNL     1      48.440   7.686  15.515  0.00  0.00    +0.000 N 
ATOM     11  H   UNL     1      47.828   8.428  15.836  0.00  0.00    +0.000 HD
BRANCH   9  12
ATOM     12  C   UNL     1      49.251   7.545  17.781  0.00  0.00    +0.000 A 
ATOM     13  C   UNL     1      49.885   8.688  18.254  0.00  0.00    +0.000 A 
ATOM     14  S   UNL     1      49.623   8.977  19.913  0.00  0.00    +0.000 S 
ATOM     15  C   UNL     1      48.622   7.608  20.050  0.00  0.00    +0.000 A 
ATOM     16  N   UNL     1      48.022   7.298  21.231  0.00  0.00    +0.000 NA
ATOM     17  C   UNL     1      47.256   6.260  21.185  0.00  0.00    +0.000 A 
ATOM     18  N   UNL     1      47.049   5.493  20.070  0.00  0.00    +0.000 N 
ATOM     19  C   UNL     1      47.694   5.724  18.876  0.00  0.00    +0.000 A 
ATOM     20  O   UNL     1      47.593   4.938  17.939  0.00  0.00    +0.000 OA
ATOM     21  C   UNL     1      48.520   6.915  18.859  0.00  0.00    +0.000 A 
ATOM     22  H   UNL     1      46.457   4.676  20.104  0.00  0.00    +0.000 HD
ENDBRANCH   9  12
ENDBRANCH   7  10
ENDBRANCH   1   7
BRANCH   5  23
ATOM     23  C   UNL     1      45.125   5.420  10.913  0.00  0.00    +0.000 C 
BRANCH  23  24
ATOM     24  N   UNL     1      44.434   4.142  10.555  0.00  0.00    +0.000 NA
BRANCH  24  25
ATOM     25  C   UNL     1      43.085   4.109  11.185  0.00  0.00    +0.000 C 
BRANCH  25  26
ATOM     26  C   UNL     1      42.565   5.448  11.745  0.00  0.00    +0.000 C 
BRANCH  26  27
ATOM     27  O   UNL     1      42.454   5.427  13.164  0.00  0.00    +0.000 OA
ATOM     28  H   UNL     1      42.633   4.511  13.439  0.00  0.00    +0.000 HD
ENDBRANCH  26  27
ENDBRANCH  25  26
ENDBRANCH  24  25
BRANCH  24  29
ATOM     29  C   UNL     1      44.327   4.055   9.077  0.00  0.00    +0.000 C 
BRANCH  29  30
ATOM     30  C   UNL     1      45.382   3.188   8.425  0.00  0.00    +0.000 A 
ATOM     31  C   UNL     1      46.254   3.698   7.479  0.00  0.00    +0.000 A 
ATOM     32  C   UNL     1      47.169   2.845   6.880  0.00  0.00    +0.000 A 
ATOM     33  C   UNL     1      47.167   1.522   7.271  0.00  0.00    +0.000 A 
ATOM     34  N   UNL     1      46.317   1.041   8.201  0.00  0.00    +0.000 NA
ATOM     35  N   UNL     1      45.415   1.883   8.781  0.00  0.00    +0.000 NA
ENDBRANCH  29  30
ENDBRANCH  24  29
ENDBRANCH  23  24
ENDBRANCH   5  23
TORSDOF 10
ENDMDL
MODEL 6
REMARK VINA RESULT:    -7.346      4.654      7.302
REMARK INTER + INTRA:         -12.774
REMARK INTER:                 -11.105
REMARK INTRA:                  -1.669
REMARK UNBOUND:                -1.348
REMARK  Name = 
REMARK  10 active torsions:
REMARK  status: ('A' for Active; 'I' for Inactive)
REMARK    1  A    between atoms: C_2  and  C_23
REMARK    2  A    between atoms: N_3  and  C_4
REMARK    3  A    between atoms: C_4  and  C_5
REMARK    4  A    between atoms: C_9  and  C_10
REMARK    5  A    between atoms: C_10  and  N_11
REMARK    6  A    between atoms: N_11  and  C_12
REMARK    7  A    between atoms: N_11  and  C_15
REMARK    8  A    between atoms: C_12  and  C_13
REMARK    9  A    between atoms: C_13  and  O_14
REMARK   10  A    between atoms: C_15  and  C_16
REMARK                            x       y       z     vdW  Elec       q    Type
REMARK                         _______ _______ _______ _____ _____    ______ ____
ROOT
ATOM      1  C   UNL     1      47.894   6.453  14.113  0.00  0.00    +0.000 A 
ATOM      2  C   UNL     1      47.908   5.726  15.310  0.00  0.00    +0.000 A 
ATOM      3  C   UNL     1      47.330   4.458  15.374  0.00  0.00    +0.000 A 
ATOM      4  C   UNL     1      46.680   3.931  14.261  0.00  0.00    +0.000 A 
ATOM      5  C   UNL     1      46.559   4.687  13.088  0.00  0.00    +0.000 A 
ATOM      6  C   UNL     1      47.200   5.932  13.011  0.00  0.00    +0.000 A 
ENDROOT
BRANCH   1   7
ATOM      7  C   UNL     1      48.577   7.792  14.016  0.00  0.00    +0.000 C 
BRANCH   7  10
ATOM      8  O   UNL     1      48.706   9.213  11.591  0.00  0.00    +0.000 OA
ATOM      9  C   UNL     1      47.774   9.429  12.358  0.00  0.00    +0.000 C 
ATOM     10  N   UNL     1      47.665   8.813  13.577  0.00  0.00    +0.000 N 
ATOM     11  H   UNL     1      46.800   8.893  14.101  0.00  0.00    +0.000 HD
BRANCH   9  12
ATOM     12  C   UNL     1      46.725  10.405  12.029  0.00  0.00    +0.000 A 
ATOM     13  C   UNL     1      47.012  11.764  12.093  0.00  0.00    +0.000 A 
ATOM     14  S   UNL     1      45.693  12.759  11.675  0.00  0.00    +0.000 S 
ATOM     15  C   UNL     1      44.706  11.411  11.354  0.00  0.00    +0.000 A 
ATOM     16  N   UNL     1      43.431  11.571  10.905  0.00  0.00    +0.000 NA
ATOM     17  C   UNL     1      42.808  10.467  10.661  0.00  0.00    +0.000 A 
ATOM     18  N   UNL     1      43.337   9.217  10.843  0.00  0.00    +0.000 N 
ATOM     19  C   UNL     1      44.592   9.008  11.367  0.00  0.00    +0.000 A 
ATOM     20  O   UNL     1      44.982   7.878  11.647  0.00  0.00    +0.000 OA
ATOM     21  C   UNL     1      45.356  10.218  11.601  0.00  0.00    +0.000 A 
ATOM     22  H   UNL     1      42.789   8.389  10.658  0.00  0.00    +0.000 HD
ENDBRANCH   9  12
ENDBRANCH   7  10
ENDBRANCH   1   7
BRANCH   5  23
ATOM     23  C   UNL     1      45.699   4.194  11.943  0.00  0.00    +0.000 C 
BRANCH  23  24
ATOM     24  N   UNL     1      44.311   3.819  12.359  0.00  0.00    +0.000 NA
BRANCH  24  25
ATOM     25  C   UNL     1      43.558   5.042  12.749  0.00  0.00    +0.000 C 
BRANCH  25  26
ATOM     26  C   UNL     1      42.341   5.398  11.873  0.00  0.00    +0.000 C 
BRANCH  26  27
ATOM     27  O   UNL     1      42.686   6.281  10.811  0.00  0.00    +0.000 OA
ATOM     28  H   UNL     1      42.358   7.161  11.070  0.00  0.00    +0.000 HD
ENDBRANCH  26  27
ENDBRANCH  25  26
ENDBRANCH  24  25
BRANCH  24  29
ATOM     29  C   UNL     1      43.644   3.128  11.226  0.00  0.00    +0.000 C 
BRANCH  29  30
ATOM     30  C   UNL     1      44.424   3.161   9.930  0.00  0.00    +0.000 A 
ATOM     31  C   UNL     1      45.056   2.031   9.437  0.00  0.00    +0.000 A 
ATOM     32  C   UNL     1      45.796   2.132   8.269  0.00  0.00    +0.000 A 
ATOM     33  C   UNL     1      45.857   3.363   7.649  0.00  0.00    +0.000 A 
ATOM     34  N   UNL     1      45.227   4.452   8.135  0.00  0.00    +0.000 NA
ATOM     35  N   UNL     1      44.506   4.349   9.288  0.00  0.00    +0.000 NA
ENDBRANCH  29  30
ENDBRANCH  24  29
ENDBRANCH  23  24
ENDBRANCH   5  23
TORSDOF 10
ENDMDL
MODEL 7
REMARK VINA RESULT:    -6.948      2.636      3.728
REMARK INTER + INTRA:         -12.155
REMARK INTER:                 -10.130
REMARK INTRA:                  -2.025
REMARK UNBOUND:                -1.348
REMARK  Name = 
REMARK  10 active torsions:
REMARK  status: ('A' for Active; 'I' for Inactive)
REMARK    1  A    between atoms: C_2  and  C_23
REMARK    2  A    between atoms: N_3  and  C_4
REMARK    3  A    between atoms: C_4  and  C_5
REMARK    4  A    between atoms: C_9  and  C_10
REMARK    5  A    between atoms: C_10  and  N_11
REMARK    6  A    between atoms: N_11  and  C_12
REMARK    7  A    between atoms: N_11  and  C_15
REMARK    8  A    between atoms: C_12  and  C_13
REMARK    9  A    between atoms: C_13  and  O_14
REMARK   10  A    between atoms: C_15  and  C_16
REMARK                            x       y       z     vdW  Elec       q    Type
REMARK                         _______ _______ _______ _____ _____    ______ ____
ROOT
ATOM      1  C   UNL     1      49.381   8.811  13.838  0.00  0.00    +0.000 A 
ATOM      2  C   UNL     1      50.349   8.406  12.910  0.00  0.00    +0.000 A 
ATOM      3  C   UNL     1      49.970   7.824  11.701  0.00  0.00    +0.000 A 
ATOM      4  C   UNL     1      48.624   7.586  11.433  0.00  0.00    +0.000 A 
ATOM      5  C   UNL     1      47.648   7.883  12.393  0.00  0.00    +0.000 A 
ATOM      6  C   UNL     1      48.032   8.529  13.578  0.00  0.00    +0.000 A 
ENDROOT
BRANCH   1   7
ATOM      7  C   UNL     1      49.778   9.504  15.115  0.00  0.00    +0.000 C 
BRANCH   7  10
ATOM      8  O   UNL     1      47.750   9.560  17.065  0.00  0.00    +0.000 OA
ATOM      9  C   UNL     1      48.613   8.691  17.128  0.00  0.00    +0.000 C 
ATOM     10  N   UNL     1      49.659   8.624  16.246  0.00  0.00    +0.000 N 
ATOM     11  H   UNL     1      50.249   7.799  16.232  0.00  0.00    +0.000 HD
BRANCH   9  12
ATOM     12  C   UNL     1      48.599   7.679  18.195  0.00  0.00    +0.000 A 
ATOM     13  C   UNL     1      48.506   8.085  19.521  0.00  0.00    +0.000 A 
ATOM     14  S   UNL     1      48.495   6.792  20.631  0.00  0.00    +0.000 S 
ATOM     15  C   UNL     1      48.575   5.643  19.379  0.00  0.00    +0.000 A 
ATOM     16  N   UNL     1      48.559   4.310  19.653  0.00  0.00    +0.000 NA
ATOM     17  C   UNL     1      48.582   3.550  18.609  0.00  0.00    +0.000 A 
ATOM     18  N   UNL     1      48.638   4.001  17.317  0.00  0.00    +0.000 N 
ATOM     19  C   UNL     1      48.733   5.336  16.997  0.00  0.00    +0.000 A 
ATOM     20  O   UNL     1      48.922   5.698  15.840  0.00  0.00    +0.000 OA
ATOM     21  C   UNL     1      48.651   6.234  18.132  0.00  0.00    +0.000 A 
ATOM     22  H   UNL     1      48.679   3.355  16.543  0.00  0.00    +0.000 HD
ENDBRANCH   9  12
ENDBRANCH   7  10
ENDBRANCH   1   7
BRANCH   5  23
ATOM     23  C   UNL     1      46.210   7.460  12.181  0.00  0.00    +0.000 C 
BRANCH  23  24
ATOM     24  N   UNL     1      46.056   6.001  11.884  0.00  0.00    +0.000 NA
BRANCH  24  25
ATOM     25  C   UNL     1      45.793   5.258  13.148  0.00  0.00    +0.000 C 
BRANCH  25  26
ATOM     26  C   UNL     1      46.821   4.173  13.523  0.00  0.00    +0.000 C 
BRANCH  26  27
ATOM     27  O   UNL     1      46.701   3.769  14.883  0.00  0.00    +0.000 OA
ATOM     28  H   UNL     1      46.869   2.811  14.899  0.00  0.00    +0.000 HD
ENDBRANCH  26  27
ENDBRANCH  25  26
ENDBRANCH  24  25
BRANCH  24  29
ATOM     29  C   UNL     1      44.936   5.824  10.926  0.00  0.00    +0.000 C 
BRANCH  29  30
ATOM     30  C   UNL     1      45.193   4.793   9.849  0.00  0.00    +0.000 A 
ATOM     31  C   UNL     1      44.781   3.479   9.991  0.00  0.00    +0.000 A 
ATOM     32  C   UNL     1      45.087   2.567   8.993  0.00  0.00    +0.000 A 
ATOM     33  C   UNL     1      45.786   3.025   7.895  0.00  0.00    +0.000 A 
ATOM     34  N   UNL     1      46.172   4.310   7.765  0.00  0.00    +0.000 NA
ATOM     35  N   UNL     1      45.875   5.201   8.754  0.00  0.00    +0.000 NA
ENDBRANCH  29  30
ENDBRANCH  24  29
ENDBRANCH  23  24
ENDBRANCH   5  23
TORSDOF 10
ENDMDL
MODEL 8
REMARK VINA RESULT:    -6.901      3.191      8.793
REMARK INTER + INTRA:         -12.082
REMARK INTER:                 -10.708
REMARK INTRA:                  -1.374
REMARK UNBOUND:                -1.348
REMARK  Name = 
REMARK  10 active torsions:
REMARK  status: ('A' for Active; 'I' for Inactive)
REMARK    1  A    between atoms: C_2  and  C_23
REMARK    2  A    between atoms: N_3  and  C_4
REMARK    3  A    between atoms: C_4  and  C_5
REMARK    4  A    between atoms: C_9  and  C_10
REMARK    5  A    between atoms: C_10  and  N_11
REMARK    6  A    between atoms: N_11  and  C_12
REMARK    7  A    between atoms: N_11  and  C_15
REMARK    8  A    between atoms: C_12  and  C_13
REMARK    9  A    between atoms: C_13  and  O_14
REMARK   10  A    between atoms: C_15  and  C_16
REMARK                            x       y       z     vdW  Elec       q    Type
REMARK                         _______ _______ _______ _____ _____    ______ ____
ROOT
ATOM      1  C   UNL     1      48.778   7.485  13.753  0.00  0.00    +0.000 A 
ATOM      2  C   UNL     1      49.714   8.279  14.428  0.00  0.00    +0.000 A 
ATOM      3  C   UNL     1      50.175   7.908  15.691  0.00  0.00    +0.000 A 
ATOM      4  C   UNL     1      49.663   6.773  16.316  0.00  0.00    +0.000 A 
ATOM      5  C   UNL     1      48.647   6.026  15.704  0.00  0.00    +0.000 A 
ATOM      6  C   UNL     1      48.236   6.369  14.408  0.00  0.00    +0.000 A 
ENDROOT
BRANCH   1   7
ATOM      7  C   UNL     1      48.326   7.841  12.361  0.00  0.00    +0.000 C 
BRANCH   7  10
ATOM      8  O   UNL     1      45.562   7.853  11.831  0.00  0.00    +0.000 OA
ATOM      9  C   UNL     1      46.227   6.876  11.503  0.00  0.00    +0.000 C 
ATOM     10  N   UNL     1      47.567   6.773  11.768  0.00  0.00    +0.000 N 
ATOM     11  H   UNL     1      48.106   6.031  11.334  0.00  0.00    +0.000 HD
BRANCH   9  12
ATOM     12  C   UNL     1      45.608   5.723  10.833  0.00  0.00    +0.000 A 
ATOM     13  C   UNL     1      45.816   5.529   9.473  0.00  0.00    +0.000 A 
ATOM     14  S   UNL     1      45.036   4.146   8.853  0.00  0.00    +0.000 S 
ATOM     15  C   UNL     1      44.426   3.735  10.387  0.00  0.00    +0.000 A 
ATOM     16  N   UNL     1      43.687   2.606  10.564  0.00  0.00    +0.000 NA
ATOM     17  C   UNL     1      43.322   2.392  11.784  0.00  0.00    +0.000 A 
ATOM     18  N   UNL     1      43.614   3.213  12.840  0.00  0.00    +0.000 N 
ATOM     19  C   UNL     1      44.291   4.402  12.695  0.00  0.00    +0.000 A 
ATOM     20  O   UNL     1      44.415   5.180  13.636  0.00  0.00    +0.000 OA
ATOM     21  C   UNL     1      44.775   4.659  11.353  0.00  0.00    +0.000 A 
ATOM     22  H   UNL     1      43.278   3.004  13.769  0.00  0.00    +0.000 HD
ENDBRANCH   9  12
ENDBRANCH   7  10
ENDBRANCH   1   7
BRANCH   5  23
ATOM     23  C   UNL     1      47.962   4.904  16.456  0.00  0.00    +0.000 C 
BRANCH  23  24
ATOM     24  N   UNL     1      48.819   4.286  17.515  0.00  0.00    +0.000 NA
BRANCH  24  25
ATOM     25  C   UNL     1      48.065   4.228  18.798  0.00  0.00    +0.000 C 
BRANCH  25  26
ATOM     26  C   UNL     1      48.822   4.708  20.052  0.00  0.00    +0.000 C 
BRANCH  26  27
ATOM     27  O   UNL     1      48.457   3.969  21.213  0.00  0.00    +0.000 OA
ATOM     28  H   UNL     1      47.562   3.625  21.048  0.00  0.00    +0.000 HD
ENDBRANCH  26  27
ENDBRANCH  25  26
ENDBRANCH  24  25
BRANCH  24  29
ATOM     29  C   UNL     1      49.215   2.925  17.075  0.00  0.00    +0.000 C 
BRANCH  29  30
ATOM     30  C   UNL     1      50.643   2.552  17.409  0.00  0.00    +0.000 A 
ATOM     31  C   UNL     1      51.576   3.510  17.767  0.00  0.00    +0.000 A 
ATOM     32  C   UNL     1      52.882   3.116  18.017  0.00  0.00    +0.000 A 
ATOM     33  C   UNL     1      53.182   1.774  17.902  0.00  0.00    +0.000 A 
ATOM     34  N   UNL     1      52.260   0.851  17.562  0.00  0.00    +0.000 NA
ATOM     35  N   UNL     1      50.979   1.245  17.311  0.00  0.00    +0.000 NA
ENDBRANCH  29  30
ENDBRANCH  24  29
ENDBRANCH  23  24
ENDBRANCH   5  23
TORSDOF 10
ENDMDL
MODEL 9
REMARK VINA RESULT:    -6.586      3.289      5.567
REMARK INTER + INTRA:         -11.593
REMARK INTER:                 -10.141
REMARK INTRA:                  -1.452
REMARK UNBOUND:                -1.348
REMARK  Name = 
REMARK  10 active torsions:
REMARK  status: ('A' for Active; 'I' for Inactive)
REMARK    1  A    between atoms: C_2  and  C_23
REMARK    2  A    between atoms: N_3  and  C_4
REMARK    3  A    between atoms: C_4  and  C_5
REMARK    4  A    between atoms: C_9  and  C_10
REMARK    5  A    between atoms: C_10  and  N_11
REMARK    6  A    between atoms: N_11  and  C_12
REMARK    7  A    between atoms: N_11  and  C_15
REMARK    8  A    between atoms: C_12  and  C_13
REMARK    9  A    between atoms: C_13  and  O_14
REMARK   10  A    between atoms: C_15  and  C_16
REMARK                            x       y       z     vdW  Elec       q    Type
REMARK                         _______ _______ _______ _____ _____    ______ ____
ROOT
ATOM      1  C   UNL     1      46.244   5.134  13.272  0.00  0.00    +0.000 A 
ATOM      2  C   UNL     1      45.238   5.054  12.301  0.00  0.00    +0.000 A 
ATOM      3  C   UNL     1      45.319   5.813  11.134  0.00  0.00    +0.000 A 
ATOM      4  C   UNL     1      46.376   6.703  10.953  0.00  0.00    +0.000 A 
ATOM      5  C   UNL     1      47.333   6.879  11.960  0.00  0.00    +0.000 A 
ATOM      6  C   UNL     1      47.279   6.064  13.102  0.00  0.00    +0.000 A 
ENDROOT
BRANCH   1   7
ATOM      7  C   UNL     1      46.198   4.267  14.503  0.00  0.00    +0.000 C 
BRANCH   7  10
ATOM      8  O   UNL     1      46.557   3.238  17.097  0.00  0.00    +0.000 OA
ATOM      9  C   UNL     1      47.404   3.995  16.635  0.00  0.00    +0.000 C 
ATOM     10  N   UNL     1      47.279   4.575  15.400  0.00  0.00    +0.000 N 
ATOM     11  H   UNL     1      48.074   5.055  14.991  0.00  0.00    +0.000 HD
BRANCH   9  12
ATOM     12  C   UNL     1      48.600   4.363  17.407  0.00  0.00    +0.000 A 
ATOM     13  C   UNL     1      48.606   5.547  18.134  0.00  0.00    +0.000 A 
ATOM     14  S   UNL     1      50.062   5.822  18.977  0.00  0.00    +0.000 S 
ATOM     15  C   UNL     1      50.720   4.350  18.432  0.00  0.00    +0.000 A 
ATOM     16  N   UNL     1      51.958   3.950  18.831  0.00  0.00    +0.000 NA
ATOM     17  C   UNL     1      52.317   2.795  18.378  0.00  0.00    +0.000 A 
ATOM     18  N   UNL     1      51.559   2.013  17.548  0.00  0.00    +0.000 N 
ATOM     19  C   UNL     1      50.336   2.412  17.059  0.00  0.00    +0.000 A 
ATOM     20  O   UNL     1      49.747   1.750  16.210  0.00  0.00    +0.000 OA
ATOM     21  C   UNL     1      49.861   3.676  17.586  0.00  0.00    +0.000 A 
ATOM     22  H   UNL     1      51.907   1.129  17.207  0.00  0.00    +0.000 HD
ENDBRANCH   9  12
ENDBRANCH   7  10
ENDBRANCH   1   7
BRANCH   5  23
ATOM     23  C   UNL     1      48.374   7.973  11.847  0.00  0.00    +0.000 C 
BRANCH  23  24
ATOM     24  N   UNL     1      48.039   9.199  12.637  0.00  0.00    +0.000 NA
BRANCH  24  25
ATOM     25  C   UNL     1      49.089   9.433  13.666  0.00  0.00    +0.000 C 
BRANCH  25  26
ATOM     26  C   UNL     1      48.643   9.295  15.135  0.00  0.00    +0.000 C 
BRANCH  26  27
ATOM     27  O   UNL     1      47.249   9.027  15.248  0.00  0.00    +0.000 OA
ATOM     28  H   UNL     1      46.843   9.337  14.419  0.00  0.00    +0.000 HD
ENDBRANCH  26  27
ENDBRANCH  25  26
ENDBRANCH  24  25
BRANCH  24  29
ATOM     29  C   UNL     1      47.943  10.354  11.710  0.00  0.00    +0.000 C 
BRANCH  29  30
ATOM     30  C   UNL     1      46.535  10.866  11.495  0.00  0.00    +0.000 A 
ATOM     31  C   UNL     1      46.280  11.968  10.697  0.00  0.00    +0.000 A 
ATOM     32  C   UNL     1      44.975  12.421  10.575  0.00  0.00    +0.000 A 
ATOM     33  C   UNL     1      43.990  11.737  11.257  0.00  0.00    +0.000 A 
ATOM     34  N   UNL     1      44.252  10.659  12.024  0.00  0.00    +0.000 NA
ATOM     35  N   UNL     1      45.538  10.222  12.145  0.00  0.00    +0.000 NA
ENDBRANCH  29  30
ENDBRANCH  24  29
ENDBRANCH  23  24
ENDBRANCH   5  23
TORSDOF 10
ENDMDL
