MODEL 1
REMARK VINA RESULT:    -6.801      0.000      0.000
REMARK INTER + INTRA:          -9.385
REMARK INTER:                  -8.988
REMARK INTRA:                  -0.397
REMARK UNBOUND:                -0.397
REMARK  Name = 
REMARK  6 active torsions:
REMARK  status: ('A' for Active; 'I' for Inactive)
REMARK    1  A    between atoms: N_1  and  C_2
REMARK    2  A    between atoms: C_2  and  C_3
REMARK    3  A    between atoms: C_7  and  O_8
REMARK    4  A    between atoms: O_8  and  C_9
REMARK    5  A    between atoms: C_10  and  C_11
REMARK    6  A    between atoms: C_15  and  C_16
REMARK                            x       y       z     vdW  Elec       q    Type
REMARK                         _______ _______ _______ _____ _____    ______ ____
ROOT
ATOM      1  C   UNL     1      45.869   5.759  11.363  0.00  0.00    +0.000 C 
ATOM      2  C   UNL     1      45.696   5.232  12.582  0.00  0.00    +0.000 C 
ENDROOT
BRANCH   2   3
ATOM      3  C   UNL     1      46.660   5.384  13.685  0.00  0.00    +0.000 A 
ATOM      4  C   UNL     1      47.573   6.442  13.749  0.00  0.00    +0.000 A 
ATOM      5  C   UNL     1      48.471   6.496  14.807  0.00  0.00    +0.000 A 
ATOM      6  N   UNL     1      48.516   5.588  15.803  0.00  0.00    +0.000 NA
ATOM      7  C   UNL     1      47.603   4.580  15.736  0.00  0.00    +0.000 A 
ATOM      8  C   UNL     1      46.666   4.443  14.717  0.00  0.00    +0.000 A 
BRANCH   7   9
ATOM      9  C   UNL     1      47.652   3.564  16.835  0.00  0.00    +0.000 C 
ATOM     10  N   UNL     1      48.908   3.209  17.253  0.00  0.00    +0.000 N 
ATOM     11  O   UNL     1      46.645   3.076  17.333  0.00  0.00    +0.000 OA
ATOM     12  H   UNL     1      49.719   3.628  16.814  0.00  0.00    +0.000 HD
ATOM     13  H   UNL     1      49.015   2.523  17.984  0.00  0.00    +0.000 HD
ENDBRANCH   7   9
ENDBRANCH   2   3
BRANCH   1  14
ATOM     14  O   UNL     1      44.993   5.531  10.322  0.00  0.00    +0.000 OA
BRANCH  14  19
ATOM     15  C   UNL     1      46.077   3.331   7.590  0.00  0.00    +0.000 A 
ATOM     16  C   UNL     1      45.536   2.105   8.008  0.00  0.00    +0.000 A 
ATOM     17  C   UNL     1      44.786   2.018   9.180  0.00  0.00    +0.000 A 
ATOM     18  C   UNL     1      44.584   3.154   9.962  0.00  0.00    +0.000 A 
ATOM     19  C   UNL     1      45.158   4.372   9.590  0.00  0.00    +0.000 A 
ATOM     20  C   UNL     1      45.882   4.466   8.396  0.00  0.00    +0.000 A 
BRANCH  15  21
ATOM     21  C   UNL     1      46.875   3.405   6.312  0.00  0.00    +0.000 C 
BRANCH  21  22
ATOM     22  N   UNL     1      48.207   2.829   6.470  0.00  0.00    +0.000 NA
ATOM     23  H   UNL     1      48.773   3.444   7.050  0.00  0.00    +0.000 HD
ATOM     24  H   UNL     1      48.659   2.794   5.557  0.00  0.00    +0.000 HD
ENDBRANCH  21  22
ENDBRANCH  15  21
ENDBRANCH  14  19
ENDBRANCH   1  14
TORSDOF 6
ENDMDL
MODEL 2
REMARK VINA RESULT:    -6.526      3.647      7.956
REMARK INTER + INTRA:          -9.021
REMARK INTER:                  -8.577
REMARK INTRA:                  -0.444
REMARK UNBOUND:                -0.397
REMARK  Name = 
REMARK  6 active torsions:
REMARK  status: ('A' for Active; 'I' for Inactive)
REMARK    1  A    between atoms: N_1  and  C_2
REMARK    2  A    between atoms: C_2  and  C_3
REMARK    3  A    between atoms: C_7  and  O_8
REMARK    4  A    between atoms: O_8  and  C_9
REMARK    5  A    between atoms: C_10  and  C_11
REMARK    6  A    between atoms: C_15  and  C_16
REMARK                            x       y       z     vdW  Elec       q    Type
REMARK                         _______ _______ _______ _____ _____    ______ ____
ROOT
ATOM      1  C   UNL     1      46.976   4.122  15.744  0.00  0.00    +0.000 C 
ATOM      2  C   UNL     1      47.068   3.943  14.419  0.00  0.00    +0.000 C 
ENDROOT
BRANCH   2   3
ATOM      3  C   UNL     1      46.412   4.814  13.429  0.00  0.00    +0.000 A 
ATOM      4  C   UNL     1      47.031   5.949  12.892  0.00  0.00    +0.000 A 
ATOM      5  C   UNL     1      46.331   6.734  11.987  0.00  0.00    +0.000 A 
ATOM      6  N   UNL     1      45.076   6.469  11.570  0.00  0.00    +0.000 NA
ATOM      7  C   UNL     1      44.500   5.346  12.084  0.00  0.00    +0.000 A 
ATOM      8  C   UNL     1      45.122   4.498  12.995  0.00  0.00    +0.000 A 
BRANCH   7   9
ATOM      9  C   UNL     1      43.105   5.048  11.631  0.00  0.00    +0.000 C 
ATOM     10  N   UNL     1      42.203   6.066  11.795  0.00  0.00    +0.000 N 
ATOM     11  O   UNL     1      42.781   3.971  11.147  0.00  0.00    +0.000 OA
ATOM     12  H   UNL     1      42.505   6.941  12.205  0.00  0.00    +0.000 HD
ATOM     13  H   UNL     1      41.243   5.930  11.520  0.00  0.00    +0.000 HD
ENDBRANCH   7   9
ENDBRANCH   2   3
BRANCH   1  14
ATOM     14  O   UNL     1      47.528   3.244  16.653  0.00  0.00    +0.000 OA
BRANCH  14  19
ATOM     15  C   UNL     1      51.034   2.441  17.393  0.00  0.00    +0.000 A 
ATOM     16  C   UNL     1      51.524   3.707  17.751  0.00  0.00    +0.000 A 
ATOM     17  C   UNL     1      50.682   4.818  17.775  0.00  0.00    +0.000 A 
ATOM     18  C   UNL     1      49.341   4.683  17.422  0.00  0.00    +0.000 A 
ATOM     19  C   UNL     1      48.847   3.441  17.013  0.00  0.00    +0.000 A 
ATOM     20  C   UNL     1      49.683   2.320  17.022  0.00  0.00    +0.000 A 
BRANCH  15  21
ATOM     21  C   UNL     1      51.959   1.250  17.386  0.00  0.00    +0.000 C 
BRANCH  21  22
ATOM     22  N   UNL     1      51.446   0.160  18.210  0.00  0.00    +0.000 NA
ATOM     23  H   UNL     1      51.995   0.097  19.064  0.00  0.00    +0.000 HD
ATOM     24  H   UNL     1      51.582  -0.719  17.712  0.00  0.00    +0.000 HD
ENDBRANCH  21  22
ENDBRANCH  15  21
ENDBRANCH  14  19
ENDBRANCH   1  14
TORSDOF 6
ENDMDL
MODEL 3
REMARK VINA RESULT:    -6.272      2.776      3.782
REMARK INTER + INTRA:          -8.686
REMARK INTER:                  -8.222
REMARK INTRA:                  -0.464
REMARK UNBOUND:                -0.397
REMARK  Name = 
REMARK  6 active torsions:
REMARK  status: ('A' for Active; 'I' for Inactive)
REMARK    1  A    between atoms: N_1  and  C_2
REMARK    2  A    between atoms: C_2  and  C_3
REMARK    3  A    between atoms: C_7  and  O_8
REMARK    4  A    between atoms: O_8  and  C_9
REMARK    5  A    between atoms: C_10  and  C_11
REMARK    6  A    between atoms: C_15  and  C_16
REMARK                            x       y       z     vdW  Elec       q    Type
REMARK                         _______ _______ _______ _____ _____    ______ ____
ROOT
ATOM      1  C   UNL     1      45.247   5.297   9.928  0.00  0.00    +0.000 C 
ATOM      2  C   UNL     1      45.485   5.005  11.214  0.00  0.00    +0.000 C 
ENDROOT
BRANCH   2   3
ATOM      3  C   UNL     1      46.296   5.847  12.108  0.00  0.00    +0.000 A 
ATOM      4  C   UNL     1      46.980   5.334  13.216  0.00  0.00    +0.000 A 
ATOM      5  C   UNL     1      47.698   6.202  14.028  0.00  0.00    +0.000 A 
ATOM      6  N   UNL     1      47.795   7.530  13.812  0.00  0.00    +0.000 NA
ATOM      7  C   UNL     1      47.144   8.006  12.715  0.00  0.00    +0.000 A 
ATOM      8  C   UNL     1      46.401   7.215  11.844  0.00  0.00    +0.000 A 
BRANCH   7   9
ATOM      9  C   UNL     1      47.240   9.481  12.472  0.00  0.00    +0.000 C 
ATOM     10  N   UNL     1      46.058  10.169  12.549  0.00  0.00    +0.000 N 
ATOM     11  O   UNL     1      48.299  10.043  12.221  0.00  0.00    +0.000 OA
ATOM     12  H   UNL     1      45.201   9.670  12.752  0.00  0.00    +0.000 HD
ATOM     13  H   UNL     1      46.050  11.164  12.388  0.00  0.00    +0.000 HD
ENDBRANCH   7   9
ENDBRANCH   2   3
BRANCH   1  14
ATOM     14  O   UNL     1      44.556   4.450   9.088  0.00  0.00    +0.000 OA
BRANCH  14  19
ATOM     15  C   UNL     1      46.730   2.629   6.756  0.00  0.00    +0.000 A 
ATOM     16  C   UNL     1      46.674   1.336   7.299  0.00  0.00    +0.000 A 
ATOM     17  C   UNL     1      45.891   1.065   8.420  0.00  0.00    +0.000 A 
ATOM     18  C   UNL     1      45.166   2.090   9.026  0.00  0.00    +0.000 A 
ATOM     19  C   UNL     1      45.250   3.394   8.531  0.00  0.00    +0.000 A 
ATOM     20  C   UNL     1      46.009   3.659   7.386  0.00  0.00    +0.000 A 
BRANCH  15  21
ATOM     21  C   UNL     1      47.575   2.898   5.536  0.00  0.00    +0.000 C 
BRANCH  21  22
ATOM     22  N   UNL     1      48.454   1.774   5.227  0.00  0.00    +0.000 NA
ATOM     23  H   UNL     1      48.705   1.804   4.241  0.00  0.00    +0.000 HD
ATOM     24  H   UNL     1      47.939   0.906   5.369  0.00  0.00    +0.000 HD
ENDBRANCH  21  22
ENDBRANCH  15  21
ENDBRANCH  14  19
ENDBRANCH   1  14
TORSDOF 6
ENDMDL
MODEL 4
REMARK VINA RESULT:    -6.171      2.665      8.239
REMARK INTER + INTRA:          -8.553
REMARK INTER:                  -8.181
REMARK INTRA:                  -0.372
REMARK UNBOUND:                -0.397
REMARK  Name = 
REMARK  6 active torsions:
REMARK  status: ('A' for Active; 'I' for Inactive)
REMARK    1  A    between atoms: N_1  and  C_2
REMARK    2  A    between atoms: C_2  and  C_3
REMARK    3  A    between atoms: C_7  and  O_8
REMARK    4  A    between atoms: O_8  and  C_9
REMARK    5  A    between atoms: C_10  and  C_11
REMARK    6  A    between atoms: C_15  and  C_16
REMARK                            x       y       z     vdW  Elec       q    Type
REMARK                         _______ _______ _______ _____ _____    ______ ____
ROOT
ATOM      1  C   UNL     1      46.868   5.067  14.085  0.00  0.00    +0.000 C 
ATOM      2  C   UNL     1      46.282   5.934  13.248  0.00  0.00    +0.000 C 
ENDROOT
BRANCH   2   3
ATOM      3  C   UNL     1      45.207   5.568  12.311  0.00  0.00    +0.000 A 
ATOM      4  C   UNL     1      43.851   5.700  12.628  0.00  0.00    +0.000 A 
ATOM      5  C   UNL     1      42.899   5.302  11.699  0.00  0.00    +0.000 A 
ATOM      6  N   UNL     1      43.196   4.799  10.483  0.00  0.00    +0.000 NA
ATOM      7  C   UNL     1      44.521   4.702  10.183  0.00  0.00    +0.000 A 
ATOM      8  C   UNL     1      45.545   5.075  11.048  0.00  0.00    +0.000 A 
BRANCH   7   9
ATOM      9  C   UNL     1      44.859   4.137   8.839  0.00  0.00    +0.000 C 
ATOM     10  N   UNL     1      44.258   2.945   8.533  0.00  0.00    +0.000 N 
ATOM     11  O   UNL     1      45.620   4.695   8.057  0.00  0.00    +0.000 OA
ATOM     12  H   UNL     1      43.640   2.508   9.206  0.00  0.00    +0.000 HD
ATOM     13  H   UNL     1      44.448   2.503   7.646  0.00  0.00    +0.000 HD
ENDBRANCH   7   9
ENDBRANCH   2   3
BRANCH   1  14
ATOM     14  O   UNL     1      47.931   5.414  14.892  0.00  0.00    +0.000 OA
BRANCH  14  19
ATOM     15  C   UNL     1      49.119   4.694  18.291  0.00  0.00    +0.000 A 
ATOM     16  C   UNL     1      48.421   3.508  18.568  0.00  0.00    +0.000 A 
ATOM     17  C   UNL     1      47.580   2.934  17.615  0.00  0.00    +0.000 A 
ATOM     18  C   UNL     1      47.412   3.549  16.376  0.00  0.00    +0.000 A 
ATOM     19  C   UNL     1      48.058   4.757  16.100  0.00  0.00    +0.000 A 
ATOM     20  C   UNL     1      48.927   5.315  17.044  0.00  0.00    +0.000 A 
BRANCH  15  21
ATOM     21  C   UNL     1      50.032   5.291  19.332  0.00  0.00    +0.000 C 
BRANCH  21  22
ATOM     22  N   UNL     1      50.998   4.317  19.829  0.00  0.00    +0.000 NA
ATOM     23  H   UNL     1      51.270   3.695  19.070  0.00  0.00    +0.000 HD
ATOM     24  H   UNL     1      50.545   3.734  20.532  0.00  0.00    +0.000 HD
ENDBRANCH  21  22
ENDBRANCH  15  21
ENDBRANCH  14  19
ENDBRANCH   1  14
TORSDOF 6
ENDMDL
MODEL 5
REMARK VINA RESULT:    -6.142      3.142      7.393
REMARK INTER + INTRA:          -8.515
REMARK INTER:                  -8.019
REMARK INTRA:                  -0.495
REMARK UNBOUND:                -0.397
REMARK  Name = 
REMARK  6 active torsions:
REMARK  status: ('A' for Active; 'I' for Inactive)
REMARK    1  A    between atoms: N_1  and  C_2
REMARK    2  A    between atoms: C_2  and  C_3
REMARK    3  A    between atoms: C_7  and  O_8
REMARK    4  A    between atoms: O_8  and  C_9
REMARK    5  A    between atoms: C_10  and  C_11
REMARK    6  A    between atoms: C_15  and  C_16
REMARK                            x       y       z     vdW  Elec       q    Type
REMARK                         _______ _______ _______ _____ _____    ______ ____
ROOT
ATOM      1  C   UNL     1      44.864   5.600  11.226  0.00  0.00    +0.000 C 
ATOM      2  C   UNL     1      44.597   5.276   9.953  0.00  0.00    +0.000 C 
ENDROOT
BRANCH   2   3
ATOM      3  C   UNL     1      44.974   3.992   9.340  0.00  0.00    +0.000 A 
ATOM      4  C   UNL     1      44.395   2.775   9.716  0.00  0.00    +0.000 A 
ATOM      5  C   UNL     1      44.829   1.604   9.109  0.00  0.00    +0.000 A 
ATOM      6  N   UNL     1      45.781   1.558   8.155  0.00  0.00    +0.000 NA
ATOM      7  C   UNL     1      46.315   2.755   7.784  0.00  0.00    +0.000 A 
ATOM      8  C   UNL     1      45.944   3.978   8.334  0.00  0.00    +0.000 A 
BRANCH   7   9
ATOM      9  C   UNL     1      47.378   2.711   6.731  0.00  0.00    +0.000 C 
ATOM     10  N   UNL     1      47.148   3.494   5.630  0.00  0.00    +0.000 N 
ATOM     11  O   UNL     1      48.387   2.025   6.835  0.00  0.00    +0.000 OA
ATOM     12  H   UNL     1      46.299   4.044   5.575  0.00  0.00    +0.000 HD
ATOM     13  H   UNL     1      47.819   3.506   4.878  0.00  0.00    +0.000 HD
ENDBRANCH   7   9
ENDBRANCH   2   3
BRANCH   1  14
ATOM     14  O   UNL     1      44.577   6.842  11.753  0.00  0.00    +0.000 OA
BRANCH  14  19
ATOM     15  C   UNL     1      48.018   8.089  12.050  0.00  0.00    +0.000 A 
ATOM     16  C   UNL     1      47.793   9.473  12.106  0.00  0.00    +0.000 A 
ATOM     17  C   UNL     1      46.497   9.987  12.076  0.00  0.00    +0.000 A 
ATOM     18  C   UNL     1      45.409   9.125  11.970  0.00  0.00    +0.000 A 
ATOM     19  C   UNL     1      45.615   7.747  11.861  0.00  0.00    +0.000 A 
ATOM     20  C   UNL     1      46.913   7.228  11.925  0.00  0.00    +0.000 A 
BRANCH  15  21
ATOM     21  C   UNL     1      49.427   7.553  12.097  0.00  0.00    +0.000 C 
BRANCH  21  22
ATOM     22  N   UNL     1      49.724   6.919  13.378  0.00  0.00    +0.000 NA
ATOM     23  H   UNL     1      50.732   6.816  13.476  0.00  0.00    +0.000 HD
ATOM     24  H   UNL     1      49.335   5.977  13.376  0.00  0.00    +0.000 HD
ENDBRANCH  21  22
ENDBRANCH  15  21
ENDBRANCH  14  19
ENDBRANCH   1  14
TORSDOF 6
ENDMDL
MODEL 6
REMARK VINA RESULT:    -6.134      2.009      2.596
REMARK INTER + INTRA:          -8.503
REMARK INTER:                  -8.031
REMARK INTRA:                  -0.472
REMARK UNBOUND:                -0.397
REMARK  Name = 
REMARK  6 active torsions:
REMARK  status: ('A' for Active; 'I' for Inactive)
REMARK    1  A    between atoms: N_1  and  C_2
REMARK    2  A    between atoms: C_2  and  C_3
REMARK    3  A    between atoms: C_7  and  O_8
REMARK    4  A    between atoms: O_8  and  C_9
REMARK    5  A    between atoms: C_10  and  C_11
REMARK    6  A    between atoms: C_15  and  C_16
REMARK                            x       y       z     vdW  Elec       q    Type
REMARK                         _______ _______ _______ _____ _____    ______ ____
ROOT
ATOM      1  C   UNL     1      44.562   5.252  10.050  0.00  0.00    +0.000 C 
ATOM      2  C   UNL     1      44.806   5.204  11.366  0.00  0.00    +0.000 C 
ENDROOT
BRANCH   2   3
ATOM      3  C   UNL     1      45.529   6.254  12.104  0.00  0.00    +0.000 A 
ATOM      4  C   UNL     1      45.234   7.615  11.965  0.00  0.00    +0.000 A 
ATOM      5  C   UNL     1      45.984   8.544  12.673  0.00  0.00    +0.000 A 
ATOM      6  N   UNL     1      46.989   8.219  13.512  0.00  0.00    +0.000 NA
ATOM      7  C   UNL     1      47.244   6.889  13.654  0.00  0.00    +0.000 A 
ATOM      8  C   UNL     1      46.546   5.886  12.987  0.00  0.00    +0.000 A 
BRANCH   7   9
ATOM      9  C   UNL     1      48.362   6.521  14.578  0.00  0.00    +0.000 C 
ATOM     10  N   UNL     1      47.982   5.960  15.769  0.00  0.00    +0.000 N 
ATOM     11  O   UNL     1      49.541   6.705  14.299  0.00  0.00    +0.000 OA
ATOM     12  H   UNL     1      46.998   5.829  15.969  0.00  0.00    +0.000 HD
ATOM     13  H   UNL     1      48.684   5.697  16.442  0.00  0.00    +0.000 HD
ENDBRANCH   7   9
ENDBRANCH   2   3
BRANCH   1  14
ATOM     14  O   UNL     1      43.959   4.217   9.367  0.00  0.00    +0.000 OA
BRANCH  14  19
ATOM     15  C   UNL     1      46.399   2.764   7.039  0.00  0.00    +0.000 A 
ATOM     16  C   UNL     1      46.456   1.442   7.507  0.00  0.00    +0.000 A 
ATOM     17  C   UNL     1      45.661   1.029   8.576  0.00  0.00    +0.000 A 
ATOM     18  C   UNL     1      44.811   1.938   9.203  0.00  0.00    +0.000 A 
ATOM     19  C   UNL     1      44.780   3.271   8.785  0.00  0.00    +0.000 A 
ATOM     20  C   UNL     1      45.552   3.677   7.691  0.00  0.00    +0.000 A 
BRANCH  15  21
ATOM     21  C   UNL     1      47.258   3.187   5.874  0.00  0.00    +0.000 C 
BRANCH  21  22
ATOM     22  N   UNL     1      48.625   2.690   5.999  0.00  0.00    +0.000 NA
ATOM     23  H   UNL     1      48.957   2.385   5.087  0.00  0.00    +0.000 HD
ATOM     24  H   UNL     1      48.620   1.864   6.596  0.00  0.00    +0.000 HD
ENDBRANCH  21  22
ENDBRANCH  15  21
ENDBRANCH  14  19
ENDBRANCH   1  14
TORSDOF 6
ENDMDL
MODEL 7
REMARK VINA RESULT:    -6.059      2.794      4.519
REMARK INTER + INTRA:          -8.404
REMARK INTER:                  -8.030
REMARK INTRA:                  -0.373
REMARK UNBOUND:                -0.397
REMARK  Name = 
REMARK  6 active torsions:
REMARK  status: ('A' for Active; 'I' for Inactive)
REMARK    1  A    between atoms: N_1  and  C_2
REMARK    2  A    between atoms: C_2  and  C_3
REMARK    3  A    between atoms: C_7  and  O_8
REMARK    4  A    between atoms: O_8  and  C_9
REMARK    5  A    between atoms: C_10  and  C_11
REMARK    6  A    between atoms: C_15  and  C_16
REMARK                            x       y       z     vdW  Elec       q    Type
REMARK                         _______ _______ _______ _____ _____    ______ ____
ROOT
ATOM      1  C   UNL     1      47.359   4.062  15.072  0.00  0.00    +0.000 C 
ATOM      2  C   UNL     1      47.474   3.712  16.360  0.00  0.00    +0.000 C 
ENDROOT
BRANCH   2   3
ATOM      3  C   UNL     1      48.726   3.814  17.127  0.00  0.00    +0.000 A 
ATOM      4  C   UNL     1      49.039   4.925  17.919  0.00  0.00    +0.000 A 
ATOM      5  C   UNL     1      50.256   4.956  18.587  0.00  0.00    +0.000 A 
ATOM      6  N   UNL     1      51.171   3.967  18.534  0.00  0.00    +0.000 NA
ATOM      7  C   UNL     1      50.837   2.883  17.779  0.00  0.00    +0.000 A 
ATOM      8  C   UNL     1      49.643   2.761  17.075  0.00  0.00    +0.000 A 
BRANCH   7   9
ATOM      9  C   UNL     1      51.851   1.784  17.709  0.00  0.00    +0.000 C 
ATOM     10  N   UNL     1      51.372   0.525  17.962  0.00  0.00    +0.000 N 
ATOM     11  O   UNL     1      53.030   1.984  17.446  0.00  0.00    +0.000 OA
ATOM     12  H   UNL     1      50.392   0.397  18.183  0.00  0.00    +0.000 HD
ATOM     13  H   UNL     1      52.002  -0.261  17.941  0.00  0.00    +0.000 HD
ENDBRANCH   7   9
ENDBRANCH   2   3
BRANCH   1  14
ATOM     14  O   UNL     1      46.198   3.877  14.351  0.00  0.00    +0.000 OA
BRANCH  14  19
ATOM     15  C   UNL     1      45.049   4.819  10.993  0.00  0.00    +0.000 A 
ATOM     16  C   UNL     1      45.602   6.104  10.876  0.00  0.00    +0.000 A 
ATOM     17  C   UNL     1      46.380   6.642  11.900  0.00  0.00    +0.000 A 
ATOM     18  C   UNL     1      46.601   5.910  13.064  0.00  0.00    +0.000 A 
ATOM     19  C   UNL     1      46.016   4.650  13.221  0.00  0.00    +0.000 A 
ATOM     20  C   UNL     1      45.263   4.097  12.180  0.00  0.00    +0.000 A 
BRANCH  15  21
ATOM     21  C   UNL     1      44.220   4.251   9.869  0.00  0.00    +0.000 C 
BRANCH  21  22
ATOM     22  N   UNL     1      44.797   4.555   8.563  0.00  0.00    +0.000 NA
ATOM     23  H   UNL     1      45.727   4.947   8.689  0.00  0.00    +0.000 HD
ATOM     24  H   UNL     1      44.235   5.279   8.117  0.00  0.00    +0.000 HD
ENDBRANCH  21  22
ENDBRANCH  15  21
ENDBRANCH  14  19
ENDBRANCH   1  14
TORSDOF 6
ENDMDL
MODEL 8
REMARK VINA RESULT:    -5.918      4.659      6.293
REMARK INTER + INTRA:          -8.218
REMARK INTER:                  -7.737
REMARK INTRA:                  -0.481
REMARK UNBOUND:                -0.397
REMARK  Name = 
REMARK  6 active torsions:
REMARK  status: ('A' for Active; 'I' for Inactive)
REMARK    1  A    between atoms: N_1  and  C_2
REMARK    2  A    between atoms: C_2  and  C_3
REMARK    3  A    between atoms: C_7  and  O_8
REMARK    4  A    between atoms: O_8  and  C_9
REMARK    5  A    between atoms: C_10  and  C_11
REMARK    6  A    between atoms: C_15  and  C_16
REMARK                            x       y       z     vdW  Elec       q    Type
REMARK                         _______ _______ _______ _____ _____    ______ ____
ROOT
ATOM      1  C   UNL     1      45.325   8.688  12.414  0.00  0.00    +0.000 C 
ATOM      2  C   UNL     1      46.054   7.717  11.848  0.00  0.00    +0.000 C 
ENDROOT
BRANCH   2   3
ATOM      3  C   UNL     1      45.953   6.296  12.219  0.00  0.00    +0.000 A 
ATOM      4  C   UNL     1      45.199   5.374  11.485  0.00  0.00    +0.000 A 
ATOM      5  C   UNL     1      45.130   4.058  11.921  0.00  0.00    +0.000 A 
ATOM      6  N   UNL     1      45.762   3.593  13.018  0.00  0.00    +0.000 NA
ATOM      7  C   UNL     1      46.512   4.499  13.705  0.00  0.00    +0.000 A 
ATOM      8  C   UNL     1      46.641   5.837  13.345  0.00  0.00    +0.000 A 
BRANCH   7   9
ATOM      9  C   UNL     1      47.211   3.993  14.928  0.00  0.00    +0.000 C 
ATOM     10  N   UNL     1      47.237   4.856  15.991  0.00  0.00    +0.000 N 
ATOM     11  O   UNL     1      47.728   2.884  14.985  0.00  0.00    +0.000 OA
ATOM     12  H   UNL     1      46.806   5.768  15.906  0.00  0.00    +0.000 HD
ATOM     13  H   UNL     1      47.700   4.583  16.844  0.00  0.00    +0.000 HD
ENDBRANCH   7   9
ENDBRANCH   2   3
BRANCH   1  14
ATOM     14  O   UNL     1      45.498  10.022  12.110  0.00  0.00    +0.000 OA
BRANCH  14  19
ATOM     15  C   UNL     1      42.340  10.820  10.413  0.00  0.00    +0.000 A 
ATOM     16  C   UNL     1      42.801  11.643   9.374  0.00  0.00    +0.000 A 
ATOM     17  C   UNL     1      44.161  11.906   9.220  0.00  0.00    +0.000 A 
ATOM     18  C   UNL     1      45.080  11.365  10.117  0.00  0.00    +0.000 A 
ATOM     19  C   UNL     1      44.636  10.586  11.189  0.00  0.00    +0.000 A 
ATOM     20  C   UNL     1      43.275  10.294  11.323  0.00  0.00    +0.000 A 
BRANCH  15  21
ATOM     21  C   UNL     1      40.866  10.538  10.554  0.00  0.00    +0.000 C 
BRANCH  21  22
ATOM     22  N   UNL     1      40.615   9.364  11.385  0.00  0.00    +0.000 NA
ATOM     23  H   UNL     1      40.807   9.593  12.358  0.00  0.00    +0.000 HD
ATOM     24  H   UNL     1      41.273   8.631  11.124  0.00  0.00    +0.000 HD
ENDBRANCH  21  22
ENDBRANCH  15  21
ENDBRANCH  14  19
ENDBRANCH   1  14
TORSDOF 6
ENDMDL
MODEL 9
REMARK VINA RESULT:    -5.872      4.729      6.765
REMARK INTER + INTRA:          -8.158
REMARK INTER:                  -7.645
REMARK INTRA:                  -0.512
REMARK UNBOUND:                -0.397
REMARK  Name = 
REMARK  6 active torsions:
REMARK  status: ('A' for Active; 'I' for Inactive)
REMARK    1  A    between atoms: N_1  and  C_2
REMARK    2  A    between atoms: C_2  and  C_3
REMARK    3  A    between atoms: C_7  and  O_8
REMARK    4  A    between atoms: O_8  and  C_9
REMARK    5  A    between atoms: C_10  and  C_11
REMARK    6  A    between atoms: C_15  and  C_16
REMARK                            x       y       z     vdW  Elec       q    Type
REMARK                         _______ _______ _______ _____ _____    ______ ____
ROOT
ATOM      1  C   UNL     1      45.852   8.336  12.516  0.00  0.00    +0.000 C 
ATOM      2  C   UNL     1      46.753   7.350  12.415  0.00  0.00    +0.000 C 
ENDROOT
BRANCH   2   3
ATOM      3  C   UNL     1      46.434   5.926  12.614  0.00  0.00    +0.000 A 
ATOM      4  C   UNL     1      47.105   5.123  13.543  0.00  0.00    +0.000 A 
ATOM      5  C   UNL     1      46.764   3.782  13.647  0.00  0.00    +0.000 A 
ATOM      6  N   UNL     1      45.804   3.188  12.907  0.00  0.00    +0.000 NA
ATOM      7  C   UNL     1      45.145   3.992  12.027  0.00  0.00    +0.000 A 
ATOM      8  C   UNL     1      45.416   5.346  11.853  0.00  0.00    +0.000 A 
BRANCH   7   9
ATOM      9  C   UNL     1      44.083   3.339  11.197  0.00  0.00    +0.000 C 
ATOM     10  N   UNL     1      43.428   2.295  11.796  0.00  0.00    +0.000 N 
ATOM     11  O   UNL     1      43.811   3.705  10.061  0.00  0.00    +0.000 OA
ATOM     12  H   UNL     1      43.684   2.015  12.734  0.00  0.00    +0.000 HD
ATOM     13  H   UNL     1      42.707   1.804  11.290  0.00  0.00    +0.000 HD
ENDBRANCH   7   9
ENDBRANCH   2   3
BRANCH   1  14
ATOM     14  O   UNL     1      46.192   9.668  12.410  0.00  0.00    +0.000 OA
BRANCH  14  19
ATOM     15  C   UNL     1      43.261  10.764  10.490  0.00  0.00    +0.000 A 
ATOM     16  C   UNL     1      43.727  11.981   9.968  0.00  0.00    +0.000 A 
ATOM     17  C   UNL     1      45.025  12.419  10.230  0.00  0.00    +0.000 A 
ATOM     18  C   UNL     1      45.868  11.656  11.034  0.00  0.00    +0.000 A 
ATOM     19  C   UNL     1      45.404  10.468  11.605  0.00  0.00    +0.000 A 
ATOM     20  C   UNL     1      44.114  10.011  11.315  0.00  0.00    +0.000 A 
BRANCH  15  21
ATOM     21  C   UNL     1      41.858  10.303  10.185  0.00  0.00    +0.000 C 
BRANCH  21  22
ATOM     22  N   UNL     1      41.344   9.410  11.219  0.00  0.00    +0.000 NA
ATOM     23  H   UNL     1      41.271   9.919  12.097  0.00  0.00    +0.000 HD
ATOM     24  H   UNL     1      42.020   8.662  11.372  0.00  0.00    +0.000 HD
ENDBRANCH  21  22
ENDBRANCH  15  21
ENDBRANCH  14  19
ENDBRANCH   1  14
TORSDOF 6
ENDMDL
