MODEL 1
REMARK VINA RESULT:    -8.065      0.000      0.000
REMARK INTER + INTRA:         -11.809
REMARK INTER:                 -10.894
REMARK INTRA:                  -0.915
REMARK UNBOUND:                -0.915
REMARK  Name = 
REMARK  6 active torsions:
REMARK  status: ('A' for Active; 'I' for Inactive)
REMARK    1  A    between atoms: C_2  and  C_4
REMARK    2  A    between atoms: C_7  and  O_8
REMARK    3  A    between atoms: O_8  and  C_9
REMARK    4  A    between atoms: C_9  and  C_10
REMARK    5  A    between atoms: C_10  and  C_11
REMARK    6  A    between atoms: C_15  and  C_16
REMARK                            x       y       z     vdW  Elec       q    Type
REMARK                         _______ _______ _______ _____ _____    ______ ____
ROOT
ATOM      1  C   UNL     1      45.799   6.865  12.413  0.00  0.00    +0.000 C 
ENDROOT
BRANCH   1   2
ATOM      2  O   UNL     1      46.986   6.066  12.377  0.00  0.00    +0.000 OA
BRANCH   2   6
ATOM      3  C   UNL     1      47.697   3.973  15.778  0.00  0.00    +0.000 A 
ATOM      4  C   UNL     1      48.106   5.297  15.682  0.00  0.00    +0.000 A 
ATOM      5  N   UNL     1      47.898   6.050  14.568  0.00  0.00    +0.000 NA
ATOM      6  C   UNL     1      47.259   5.416  13.559  0.00  0.00    +0.000 A 
ATOM      7  C   UNL     1      46.846   4.089  13.658  0.00  0.00    +0.000 A 
ATOM      8  N   UNL     1      47.052   3.328  14.762  0.00  0.00    +0.000 NA
BRANCH   3  10
ATOM      9  N   UNL     1      46.856   2.700  17.657  0.00  0.00    +0.000 N 
ATOM     10  C   UNL     1      47.960   3.198  17.020  0.00  0.00    +0.000 C 
ATOM     11  O   UNL     1      49.095   3.011  17.448  0.00  0.00    +0.000 OA
ATOM     12  H   UNL     1      46.968   2.159  18.503  0.00  0.00    +0.000 HD
ATOM     13  H   UNL     1      45.933   2.862  17.272  0.00  0.00    +0.000 HD
ENDBRANCH   3  10
ENDBRANCH   2   6
ENDBRANCH   1   2
BRANCH   1  14
ATOM     14  C   UNL     1      45.096   6.693  11.065  0.00  0.00    +0.000 C 
BRANCH  14  15
ATOM     15  C   UNL     1      44.820   5.249  10.740  0.00  0.00    +0.000 A 
ATOM     16  C   UNL     1      43.820   4.541  11.408  0.00  0.00    +0.000 A 
ATOM     17  C   UNL     1      43.559   3.215  11.070  0.00  0.00    +0.000 A 
ATOM     18  C   UNL     1      44.276   2.599  10.040  0.00  0.00    +0.000 A 
ATOM     19  C   UNL     1      45.256   3.295   9.311  0.00  0.00    +0.000 A 
ATOM     20  C   UNL     1      45.531   4.618   9.706  0.00  0.00    +0.000 A 
BRANCH  19  21
ATOM     21  C   UNL     1      45.901   2.713   8.110  0.00  0.00    +0.000 A 
ATOM     22  C   UNL     1      46.165   3.510   6.979  0.00  0.00    +0.000 A 
ATOM     23  C   UNL     1      46.884   3.018   5.886  0.00  0.00    +0.000 A 
ATOM     24  C   UNL     1      47.361   1.713   5.900  0.00  0.00    +0.000 A 
ATOM     25  C   UNL     1      47.094   0.892   6.991  0.00  0.00    +0.000 A 
ATOM     26  C   UNL     1      46.361   1.384   8.076  0.00  0.00    +0.000 A 
ENDBRANCH  19  21
ENDBRANCH  14  15
ENDBRANCH   1  14
TORSDOF 6
ENDMDL
MODEL 2
REMARK VINA RESULT:    -7.801      3.709      7.283
REMARK INTER + INTRA:         -11.452
REMARK INTER:                 -10.436
REMARK INTRA:                  -1.016
REMARK UNBOUND:                -0.915
REMARK  Name = 
REMARK  6 active torsions:
REMARK  status: ('A' for Active; 'I' for Inactive)
REMARK    1  A    between atoms: C_2  and  C_4
REMARK    2  A    between atoms: C_7  and  O_8
REMARK    3  A    between atoms: O_8  and  C_9
REMARK    4  A    between atoms: C_9  and  C_10
REMARK    5  A    between atoms: C_10  and  C_11
REMARK    6  A    between atoms: C_15  and  C_16
REMARK                            x       y       z     vdW  Elec       q    Type
REMARK                         _______ _______ _______ _____ _____    ______ ____
ROOT
ATOM      1  C   UNL     1      43.197   4.955  10.922  0.00  0.00    +0.000 C 
ENDROOT
BRANCH   1   2
ATOM      2  O   UNL     1      43.407   3.558  10.691  0.00  0.00    +0.000 OA
BRANCH   2   6
ATOM      3  C   UNL     1      46.226   2.968   7.835  0.00  0.00    +0.000 A 
ATOM      4  C   UNL     1      45.693   1.881   8.516  0.00  0.00    +0.000 A 
ATOM      5  N   UNL     1      44.747   2.015   9.484  0.00  0.00    +0.000 NA
ATOM      6  C   UNL     1      44.359   3.286   9.734  0.00  0.00    +0.000 A 
ATOM      7  C   UNL     1      44.893   4.375   9.048  0.00  0.00    +0.000 A 
ATOM      8  N   UNL     1      45.839   4.253   8.085  0.00  0.00    +0.000 NA
BRANCH   3  10
ATOM      9  N   UNL     1      47.105   3.479   5.638  0.00  0.00    +0.000 N 
ATOM     10  C   UNL     1      47.264   2.759   6.791  0.00  0.00    +0.000 C 
ATOM     11  O   UNL     1      48.210   1.992   6.951  0.00  0.00    +0.000 OA
ATOM     12  H   UNL     1      47.781   3.386   4.893  0.00  0.00    +0.000 HD
ATOM     13  H   UNL     1      46.321   4.112   5.541  0.00  0.00    +0.000 HD
ENDBRANCH   3  10
ENDBRANCH   2   6
ENDBRANCH   1   2
BRANCH   1  14
ATOM     14  C   UNL     1      43.368   5.198  12.423  0.00  0.00    +0.000 C 
BRANCH  14  15
ATOM     15  C   UNL     1      44.800   5.461  12.804  0.00  0.00    +0.000 A 
ATOM     16  C   UNL     1      45.566   4.481  13.439  0.00  0.00    +0.000 A 
ATOM     17  C   UNL     1      46.899   4.734  13.753  0.00  0.00    +0.000 A 
ATOM     18  C   UNL     1      47.483   5.955  13.409  0.00  0.00    +0.000 A 
ATOM     19  C   UNL     1      46.758   6.947  12.725  0.00  0.00    +0.000 A 
ATOM     20  C   UNL     1      45.401   6.683  12.461  0.00  0.00    +0.000 A 
BRANCH  19  21
ATOM     21  C   UNL     1      47.408   8.174  12.202  0.00  0.00    +0.000 A 
ATOM     22  C   UNL     1      46.707   9.395  12.159  0.00  0.00    +0.000 A 
ATOM     23  C   UNL     1      47.334  10.587  11.790  0.00  0.00    +0.000 A 
ATOM     24  C   UNL     1      48.684  10.588  11.457  0.00  0.00    +0.000 A 
ATOM     25  C   UNL     1      49.397   9.393  11.463  0.00  0.00    +0.000 A 
ATOM     26  C   UNL     1      48.761   8.199  11.819  0.00  0.00    +0.000 A 
ENDBRANCH  19  21
ENDBRANCH  14  15
ENDBRANCH   1  14
TORSDOF 6
ENDMDL
MODEL 3
REMARK VINA RESULT:    -7.732      3.602      7.786
REMARK INTER + INTRA:         -11.359
REMARK INTER:                 -10.468
REMARK INTRA:                  -0.890
REMARK UNBOUND:                -0.915
REMARK  Name = 
REMARK  6 active torsions:
REMARK  status: ('A' for Active; 'I' for Inactive)
REMARK    1  A    between atoms: C_2  and  C_4
REMARK    2  A    between atoms: C_7  and  O_8
REMARK    3  A    between atoms: O_8  and  C_9
REMARK    4  A    between atoms: C_9  and  C_10
REMARK    5  A    between atoms: C_10  and  C_11
REMARK    6  A    between atoms: C_15  and  C_16
REMARK                            x       y       z     vdW  Elec       q    Type
REMARK                         _______ _______ _______ _____ _____    ______ ____
ROOT
ATOM      1  C   UNL     1      43.739   3.403  11.334  0.00  0.00    +0.000 C 
ENDROOT
BRANCH   1   2
ATOM      2  O   UNL     1      43.565   3.779   9.963  0.00  0.00    +0.000 OA
BRANCH   2   6
ATOM      3  C   UNL     1      46.568   2.403   7.609  0.00  0.00    +0.000 A 
ATOM      4  C   UNL     1      46.203   3.743   7.554  0.00  0.00    +0.000 A 
ATOM      5  N   UNL     1      45.204   4.262   8.317  0.00  0.00    +0.000 NA
ATOM      6  C   UNL     1      44.592   3.380   9.139  0.00  0.00    +0.000 A 
ATOM      7  C   UNL     1      44.961   2.038   9.195  0.00  0.00    +0.000 A 
ATOM      8  N   UNL     1      45.952   1.508   8.436  0.00  0.00    +0.000 NA
BRANCH   3  10
ATOM      9  N   UNL     1      48.617   2.805   6.385  0.00  0.00    +0.000 N 
ATOM     10  C   UNL     1      47.664   1.891   6.745  0.00  0.00    +0.000 C 
ATOM     11  O   UNL     1      47.717   0.720   6.378  0.00  0.00    +0.000 OA
ATOM     12  H   UNL     1      49.391   2.518   5.803  0.00  0.00    +0.000 HD
ATOM     13  H   UNL     1      48.551   3.761   6.714  0.00  0.00    +0.000 HD
ENDBRANCH   3  10
ENDBRANCH   2   6
ENDBRANCH   1   2
BRANCH   1  14
ATOM     14  C   UNL     1      43.744   4.691  12.160  0.00  0.00    +0.000 C 
BRANCH  14  15
ATOM     15  C   UNL     1      45.137   5.177  12.460  0.00  0.00    +0.000 A 
ATOM     16  C   UNL     1      45.779   6.084  11.614  0.00  0.00    +0.000 A 
ATOM     17  C   UNL     1      47.055   6.546  11.926  0.00  0.00    +0.000 A 
ATOM     18  C   UNL     1      47.684   6.129  13.102  0.00  0.00    +0.000 A 
ATOM     19  C   UNL     1      47.051   5.256  14.003  0.00  0.00    +0.000 A 
ATOM     20  C   UNL     1      45.781   4.769  13.639  0.00  0.00    +0.000 A 
BRANCH  19  21
ATOM     21  C   UNL     1      47.631   4.941  15.331  0.00  0.00    +0.000 A 
ATOM     22  C   UNL     1      47.362   3.709  15.959  0.00  0.00    +0.000 A 
ATOM     23  C   UNL     1      47.996   3.338  17.147  0.00  0.00    +0.000 A 
ATOM     24  C   UNL     1      48.921   4.191  17.737  0.00  0.00    +0.000 A 
ATOM     25  C   UNL     1      49.188   5.428  17.156  0.00  0.00    +0.000 A 
ATOM     26  C   UNL     1      48.540   5.802  15.974  0.00  0.00    +0.000 A 
ENDBRANCH  19  21
ENDBRANCH  14  15
ENDBRANCH   1  14
TORSDOF 6
ENDMDL
MODEL 4
REMARK VINA RESULT:    -7.130      1.888      2.634
REMARK INTER + INTRA:         -10.545
REMARK INTER:                  -9.915
REMARK INTRA:                  -0.630
REMARK UNBOUND:                -0.915
REMARK  Name = 
REMARK  6 active torsions:
REMARK  status: ('A' for Active; 'I' for Inactive)
REMARK    1  A    between atoms: C_2  and  C_4
REMARK    2  A    between atoms: C_7  and  O_8
REMARK    3  A    between atoms: O_8  and  C_9
REMARK    4  A    between atoms: C_9  and  C_10
REMARK    5  A    between atoms: C_10  and  C_11
REMARK    6  A    between atoms: C_15  and  C_16
REMARK                            x       y       z     vdW  Elec       q    Type
REMARK                         _______ _______ _______ _____ _____    ______ ____
ROOT
ATOM      1  C   UNL     1      47.194   4.328  13.849  0.00  0.00    +0.000 C 
ENDROOT
BRANCH   1   2
ATOM      2  O   UNL     1      47.214   3.311  14.856  0.00  0.00    +0.000 OA
BRANCH   2   6
ATOM      3  C   UNL     1      48.774   4.323  18.461  0.00  0.00    +0.000 A 
ATOM      4  C   UNL     1      48.933   5.174  17.375  0.00  0.00    +0.000 A 
ATOM      5  N   UNL     1      48.434   4.889  16.142  0.00  0.00    +0.000 NA
ATOM      6  C   UNL     1      47.768   3.716  16.050  0.00  0.00    +0.000 A 
ATOM      7  C   UNL     1      47.607   2.865  17.141  0.00  0.00    +0.000 A 
ATOM      8  N   UNL     1      48.103   3.137  18.374  0.00  0.00    +0.000 NA
BRANCH   3  10
ATOM      9  N   UNL     1      48.648   4.253  20.878  0.00  0.00    +0.000 N 
ATOM     10  C   UNL     1      49.348   4.685  19.784  0.00  0.00    +0.000 C 
ATOM     11  O   UNL     1      50.389   5.328  19.893  0.00  0.00    +0.000 OA
ATOM     12  H   UNL     1      48.989   4.462  21.805  0.00  0.00    +0.000 HD
ATOM     13  H   UNL     1      47.799   3.715  20.755  0.00  0.00    +0.000 HD
ENDBRANCH   3  10
ENDBRANCH   2   6
ENDBRANCH   1   2
BRANCH   1  14
ATOM     14  C   UNL     1      45.857   5.061  13.972  0.00  0.00    +0.000 C 
BRANCH  14  15
ATOM     15  C   UNL     1      44.938   4.781  12.813  0.00  0.00    +0.000 A 
ATOM     16  C   UNL     1      43.609   5.209  12.830  0.00  0.00    +0.000 A 
ATOM     17  C   UNL     1      42.785   4.969  11.734  0.00  0.00    +0.000 A 
ATOM     18  C   UNL     1      43.292   4.326  10.601  0.00  0.00    +0.000 A 
ATOM     19  C   UNL     1      44.637   3.925  10.527  0.00  0.00    +0.000 A 
ATOM     20  C   UNL     1      45.435   4.139  11.667  0.00  0.00    +0.000 A 
BRANCH  19  21
ATOM     21  C   UNL     1      45.232   3.400   9.274  0.00  0.00    +0.000 A 
ATOM     22  C   UNL     1      45.710   4.279   8.282  0.00  0.00    +0.000 A 
ATOM     23  C   UNL     1      46.387   3.812   7.153  0.00  0.00    +0.000 A 
ATOM     24  C   UNL     1      46.607   2.450   6.989  0.00  0.00    +0.000 A 
ATOM     25  C   UNL     1      46.124   1.554   7.938  0.00  0.00    +0.000 A 
ATOM     26  C   UNL     1      45.433   2.024   9.060  0.00  0.00    +0.000 A 
ENDBRANCH  19  21
ENDBRANCH  14  15
ENDBRANCH   1  14
TORSDOF 6
ENDMDL
MODEL 5
REMARK VINA RESULT:    -7.080      1.920      3.524
REMARK INTER + INTRA:         -10.478
REMARK INTER:                  -9.487
REMARK INTRA:                  -0.991
REMARK UNBOUND:                -0.915
REMARK  Name = 
REMARK  6 active torsions:
REMARK  status: ('A' for Active; 'I' for Inactive)
REMARK    1  A    between atoms: C_2  and  C_4
REMARK    2  A    between atoms: C_7  and  O_8
REMARK    3  A    between atoms: O_8  and  C_9
REMARK    4  A    between atoms: C_9  and  C_10
REMARK    5  A    between atoms: C_10  and  C_11
REMARK    6  A    between atoms: C_15  and  C_16
REMARK                            x       y       z     vdW  Elec       q    Type
REMARK                         _______ _______ _______ _____ _____    ______ ____
ROOT
ATOM      1  C   UNL     1      49.567   7.261  13.179  0.00  0.00    +0.000 C 
ENDROOT
BRANCH   1   2
ATOM      2  O   UNL     1      49.036   7.623  14.458  0.00  0.00    +0.000 OA
BRANCH   2   6
ATOM      3  C   UNL     1      47.950   4.545  16.866  0.00  0.00    +0.000 A 
ATOM      4  C   UNL     1      47.500   4.588  15.552  0.00  0.00    +0.000 A 
ATOM      5  N   UNL     1      47.829   5.594  14.698  0.00  0.00    +0.000 NA
ATOM      6  C   UNL     1      48.630   6.550  15.219  0.00  0.00    +0.000 A 
ATOM      7  C   UNL     1      49.083   6.504  16.536  0.00  0.00    +0.000 A 
ATOM      8  N   UNL     1      48.758   5.508  17.397  0.00  0.00    +0.000 NA
BRANCH   3  10
ATOM      9  N   UNL     1      48.366   3.193  18.830  0.00  0.00    +0.000 N 
ATOM     10  C   UNL     1      47.550   3.422  17.756  0.00  0.00    +0.000 C 
ATOM     11  O   UNL     1      46.549   2.743  17.545  0.00  0.00    +0.000 OA
ATOM     12  H   UNL     1      48.145   2.448  19.476  0.00  0.00    +0.000 HD
ATOM     13  H   UNL     1      49.178   3.779  18.983  0.00  0.00    +0.000 HD
ENDBRANCH   3  10
ENDBRANCH   2   6
ENDBRANCH   1   2
BRANCH   1  14
ATOM     14  C   UNL     1      48.885   8.151  12.137  0.00  0.00    +0.000 C 
BRANCH  14  15
ATOM     15  C   UNL     1      47.420   7.838  11.983  0.00  0.00    +0.000 A 
ATOM     16  C   UNL     1      46.445   8.759  12.373  0.00  0.00    +0.000 A 
ATOM     17  C   UNL     1      45.096   8.464  12.192  0.00  0.00    +0.000 A 
ATOM     18  C   UNL     1      44.715   7.261  11.592  0.00  0.00    +0.000 A 
ATOM     19  C   UNL     1      45.668   6.332  11.141  0.00  0.00    +0.000 A 
ATOM     20  C   UNL     1      47.022   6.635  11.378  0.00  0.00    +0.000 A 
BRANCH  19  21
ATOM     21  C   UNL     1      45.287   5.136  10.351  0.00  0.00    +0.000 A 
ATOM     22  C   UNL     1      45.706   4.995   9.013  0.00  0.00    +0.000 A 
ATOM     23  C   UNL     1      45.468   3.823   8.290  0.00  0.00    +0.000 A 
ATOM     24  C   UNL     1      44.805   2.759   8.890  0.00  0.00    +0.000 A 
ATOM     25  C   UNL     1      44.354   2.879  10.201  0.00  0.00    +0.000 A 
ATOM     26  C   UNL     1      44.582   4.058  10.917  0.00  0.00    +0.000 A 
ENDBRANCH  19  21
ENDBRANCH  14  15
ENDBRANCH   1  14
TORSDOF 6
ENDMDL
MODEL 6
REMARK VINA RESULT:    -6.657      2.999      4.087
REMARK INTER + INTRA:          -9.906
REMARK INTER:                  -9.120
REMARK INTRA:                  -0.786
REMARK UNBOUND:                -0.915
REMARK  Name = 
REMARK  6 active torsions:
REMARK  status: ('A' for Active; 'I' for Inactive)
REMARK    1  A    between atoms: C_2  and  C_4
REMARK    2  A    between atoms: C_7  and  O_8
REMARK    3  A    between atoms: O_8  and  C_9
REMARK    4  A    between atoms: C_9  and  C_10
REMARK    5  A    between atoms: C_10  and  C_11
REMARK    6  A    between atoms: C_15  and  C_16
REMARK                            x       y       z     vdW  Elec       q    Type
REMARK                         _______ _______ _______ _____ _____    ______ ____
ROOT
ATOM      1  C   UNL     1      45.178   6.610  12.682  0.00  0.00    +0.000 C 
ENDROOT
BRANCH   1   2
ATOM      2  O   UNL     1      45.762   7.911  12.812  0.00  0.00    +0.000 OA
BRANCH   2   6
ATOM      3  C   UNL     1      49.717   8.215  11.965  0.00  0.00    +0.000 A 
ATOM      4  C   UNL     1      49.215   7.041  12.513  0.00  0.00    +0.000 A 
ATOM      5  N   UNL     1      47.899   6.880  12.819  0.00  0.00    +0.000 NA
ATOM      6  C   UNL     1      47.113   7.946  12.548  0.00  0.00    +0.000 A 
ATOM      7  C   UNL     1      47.617   9.121  11.997  0.00  0.00    +0.000 A 
ATOM      8  N   UNL     1      48.927   9.294  11.691  0.00  0.00    +0.000 NA
BRANCH   3  10
ATOM      9  N   UNL     1      51.708   7.315  10.923  0.00  0.00    +0.000 N 
ATOM     10  C   UNL     1      51.167   8.335  11.658  0.00  0.00    +0.000 C 
ATOM     11  O   UNL     1      51.840   9.291  12.034  0.00  0.00    +0.000 OA
ATOM     12  H   UNL     1      52.687   7.341  10.676  0.00  0.00    +0.000 HD
ATOM     13  H   UNL     1      51.124   6.546  10.618  0.00  0.00    +0.000 HD
ENDBRANCH   3  10
ENDBRANCH   2   6
ENDBRANCH   1   2
BRANCH   1  14
ATOM     14  C   UNL     1      44.740   6.453  11.224  0.00  0.00    +0.000 C 
BRANCH  14  15
ATOM     15  C   UNL     1      44.615   5.011  10.813  0.00  0.00    +0.000 A 
ATOM     16  C   UNL     1      43.665   4.175  11.403  0.00  0.00    +0.000 A 
ATOM     17  C   UNL     1      43.543   2.852  10.985  0.00  0.00    +0.000 A 
ATOM     18  C   UNL     1      44.350   2.365   9.953  0.00  0.00    +0.000 A 
ATOM     19  C   UNL     1      45.283   3.189   9.300  0.00  0.00    +0.000 A 
ATOM     20  C   UNL     1      45.416   4.508   9.774  0.00  0.00    +0.000 A 
BRANCH  19  21
ATOM     21  C   UNL     1      46.020   2.739   8.095  0.00  0.00    +0.000 A 
ATOM     22  C   UNL     1      46.510   1.422   8.003  0.00  0.00    +0.000 A 
ATOM     23  C   UNL     1      47.094   0.937   6.830  0.00  0.00    +0.000 A 
ATOM     24  C   UNL     1      47.202   1.761   5.716  0.00  0.00    +0.000 A 
ATOM     25  C   UNL     1      46.753   3.077   5.785  0.00  0.00    +0.000 A 
ATOM     26  C   UNL     1      46.181   3.562   6.965  0.00  0.00    +0.000 A 
ENDBRANCH  19  21
ENDBRANCH  14  15
ENDBRANCH   1  14
TORSDOF 6
ENDMDL
MODEL 7
REMARK VINA RESULT:    -6.603      4.039      7.453
REMARK INTER + INTRA:          -9.833
REMARK INTER:                  -9.117
REMARK INTRA:                  -0.717
REMARK UNBOUND:                -0.915
REMARK  Name = 
REMARK  6 active torsions:
REMARK  status: ('A' for Active; 'I' for Inactive)
REMARK    1  A    between atoms: C_2  and  C_4
REMARK    2  A    between atoms: C_7  and  O_8
REMARK    3  A    between atoms: O_8  and  C_9
REMARK    4  A    between atoms: C_9  and  C_10
REMARK    5  A    between atoms: C_10  and  C_11
REMARK    6  A    between atoms: C_15  and  C_16
REMARK                            x       y       z     vdW  Elec       q    Type
REMARK                         _______ _______ _______ _____ _____    ______ ____
ROOT
ATOM      1  C   UNL     1      44.585   2.775  11.150  0.00  0.00    +0.000 C 
ENDROOT
BRANCH   1   2
ATOM      2  O   UNL     1      44.288   3.463   9.930  0.00  0.00    +0.000 OA
BRANCH   2   6
ATOM      3  C   UNL     1      46.767   2.310   6.934  0.00  0.00    +0.000 A 
ATOM      4  C   UNL     1      46.294   3.615   6.978  0.00  0.00    +0.000 A 
ATOM      5  N   UNL     1      45.460   4.061   7.955  0.00  0.00    +0.000 NA
ATOM      6  C   UNL     1      45.126   3.140   8.887  0.00  0.00    +0.000 A 
ATOM      7  C   UNL     1      45.604   1.832   8.844  0.00  0.00    +0.000 A 
ATOM      8  N   UNL     1      46.432   1.376   7.872  0.00  0.00    +0.000 NA
BRANCH   3  10
ATOM      9  N   UNL     1      48.274   2.885   5.130  0.00  0.00    +0.000 N 
ATOM     10  C   UNL     1      47.672   1.879   5.835  0.00  0.00    +0.000 C 
ATOM     11  O   UNL     1      47.872   0.696   5.577  0.00  0.00    +0.000 OA
ATOM     12  H   UNL     1      48.905   2.658   4.374  0.00  0.00    +0.000 HD
ATOM     13  H   UNL     1      48.098   3.852   5.375  0.00  0.00    +0.000 HD
ENDBRANCH   3  10
ENDBRANCH   2   6
ENDBRANCH   1   2
BRANCH   1  14
ATOM     14  C   UNL     1      44.211   3.711  12.302  0.00  0.00    +0.000 C 
BRANCH  14  15
ATOM     15  C   UNL     1      44.442   5.159  11.964  0.00  0.00    +0.000 A 
ATOM     16  C   UNL     1      43.380   5.990  11.601  0.00  0.00    +0.000 A 
ATOM     17  C   UNL     1      43.610   7.335  11.325  0.00  0.00    +0.000 A 
ATOM     18  C   UNL     1      44.899   7.865  11.438  0.00  0.00    +0.000 A 
ATOM     19  C   UNL     1      45.984   7.072  11.849  0.00  0.00    +0.000 A 
ATOM     20  C   UNL     1      45.731   5.707  12.077  0.00  0.00    +0.000 A 
BRANCH  19  21
ATOM     21  C   UNL     1      47.316   7.655  12.140  0.00  0.00    +0.000 A 
ATOM     22  C   UNL     1      48.364   6.846  12.623  0.00  0.00    +0.000 A 
ATOM     23  C   UNL     1      49.659   7.344  12.784  0.00  0.00    +0.000 A 
ATOM     24  C   UNL     1      49.941   8.666  12.461  0.00  0.00    +0.000 A 
ATOM     25  C   UNL     1      48.921   9.498  12.007  0.00  0.00    +0.000 A 
ATOM     26  C   UNL     1      47.623   9.000  11.862  0.00  0.00    +0.000 A 
ENDBRANCH  19  21
ENDBRANCH  14  15
ENDBRANCH   1  14
TORSDOF 6
ENDMDL
MODEL 8
REMARK VINA RESULT:    -6.270      3.814      9.698
REMARK INTER + INTRA:          -9.384
REMARK INTER:                  -8.666
REMARK INTRA:                  -0.718
REMARK UNBOUND:                -0.915
REMARK  Name = 
REMARK  6 active torsions:
REMARK  status: ('A' for Active; 'I' for Inactive)
REMARK    1  A    between atoms: C_2  and  C_4
REMARK    2  A    between atoms: C_7  and  O_8
REMARK    3  A    between atoms: O_8  and  C_9
REMARK    4  A    between atoms: C_9  and  C_10
REMARK    5  A    between atoms: C_10  and  C_11
REMARK    6  A    between atoms: C_15  and  C_16
REMARK                            x       y       z     vdW  Elec       q    Type
REMARK                         _______ _______ _______ _____ _____    ______ ____
ROOT
ATOM      1  C   UNL     1      47.585   4.434  15.765  0.00  0.00    +0.000 C 
ENDROOT
BRANCH   1   2
ATOM      2  O   UNL     1      47.420   3.538  14.661  0.00  0.00    +0.000 OA
BRANCH   2   6
ATOM      3  C   UNL     1      44.712   4.964  12.000  0.00  0.00    +0.000 A 
ATOM      4  C   UNL     1      44.945   3.598  12.085  0.00  0.00    +0.000 A 
ATOM      5  N   UNL     1      45.841   3.060  12.955  0.00  0.00    +0.000 NA
ATOM      6  C   UNL     1      46.488   3.953  13.737  0.00  0.00    +0.000 A 
ATOM      7  C   UNL     1      46.251   5.323  13.653  0.00  0.00    +0.000 A 
ATOM      8  N   UNL     1      45.363   5.871  12.786  0.00  0.00    +0.000 NA
BRANCH   3  10
ATOM      9  N   UNL     1      43.225   6.739  11.293  0.00  0.00    +0.000 N 
ATOM     10  C   UNL     1      43.724   5.494  11.022  0.00  0.00    +0.000 C 
ATOM     11  O   UNL     1      43.379   4.859  10.030  0.00  0.00    +0.000 OA
ATOM     12  H   UNL     1      42.555   7.157  10.664  0.00  0.00    +0.000 HD
ATOM     13  H   UNL     1      43.539   7.243  12.114  0.00  0.00    +0.000 HD
ENDBRANCH   3  10
ENDBRANCH   2   6
ENDBRANCH   1   2
BRANCH   1  14
ATOM     14  C   UNL     1      47.672   3.581  17.033  0.00  0.00    +0.000 C 
BRANCH  14  15
ATOM     15  C   UNL     1      47.914   4.407  18.267  0.00  0.00    +0.000 A 
ATOM     16  C   UNL     1      48.551   3.861  19.383  0.00  0.00    +0.000 A 
ATOM     17  C   UNL     1      48.795   4.652  20.503  0.00  0.00    +0.000 A 
ATOM     18  C   UNL     1      48.431   6.001  20.503  0.00  0.00    +0.000 A 
ATOM     19  C   UNL     1      47.833   6.599  19.380  0.00  0.00    +0.000 A 
ATOM     20  C   UNL     1      47.557   5.766  18.280  0.00  0.00    +0.000 A 
BRANCH  19  21
ATOM     21  C   UNL     1      47.600   8.062  19.300  0.00  0.00    +0.000 A 
ATOM     22  C   UNL     1      47.178   8.785  20.433  0.00  0.00    +0.000 A 
ATOM     23  C   UNL     1      47.074  10.178  20.416  0.00  0.00    +0.000 A 
ATOM     24  C   UNL     1      47.393  10.885  19.263  0.00  0.00    +0.000 A 
ATOM     25  C   UNL     1      47.786  10.196  18.119  0.00  0.00    +0.000 A 
ATOM     26  C   UNL     1      47.875   8.801  18.135  0.00  0.00    +0.000 A 
ENDBRANCH  19  21
ENDBRANCH  14  15
ENDBRANCH   1  14
TORSDOF 6
ENDMDL
MODEL 9
REMARK VINA RESULT:    -6.246      3.786      8.351
REMARK INTER + INTRA:          -9.352
REMARK INTER:                  -8.940
REMARK INTRA:                  -0.411
REMARK UNBOUND:                -0.915
REMARK  Name = 
REMARK  6 active torsions:
REMARK  status: ('A' for Active; 'I' for Inactive)
REMARK    1  A    between atoms: C_2  and  C_4
REMARK    2  A    between atoms: C_7  and  O_8
REMARK    3  A    between atoms: O_8  and  C_9
REMARK    4  A    between atoms: C_9  and  C_10
REMARK    5  A    between atoms: C_10  and  C_11
REMARK    6  A    between atoms: C_15  and  C_16
REMARK                            x       y       z     vdW  Elec       q    Type
REMARK                         _______ _______ _______ _____ _____    ______ ____
ROOT
ATOM      1  C   UNL     1      48.428   6.633  14.607  0.00  0.00    +0.000 C 
ENDROOT
BRANCH   1   2
ATOM      2  O   UNL     1      47.980   5.316  14.268  0.00  0.00    +0.000 OA
BRANCH   2   6
ATOM      3  C   UNL     1      44.583   5.445  12.055  0.00  0.00    +0.000 A 
ATOM      4  C   UNL     1      44.893   4.302  12.782  0.00  0.00    +0.000 A 
ATOM      5  N   UNL     1      46.017   4.199  13.540  0.00  0.00    +0.000 NA
ATOM      6  C   UNL     1      46.812   5.292  13.540  0.00  0.00    +0.000 A 
ATOM      7  C   UNL     1      46.499   6.439  12.813  0.00  0.00    +0.000 A 
ATOM      8  N   UNL     1      45.383   6.552  12.051  0.00  0.00    +0.000 NA
BRANCH   3  10
ATOM      9  N   UNL     1      42.330   6.270  11.738  0.00  0.00    +0.000 N 
ATOM     10  C   UNL     1      43.342   5.497  11.238  0.00  0.00    +0.000 C 
ATOM     11  O   UNL     1      43.230   4.889  10.177  0.00  0.00    +0.000 OA
ATOM     12  H   UNL     1      41.462   6.351  11.226  0.00  0.00    +0.000 HD
ATOM     13  H   UNL     1      42.457   6.769  12.610  0.00  0.00    +0.000 HD
ENDBRANCH   3  10
ENDBRANCH   2   6
ENDBRANCH   1   2
BRANCH   1  14
ATOM     14  C   UNL     1      48.485   6.713  16.134  0.00  0.00    +0.000 C 
BRANCH  14  15
ATOM     15  C   UNL     1      48.535   5.355  16.780  0.00  0.00    +0.000 A 
ATOM     16  C   UNL     1      47.365   4.637  17.035  0.00  0.00    +0.000 A 
ATOM     17  C   UNL     1      47.435   3.368  17.603  0.00  0.00    +0.000 A 
ATOM     18  C   UNL     1      48.677   2.795  17.892  0.00  0.00    +0.000 A 
ATOM     19  C   UNL     1      49.878   3.466  17.604  0.00  0.00    +0.000 A 
ATOM     20  C   UNL     1      49.776   4.765  17.073  0.00  0.00    +0.000 A 
BRANCH  19  21
ATOM     21  C   UNL     1      51.199   2.806  17.744  0.00  0.00    +0.000 A 
ATOM     22  C   UNL     1      51.352   1.436  17.452  0.00  0.00    +0.000 A 
ATOM     23  C   UNL     1      52.607   0.822  17.453  0.00  0.00    +0.000 A 
ATOM     24  C   UNL     1      53.744   1.567  17.745  0.00  0.00    +0.000 A 
ATOM     25  C   UNL     1      53.622   2.916  18.064  0.00  0.00    +0.000 A 
ATOM     26  C   UNL     1      52.363   3.523  18.076  0.00  0.00    +0.000 A 
ENDBRANCH  19  21
ENDBRANCH  14  15
ENDBRANCH   1  14
TORSDOF 6
ENDMDL
