MODEL 1
REMARK VINA RESULT:    -7.895      0.000      0.000
REMARK INTER + INTRA:         -11.640
REMARK INTER:                 -10.203
REMARK INTRA:                  -1.437
REMARK UNBOUND:                -1.437
REMARK  Name = 
REMARK  7 active torsions:
REMARK  status: ('A' for Active; 'I' for Inactive)
REMARK    1  A    between atoms: C_1  and  C_2
REMARK    2  A    between atoms: C_4  and  C_5
REMARK    3  A    between atoms: C_9  and  C_10
REMARK    4  A    between atoms: C_11  and  C_12
REMARK    5  A    between atoms: C_12  and  C_13
REMARK    6  A    between atoms: C_13  and  C_14
REMARK    7  A    between atoms: C_18  and  C_19
REMARK                            x       y       z     vdW  Elec       q    Type
REMARK                         _______ _______ _______ _____ _____    ______ ____
ROOT
ATOM      1  C   UNL     1      44.770   6.842  12.773  0.00  0.00    +0.000 C 
ENDROOT
BRANCH   1   9
ATOM      2  C   UNL     1      45.850   9.563  11.943  0.00  0.00    +0.000 C 
ATOM      3  C   UNL     1      46.743   8.402  12.283  0.00  0.00    +0.000 A 
ATOM      4  C   UNL     1      48.124   8.612  12.218  0.00  0.00    +0.000 A 
ATOM      5  C   UNL     1      48.979   7.568  12.524  0.00  0.00    +0.000 A 
ATOM      6  N   UNL     1      48.555   6.330  12.885  0.00  0.00    +0.000 NA
ATOM      7  C   UNL     1      47.212   6.126  12.951  0.00  0.00    +0.000 A 
ATOM      8  C   UNL     1      46.810   4.737  13.367  0.00  0.00    +0.000 C 
ATOM      9  C   UNL     1      46.260   7.130  12.667  0.00  0.00    +0.000 A 
BRANCH   5  10
ATOM     10  C   UNL     1      50.460   7.794  12.465  0.00  0.00    +0.000 C 
ATOM     11  N   UNL     1      51.077   7.372  11.318  0.00  0.00    +0.000 N 
ATOM     12  O   UNL     1      51.088   8.322  13.371  0.00  0.00    +0.000 OA
ATOM     13  H   UNL     1      50.524   6.945  10.584  0.00  0.00    +0.000 HD
ATOM     14  H   UNL     1      52.071   7.504  11.216  0.00  0.00    +0.000 HD
ENDBRANCH   5  10
ENDBRANCH   1   9
BRANCH   1  15
ATOM     15  C   UNL     1      44.113   6.543  11.419  0.00  0.00    +0.000 C 
BRANCH  15  16
ATOM     16  C   UNL     1      44.119   5.065  11.090  0.00  0.00    +0.000 A 
ATOM     17  C   UNL     1      43.304   4.168  11.783  0.00  0.00    +0.000 A 
ATOM     18  C   UNL     1      43.317   2.813  11.456  0.00  0.00    +0.000 A 
ATOM     19  C   UNL     1      44.126   2.346  10.415  0.00  0.00    +0.000 A 
ATOM     20  C   UNL     1      44.926   3.223   9.663  0.00  0.00    +0.000 A 
ATOM     21  C   UNL     1      44.928   4.579  10.050  0.00  0.00    +0.000 A 
BRANCH  20  22
ATOM     22  C   UNL     1      45.644   2.781   8.441  0.00  0.00    +0.000 A 
ATOM     23  C   UNL     1      45.943   3.691   7.410  0.00  0.00    +0.000 A 
ATOM     24  C   UNL     1      46.752   3.335   6.327  0.00  0.00    +0.000 A 
ATOM     25  C   UNL     1      47.288   2.054   6.252  0.00  0.00    +0.000 A 
ATOM     26  C   UNL     1      46.980   1.121   7.236  0.00  0.00    +0.000 A 
ATOM     27  C   UNL     1      46.156   1.476   8.309  0.00  0.00    +0.000 A 
ENDBRANCH  20  22
ENDBRANCH  15  16
ENDBRANCH   1  15
TORSDOF 5
ENDMDL
MODEL 2
REMARK VINA RESULT:    -7.442      1.258      2.173
REMARK INTER + INTRA:         -11.055
REMARK INTER:                  -9.600
REMARK INTRA:                  -1.455
REMARK UNBOUND:                -1.437
REMARK  Name = 
REMARK  7 active torsions:
REMARK  status: ('A' for Active; 'I' for Inactive)
REMARK    1  A    between atoms: C_1  and  C_2
REMARK    2  A    between atoms: C_4  and  C_5
REMARK    3  A    between atoms: C_9  and  C_10
REMARK    4  A    between atoms: C_11  and  C_12
REMARK    5  A    between atoms: C_12  and  C_13
REMARK    6  A    between atoms: C_13  and  C_14
REMARK    7  A    between atoms: C_18  and  C_19
REMARK                            x       y       z     vdW  Elec       q    Type
REMARK                         _______ _______ _______ _____ _____    ______ ____
ROOT
ATOM      1  C   UNL     1      45.514   7.975  12.797  0.00  0.00    +0.000 C 
ENDROOT
BRANCH   1   9
ATOM      2  C   UNL     1      47.367   5.606  13.256  0.00  0.00    +0.000 C 
ATOM      3  C   UNL     1      47.858   6.939  12.763  0.00  0.00    +0.000 A 
ATOM      4  C   UNL     1      49.226   7.064  12.501  0.00  0.00    +0.000 A 
ATOM      5  C   UNL     1      49.715   8.276  12.045  0.00  0.00    +0.000 A 
ATOM      6  N   UNL     1      48.939   9.370  11.836  0.00  0.00    +0.000 NA
ATOM      7  C   UNL     1      47.609   9.248  12.088  0.00  0.00    +0.000 A 
ATOM      8  C   UNL     1      46.805  10.493  11.826  0.00  0.00    +0.000 C 
ATOM      9  C   UNL     1      47.012   8.051  12.547  0.00  0.00    +0.000 A 
BRANCH   5  10
ATOM     10  C   UNL     1      51.180   8.409  11.753  0.00  0.00    +0.000 C 
ATOM     11  N   UNL     1      52.021   8.018  12.760  0.00  0.00    +0.000 N 
ATOM     12  O   UNL     1      51.610   8.833  10.691  0.00  0.00    +0.000 OA
ATOM     13  H   UNL     1      51.630   7.663  13.625  0.00  0.00    +0.000 HD
ATOM     14  H   UNL     1      53.017   8.076  12.621  0.00  0.00    +0.000 HD
ENDBRANCH   5  10
ENDBRANCH   1   9
BRANCH   1  15
ATOM     15  C   UNL     1      44.699   7.743  11.518  0.00  0.00    +0.000 C 
BRANCH  15  16
ATOM     16  C   UNL     1      44.344   6.285  11.318  0.00  0.00    +0.000 A 
ATOM     17  C   UNL     1      43.293   5.694  12.022  0.00  0.00    +0.000 A 
ATOM     18  C   UNL     1      42.977   4.352  11.814  0.00  0.00    +0.000 A 
ATOM     19  C   UNL     1      43.694   3.594  10.882  0.00  0.00    +0.000 A 
ATOM     20  C   UNL     1      44.729   4.163  10.121  0.00  0.00    +0.000 A 
ATOM     21  C   UNL     1      45.056   5.508  10.390  0.00  0.00    +0.000 A 
BRANCH  20  22
ATOM     22  C   UNL     1      45.374   3.433   9.000  0.00  0.00    +0.000 A 
ATOM     23  C   UNL     1      45.994   4.130   7.947  0.00  0.00    +0.000 A 
ATOM     24  C   UNL     1      46.741   3.470   6.968  0.00  0.00    +0.000 A 
ATOM     25  C   UNL     1      46.890   2.087   7.021  0.00  0.00    +0.000 A 
ATOM     26  C   UNL     1      46.257   1.367   8.029  0.00  0.00    +0.000 A 
ATOM     27  C   UNL     1      45.496   2.031   8.997  0.00  0.00    +0.000 A 
ENDBRANCH  20  22
ENDBRANCH  15  16
ENDBRANCH   1  15
TORSDOF 5
ENDMDL
MODEL 3
REMARK VINA RESULT:    -7.280      2.645      3.902
REMARK INTER + INTRA:         -10.845
REMARK INTER:                  -9.647
REMARK INTRA:                  -1.199
REMARK UNBOUND:                -1.437
REMARK  Name = 
REMARK  7 active torsions:
REMARK  status: ('A' for Active; 'I' for Inactive)
REMARK    1  A    between atoms: C_1  and  C_2
REMARK    2  A    between atoms: C_4  and  C_5
REMARK    3  A    between atoms: C_9  and  C_10
REMARK    4  A    between atoms: C_11  and  C_12
REMARK    5  A    between atoms: C_12  and  C_13
REMARK    6  A    between atoms: C_13  and  C_14
REMARK    7  A    between atoms: C_18  and  C_19
REMARK                            x       y       z     vdW  Elec       q    Type
REMARK                         _______ _______ _______ _____ _____    ______ ____
ROOT
ATOM      1  C   UNL     1      47.638   6.387  12.770  0.00  0.00    +0.000 C 
ENDROOT
BRANCH   1   9
ATOM      2  C   UNL     1      46.607   3.662  13.648  0.00  0.00    +0.000 C 
ATOM      3  C   UNL     1      47.286   4.618  14.590  0.00  0.00    +0.000 A 
ATOM      4  C   UNL     1      47.447   4.208  15.918  0.00  0.00    +0.000 A 
ATOM      5  C   UNL     1      48.067   5.059  16.814  0.00  0.00    +0.000 A 
ATOM      6  N   UNL     1      48.534   6.291  16.483  0.00  0.00    +0.000 NA
ATOM      7  C   UNL     1      48.379   6.689  15.192  0.00  0.00    +0.000 A 
ATOM      8  C   UNL     1      48.927   8.057  14.890  0.00  0.00    +0.000 C 
ATOM      9  C   UNL     1      47.768   5.888  14.201  0.00  0.00    +0.000 A 
BRANCH   5  10
ATOM     10  C   UNL     1      48.251   4.617  18.235  0.00  0.00    +0.000 C 
ATOM     11  N   UNL     1      47.759   3.375  18.535  0.00  0.00    +0.000 N 
ATOM     12  O   UNL     1      48.804   5.306  19.080  0.00  0.00    +0.000 OA
ATOM     13  H   UNL     1      47.313   2.828  17.809  0.00  0.00    +0.000 HD
ATOM     14  H   UNL     1      47.860   3.018  19.473  0.00  0.00    +0.000 HD
ENDBRANCH   5  10
ENDBRANCH   1   9
BRANCH   1  15
ATOM     15  C   UNL     1      46.308   7.100  12.495  0.00  0.00    +0.000 C 
BRANCH  15  16
ATOM     16  C   UNL     1      45.338   6.231  11.723  0.00  0.00    +0.000 A 
ATOM     17  C   UNL     1      43.958   6.367  11.888  0.00  0.00    +0.000 A 
ATOM     18  C   UNL     1      43.082   5.564  11.159  0.00  0.00    +0.000 A 
ATOM     19  C   UNL     1      43.578   4.634  10.239  0.00  0.00    +0.000 A 
ATOM     20  C   UNL     1      44.957   4.498  10.010  0.00  0.00    +0.000 A 
ATOM     21  C   UNL     1      45.818   5.290  10.799  0.00  0.00    +0.000 A 
BRANCH  20  22
ATOM     22  C   UNL     1      45.493   3.657   8.911  0.00  0.00    +0.000 A 
ATOM     23  C   UNL     1      46.075   4.242   7.771  0.00  0.00    +0.000 A 
ATOM     24  C   UNL     1      46.726   3.475   6.801  0.00  0.00    +0.000 A 
ATOM     25  C   UNL     1      46.813   2.094   6.951  0.00  0.00    +0.000 A 
ATOM     26  C   UNL     1      46.215   1.483   8.047  0.00  0.00    +0.000 A 
ATOM     27  C   UNL     1      45.550   2.254   9.007  0.00  0.00    +0.000 A 
ENDBRANCH  20  22
ENDBRANCH  15  16
ENDBRANCH   1  15
TORSDOF 5
ENDMDL
MODEL 4
REMARK VINA RESULT:    -7.000      2.326      2.989
REMARK INTER + INTRA:         -10.484
REMARK INTER:                  -9.422
REMARK INTRA:                  -1.062
REMARK UNBOUND:                -1.437
REMARK  Name = 
REMARK  7 active torsions:
REMARK  status: ('A' for Active; 'I' for Inactive)
REMARK    1  A    between atoms: C_1  and  C_2
REMARK    2  A    between atoms: C_4  and  C_5
REMARK    3  A    between atoms: C_9  and  C_10
REMARK    4  A    between atoms: C_11  and  C_12
REMARK    5  A    between atoms: C_12  and  C_13
REMARK    6  A    between atoms: C_13  and  C_14
REMARK    7  A    between atoms: C_18  and  C_19
REMARK                            x       y       z     vdW  Elec       q    Type
REMARK                         _______ _______ _______ _____ _____    ______ ____
ROOT
ATOM      1  C   UNL     1      47.572   6.955  12.085  0.00  0.00    +0.000 C 
ENDROOT
BRANCH   1   9
ATOM      2  C   UNL     1      49.130   9.106  13.571  0.00  0.00    +0.000 C 
ATOM      3  C   UNL     1      48.743   7.797  14.203  0.00  0.00    +0.000 A 
ATOM      4  C   UNL     1      49.117   7.591  15.535  0.00  0.00    +0.000 A 
ATOM      5  C   UNL     1      48.778   6.400  16.151  0.00  0.00    +0.000 A 
ATOM      6  N   UNL     1      48.098   5.400  15.535  0.00  0.00    +0.000 NA
ATOM      7  C   UNL     1      47.732   5.601  14.241  0.00  0.00    +0.000 A 
ATOM      8  C   UNL     1      46.972   4.460  13.621  0.00  0.00    +0.000 C 
ATOM      9  C   UNL     1      48.023   6.786  13.527  0.00  0.00    +0.000 A 
BRANCH   5  10
ATOM     10  C   UNL     1      49.168   6.181  17.583  0.00  0.00    +0.000 C 
ATOM     11  N   UNL     1      48.195   6.449  18.508  0.00  0.00    +0.000 N 
ATOM     12  O   UNL     1      50.275   5.786  17.917  0.00  0.00    +0.000 OA
ATOM     13  H   UNL     1      47.286   6.768  18.196  0.00  0.00    +0.000 HD
ATOM     14  H   UNL     1      48.395   6.313  19.487  0.00  0.00    +0.000 HD
ENDBRANCH   5  10
ENDBRANCH   1   9
BRANCH   1  15
ATOM     15  C   UNL     1      46.119   7.430  11.956  0.00  0.00    +0.000 C 
BRANCH  15  16
ATOM     16  C   UNL     1      45.218   6.370  11.359  0.00  0.00    +0.000 A 
ATOM     17  C   UNL     1      43.847   6.356  11.623  0.00  0.00    +0.000 A 
ATOM     18  C   UNL     1      43.033   5.378  11.052  0.00  0.00    +0.000 A 
ATOM     19  C   UNL     1      43.580   4.418  10.193  0.00  0.00    +0.000 A 
ATOM     20  C   UNL     1      44.946   4.426   9.866  0.00  0.00    +0.000 A 
ATOM     21  C   UNL     1      45.750   5.397  10.497  0.00  0.00    +0.000 A 
BRANCH  20  22
ATOM     22  C   UNL     1      45.509   3.539   8.817  0.00  0.00    +0.000 A 
ATOM     23  C   UNL     1      46.180   4.075   7.703  0.00  0.00    +0.000 A 
ATOM     24  C   UNL     1      46.852   3.260   6.787  0.00  0.00    +0.000 A 
ATOM     25  C   UNL     1      46.872   1.880   6.969  0.00  0.00    +0.000 A 
ATOM     26  C   UNL     1      46.186   1.318   8.040  0.00  0.00    +0.000 A 
ATOM     27  C   UNL     1      45.500   2.137   8.944  0.00  0.00    +0.000 A 
ENDBRANCH  20  22
ENDBRANCH  15  16
ENDBRANCH   1  15
TORSDOF 5
ENDMDL
MODEL 5
REMARK VINA RESULT:    -6.779      2.096      2.604
REMARK INTER + INTRA:         -10.198
REMARK INTER:                  -8.810
REMARK INTRA:                  -1.387
REMARK UNBOUND:                -1.437
REMARK  Name = 
REMARK  7 active torsions:
REMARK  status: ('A' for Active; 'I' for Inactive)
REMARK    1  A    between atoms: C_1  and  C_2
REMARK    2  A    between atoms: C_4  and  C_5
REMARK    3  A    between atoms: C_9  and  C_10
REMARK    4  A    between atoms: C_11  and  C_12
REMARK    5  A    between atoms: C_12  and  C_13
REMARK    6  A    between atoms: C_13  and  C_14
REMARK    7  A    between atoms: C_18  and  C_19
REMARK                            x       y       z     vdW  Elec       q    Type
REMARK                         _______ _______ _______ _____ _____    ______ ____
ROOT
ATOM      1  C   UNL     1      47.352   4.832  13.773  0.00  0.00    +0.000 C 
ENDROOT
BRANCH   1   9
ATOM      2  C   UNL     1      47.413   7.080  11.723  0.00  0.00    +0.000 C 
ATOM      3  C   UNL     1      47.943   7.239  13.121  0.00  0.00    +0.000 A 
ATOM      4  C   UNL     1      48.470   8.486  13.472  0.00  0.00    +0.000 A 
ATOM      5  C   UNL     1      48.967   8.671  14.750  0.00  0.00    +0.000 A 
ATOM      6  N   UNL     1      48.980   7.702  15.700  0.00  0.00    +0.000 NA
ATOM      7  C   UNL     1      48.465   6.490  15.361  0.00  0.00    +0.000 A 
ATOM      8  C   UNL     1      48.499   5.465  16.462  0.00  0.00    +0.000 C 
ATOM      9  C   UNL     1      47.926   6.205  14.085  0.00  0.00    +0.000 A 
BRANCH   5  10
ATOM     10  C   UNL     1      49.523  10.011  15.131  0.00  0.00    +0.000 C 
ATOM     11  N   UNL     1      48.595  10.962  15.461  0.00  0.00    +0.000 N 
ATOM     12  O   UNL     1      50.720  10.252  15.153  0.00  0.00    +0.000 OA
ATOM     13  H   UNL     1      47.610  10.726  15.439  0.00  0.00    +0.000 HD
ATOM     14  H   UNL     1      48.907  11.881  15.734  0.00  0.00    +0.000 HD
ENDBRANCH   5  10
ENDBRANCH   1   9
BRANCH   1  15
ATOM     15  C   UNL     1      45.856   4.715  14.091  0.00  0.00    +0.000 C 
BRANCH  15  16
ATOM     16  C   UNL     1      44.999   4.718  12.843  0.00  0.00    +0.000 A 
ATOM     17  C   UNL     1      43.811   5.449  12.784  0.00  0.00    +0.000 A 
ATOM     18  C   UNL     1      43.044   5.446  11.620  0.00  0.00    +0.000 A 
ATOM     19  C   UNL     1      43.469   4.731  10.495  0.00  0.00    +0.000 A 
ATOM     20  C   UNL     1      44.681   4.020  10.499  0.00  0.00    +0.000 A 
ATOM     21  C   UNL     1      45.410   4.002  11.706  0.00  0.00    +0.000 A 
BRANCH  20  22
ATOM     22  C   UNL     1      45.241   3.414   9.265  0.00  0.00    +0.000 A 
ATOM     23  C   UNL     1      45.733   4.221   8.223  0.00  0.00    +0.000 A 
ATOM     24  C   UNL     1      46.405   3.676   7.125  0.00  0.00    +0.000 A 
ATOM     25  C   UNL     1      46.607   2.302   7.046  0.00  0.00    +0.000 A 
ATOM     26  C   UNL     1      46.099   1.474   8.042  0.00  0.00    +0.000 A 
ATOM     27  C   UNL     1      45.412   2.023   9.131  0.00  0.00    +0.000 A 
ENDBRANCH  20  22
ENDBRANCH  15  16
ENDBRANCH   1  15
TORSDOF 5
ENDMDL
MODEL 6
REMARK VINA RESULT:    -6.498      5.015      8.182
REMARK INTER + INTRA:          -9.834
REMARK INTER:                  -8.534
REMARK INTRA:                  -1.301
REMARK UNBOUND:                -1.437
REMARK  Name = 
REMARK  7 active torsions:
REMARK  status: ('A' for Active; 'I' for Inactive)
REMARK    1  A    between atoms: C_1  and  C_2
REMARK    2  A    between atoms: C_4  and  C_5
REMARK    3  A    between atoms: C_9  and  C_10
REMARK    4  A    between atoms: C_11  and  C_12
REMARK    5  A    between atoms: C_12  and  C_13
REMARK    6  A    between atoms: C_13  and  C_14
REMARK    7  A    between atoms: C_18  and  C_19
REMARK                            x       y       z     vdW  Elec       q    Type
REMARK                         _______ _______ _______ _____ _____    ______ ____
ROOT
ATOM      1  C   UNL     1      48.402   6.189  14.142  0.00  0.00    +0.000 C 
ENDROOT
BRANCH   1   9
ATOM      2  C   UNL     1      46.968   3.543  13.689  0.00  0.00    +0.000 C 
ATOM      3  C   UNL     1      46.374   4.869  13.300  0.00  0.00    +0.000 A 
ATOM      4  C   UNL     1      45.102   4.857  12.717  0.00  0.00    +0.000 A 
ATOM      5  C   UNL     1      44.521   6.056  12.346  0.00  0.00    +0.000 A 
ATOM      6  N   UNL     1      45.119   7.265  12.509  0.00  0.00    +0.000 NA
ATOM      7  C   UNL     1      46.354   7.276  13.078  0.00  0.00    +0.000 A 
ATOM      8  C   UNL     1      46.954   8.647  13.240  0.00  0.00    +0.000 C 
ATOM      9  C   UNL     1      47.026   6.107  13.499  0.00  0.00    +0.000 A 
BRANCH   5  10
ATOM     10  C   UNL     1      43.154   6.047  11.731  0.00  0.00    +0.000 C 
ATOM     11  N   UNL     1      42.769   7.215  11.129  0.00  0.00    +0.000 N 
ATOM     12  O   UNL     1      42.421   5.069  11.754  0.00  0.00    +0.000 OA
ATOM     13  H   UNL     1      43.404   8.004  11.122  0.00  0.00    +0.000 HD
ATOM     14  H   UNL     1      41.863   7.268  10.690  0.00  0.00    +0.000 HD
ENDBRANCH   5  10
ENDBRANCH   1   9
BRANCH   1  15
ATOM     15  C   UNL     1      48.351   6.527  15.638  0.00  0.00    +0.000 C 
BRANCH  15  16
ATOM     16  C   UNL     1      48.430   5.292  16.510  0.00  0.00    +0.000 A 
ATOM     17  C   UNL     1      47.275   4.657  16.970  0.00  0.00    +0.000 A 
ATOM     18  C   UNL     1      47.371   3.514  17.763  0.00  0.00    +0.000 A 
ATOM     19  C   UNL     1      48.624   2.980  18.082  0.00  0.00    +0.000 A 
ATOM     20  C   UNL     1      49.808   3.562  17.601  0.00  0.00    +0.000 A 
ATOM     21  C   UNL     1      49.680   4.744  16.843  0.00  0.00    +0.000 A 
BRANCH  20  22
ATOM     22  C   UNL     1      51.131   2.908  17.770  0.00  0.00    +0.000 A 
ATOM     23  C   UNL     1      51.318   1.557  17.423  0.00  0.00    +0.000 A 
ATOM     24  C   UNL     1      52.585   0.967  17.425  0.00  0.00    +0.000 A 
ATOM     25  C   UNL     1      53.702   1.719  17.772  0.00  0.00    +0.000 A 
ATOM     26  C   UNL     1      53.544   3.047  18.156  0.00  0.00    +0.000 A 
ATOM     27  C   UNL     1      52.272   3.629  18.169  0.00  0.00    +0.000 A 
ENDBRANCH  20  22
ENDBRANCH  15  16
ENDBRANCH   1  15
TORSDOF 5
ENDMDL
MODEL 7
REMARK VINA RESULT:    -6.250      5.041      8.153
REMARK INTER + INTRA:          -9.514
REMARK INTER:                  -8.215
REMARK INTRA:                  -1.300
REMARK UNBOUND:                -1.437
REMARK  Name = 
REMARK  7 active torsions:
REMARK  status: ('A' for Active; 'I' for Inactive)
REMARK    1  A    between atoms: C_1  and  C_2
REMARK    2  A    between atoms: C_4  and  C_5
REMARK    3  A    between atoms: C_9  and  C_10
REMARK    4  A    between atoms: C_11  and  C_12
REMARK    5  A    between atoms: C_12  and  C_13
REMARK    6  A    between atoms: C_13  and  C_14
REMARK    7  A    between atoms: C_18  and  C_19
REMARK                            x       y       z     vdW  Elec       q    Type
REMARK                         _______ _______ _______ _____ _____    ______ ____
ROOT
ATOM      1  C   UNL     1      48.683   6.572  14.226  0.00  0.00    +0.000 C 
ENDROOT
BRANCH   1   9
ATOM      2  C   UNL     1      47.364   8.497  12.273  0.00  0.00    +0.000 C 
ATOM      3  C   UNL     1      46.703   7.228  12.738  0.00  0.00    +0.000 A 
ATOM      4  C   UNL     1      45.434   6.940  12.226  0.00  0.00    +0.000 A 
ATOM      5  C   UNL     1      44.794   5.781  12.629  0.00  0.00    +0.000 A 
ATOM      6  N   UNL     1      45.326   4.894  13.509  0.00  0.00    +0.000 NA
ATOM      7  C   UNL     1      46.561   5.173  14.004  0.00  0.00    +0.000 A 
ATOM      8  C   UNL     1      47.097   4.145  14.963  0.00  0.00    +0.000 C 
ATOM      9  C   UNL     1      47.299   6.325  13.647  0.00  0.00    +0.000 A 
BRANCH   5  10
ATOM     10  C   UNL     1      43.438   5.464  12.074  0.00  0.00    +0.000 C 
ATOM     11  N   UNL     1      43.319   5.563  10.713  0.00  0.00    +0.000 N 
ATOM     12  O   UNL     1      42.492   5.134  12.774  0.00  0.00    +0.000 OA
ATOM     13  H   UNL     1      44.125   5.832  10.161  0.00  0.00    +0.000 HD
ATOM     14  H   UNL     1      42.434   5.354  10.279  0.00  0.00    +0.000 HD
ENDBRANCH   5  10
ENDBRANCH   1   9
BRANCH   1  15
ATOM     15  C   UNL     1      48.664   7.448  15.486  0.00  0.00    +0.000 C 
BRANCH  15  16
ATOM     16  C   UNL     1      48.954   6.656  16.743  0.00  0.00    +0.000 A 
ATOM     17  C   UNL     1      48.260   6.904  17.929  0.00  0.00    +0.000 A 
ATOM     18  C   UNL     1      48.535   6.154  19.072  0.00  0.00    +0.000 A 
ATOM     19  C   UNL     1      49.490   5.133  19.033  0.00  0.00    +0.000 A 
ATOM     20  C   UNL     1      50.177   4.822  17.848  0.00  0.00    +0.000 A 
ATOM     21  C   UNL     1      49.912   5.629  16.723  0.00  0.00    +0.000 A 
BRANCH  20  22
ATOM     22  C   UNL     1      51.052   3.627  17.736  0.00  0.00    +0.000 A 
ATOM     23  C   UNL     1      52.390   3.669  18.171  0.00  0.00    +0.000 A 
ATOM     24  C   UNL     1      53.183   2.519  18.222  0.00  0.00    +0.000 A 
ATOM     25  C   UNL     1      52.652   1.291  17.840  0.00  0.00    +0.000 A 
ATOM     26  C   UNL     1      51.344   1.224  17.371  0.00  0.00    +0.000 A 
ATOM     27  C   UNL     1      50.560   2.381  17.305  0.00  0.00    +0.000 A 
ENDBRANCH  20  22
ENDBRANCH  15  16
ENDBRANCH   1  15
TORSDOF 5
ENDMDL
MODEL 8
REMARK VINA RESULT:    -6.195      4.931      8.183
REMARK INTER + INTRA:          -9.442
REMARK INTER:                  -8.149
REMARK INTRA:                  -1.294
REMARK UNBOUND:                -1.437
REMARK  Name = 
REMARK  7 active torsions:
REMARK  status: ('A' for Active; 'I' for Inactive)
REMARK    1  A    between atoms: C_1  and  C_2
REMARK    2  A    between atoms: C_4  and  C_5
REMARK    3  A    between atoms: C_9  and  C_10
REMARK    4  A    between atoms: C_11  and  C_12
REMARK    5  A    between atoms: C_12  and  C_13
REMARK    6  A    between atoms: C_13  and  C_14
REMARK    7  A    between atoms: C_18  and  C_19
REMARK                            x       y       z     vdW  Elec       q    Type
REMARK                         _______ _______ _______ _____ _____    ______ ____
ROOT
ATOM      1  C   UNL     1      48.571   6.514  14.011  0.00  0.00    +0.000 C 
ENDROOT
BRANCH   1   9
ATOM      2  C   UNL     1      47.202   8.135  11.830  0.00  0.00    +0.000 C 
ATOM      3  C   UNL     1      46.587   6.904  12.437  0.00  0.00    +0.000 A 
ATOM      4  C   UNL     1      45.338   6.503  11.952  0.00  0.00    +0.000 A 
ATOM      5  C   UNL     1      44.741   5.375  12.485  0.00  0.00    +0.000 A 
ATOM      6  N   UNL     1      45.296   4.621  13.468  0.00  0.00    +0.000 NA
ATOM      7  C   UNL     1      46.512   5.010  13.938  0.00  0.00    +0.000 A 
ATOM      8  C   UNL     1      47.076   4.127  15.017  0.00  0.00    +0.000 C 
ATOM      9  C   UNL     1      47.207   6.141  13.453  0.00  0.00    +0.000 A 
BRANCH   5  10
ATOM     10  C   UNL     1      43.406   4.937  11.958  0.00  0.00    +0.000 C 
ATOM     11  N   UNL     1      42.375   5.815  12.159  0.00  0.00    +0.000 N 
ATOM     12  O   UNL     1      43.235   3.872  11.383  0.00  0.00    +0.000 OA
ATOM     13  H   UNL     1      42.554   6.692  12.634  0.00  0.00    +0.000 HD
ATOM     14  H   UNL     1      41.455   5.581  11.821  0.00  0.00    +0.000 HD
ENDBRANCH   5  10
ENDBRANCH   1   9
BRANCH   1  15
ATOM     15  C   UNL     1      48.505   7.589  15.103  0.00  0.00    +0.000 C 
BRANCH  15  16
ATOM     16  C   UNL     1      48.947   7.067  16.453  0.00  0.00    +0.000 A 
ATOM     17  C   UNL     1      48.553   7.697  17.636  0.00  0.00    +0.000 A 
ATOM     18  C   UNL     1      48.963   7.191  18.869  0.00  0.00    +0.000 A 
ATOM     19  C   UNL     1      49.751   6.037  18.933  0.00  0.00    +0.000 A 
ATOM     20  C   UNL     1      50.130   5.349  17.769  0.00  0.00    +0.000 A 
ATOM     21  C   UNL     1      49.742   5.912  16.536  0.00  0.00    +0.000 A 
BRANCH  20  22
ATOM     22  C   UNL     1      50.803   4.026  17.821  0.00  0.00    +0.000 A 
ATOM     23  C   UNL     1      50.152   2.866  17.365  0.00  0.00    +0.000 A 
ATOM     24  C   UNL     1      50.818   1.642  17.258  0.00  0.00    +0.000 A 
ATOM     25  C   UNL     1      52.163   1.550  17.604  0.00  0.00    +0.000 A 
ATOM     26  C   UNL     1      52.824   2.671  18.094  0.00  0.00    +0.000 A 
ATOM     27  C   UNL     1      52.148   3.891  18.215  0.00  0.00    +0.000 A 
ENDBRANCH  20  22
ENDBRANCH  15  16
ENDBRANCH   1  15
TORSDOF 5
ENDMDL
MODEL 9
REMARK VINA RESULT:    -6.189      3.517      5.280
REMARK INTER + INTRA:          -9.435
REMARK INTER:                  -8.305
REMARK INTRA:                  -1.130
REMARK UNBOUND:                -1.437
REMARK  Name = 
REMARK  7 active torsions:
REMARK  status: ('A' for Active; 'I' for Inactive)
REMARK    1  A    between atoms: C_1  and  C_2
REMARK    2  A    between atoms: C_4  and  C_5
REMARK    3  A    between atoms: C_9  and  C_10
REMARK    4  A    between atoms: C_11  and  C_12
REMARK    5  A    between atoms: C_12  and  C_13
REMARK    6  A    between atoms: C_13  and  C_14
REMARK    7  A    between atoms: C_18  and  C_19
REMARK                            x       y       z     vdW  Elec       q    Type
REMARK                         _______ _______ _______ _____ _____    ______ ____
ROOT
ATOM      1  C   UNL     1      48.601   6.630  14.129  0.00  0.00    +0.000 C 
ENDROOT
BRANCH   1   9
ATOM      2  C   UNL     1      50.596   7.754  16.133  0.00  0.00    +0.000 C 
ATOM      3  C   UNL     1      49.676   6.609  16.455  0.00  0.00    +0.000 A 
ATOM      4  C   UNL     1      49.753   6.063  17.741  0.00  0.00    +0.000 A 
ATOM      5  C   UNL     1      48.922   5.009  18.074  0.00  0.00    +0.000 A 
ATOM      6  N   UNL     1      48.024   4.457  17.218  0.00  0.00    +0.000 NA
ATOM      7  C   UNL     1      47.947   4.989  15.969  0.00  0.00    +0.000 A 
ATOM      8  C   UNL     1      46.926   4.340  15.075  0.00  0.00    +0.000 C 
ATOM      9  C   UNL     1      48.746   6.072  15.536  0.00  0.00    +0.000 A 
BRANCH   5  10
ATOM     10  C   UNL     1      48.995   4.430  19.456  0.00  0.00    +0.000 C 
ATOM     11  N   UNL     1      48.375   3.220  19.623  0.00  0.00    +0.000 N 
ATOM     12  O   UNL     1      49.568   4.985  20.381  0.00  0.00    +0.000 OA
ATOM     13  H   UNL     1      47.915   2.784  18.833  0.00  0.00    +0.000 HD
ATOM     14  H   UNL     1      48.396   2.776  20.527  0.00  0.00    +0.000 HD
ENDBRANCH   5  10
ENDBRANCH   1   9
BRANCH   1  15
ATOM     15  C   UNL     1      47.787   7.929  14.074  0.00  0.00    +0.000 C 
BRANCH  15  16
ATOM     16  C   UNL     1      46.632   7.845  13.099  0.00  0.00    +0.000 A 
ATOM     17  C   UNL     1      45.845   8.962  12.812  0.00  0.00    +0.000 A 
ATOM     18  C   UNL     1      44.794   8.864  11.902  0.00  0.00    +0.000 A 
ATOM     19  C   UNL     1      44.534   7.654  11.251  0.00  0.00    +0.000 A 
ATOM     20  C   UNL     1      45.331   6.519  11.477  0.00  0.00    +0.000 A 
ATOM     21  C   UNL     1      46.355   6.636  12.439  0.00  0.00    +0.000 A 
BRANCH  20  22
ATOM     22  C   UNL     1      45.192   5.285  10.662  0.00  0.00    +0.000 A 
ATOM     23  C   UNL     1      44.488   4.171  11.155  0.00  0.00    +0.000 A 
ATOM     24  C   UNL     1      44.210   3.062  10.350  0.00  0.00    +0.000 A 
ATOM     25  C   UNL     1      44.628   3.045   9.023  0.00  0.00    +0.000 A 
ATOM     26  C   UNL     1      45.358   4.115   8.518  0.00  0.00    +0.000 A 
ATOM     27  C   UNL     1      45.649   5.215   9.333  0.00  0.00    +0.000 A 
ENDBRANCH  20  22
ENDBRANCH  15  16
ENDBRANCH   1  15
TORSDOF 5
ENDMDL
