MODEL 1
REMARK VINA RESULT:    -8.353      0.000      0.000
REMARK INTER + INTRA:         -11.818
REMARK INTER:                 -10.795
REMARK INTRA:                  -1.023
REMARK UNBOUND:                -1.023
REMARK  Name = 
REMARK  5 active torsions:
REMARK  status: ('A' for Active; 'I' for Inactive)
REMARK    1  A    between atoms: C_2  and  C_19
REMARK    2  A    between atoms: N_3  and  C_4
REMARK    3  A    between atoms: C_4  and  C_5
REMARK    4  A    between atoms: N_9  and  C_10
REMARK    5  A    between atoms: C_10  and  C_11
REMARK                            x       y       z     vdW  Elec       q    Type
REMARK                         _______ _______ _______ _____ _____    ______ ____
ROOT
ATOM      1  C   UNL     1      46.828   7.655  13.164  0.00  0.00    +0.000 C 
ENDROOT
BRANCH   1   2
ATOM      2  C   UNL     1      46.181   6.585  12.337  0.00  0.00    +0.000 A 
ATOM      3  C   UNL     1      45.248   5.702  12.878  0.00  0.00    +0.000 A 
ATOM      4  C   UNL     1      44.671   4.733  12.062  0.00  0.00    +0.000 A 
ATOM      5  C   UNL     1      44.997   4.687  10.708  0.00  0.00    +0.000 A 
ATOM      6  N   UNL     1      44.333   3.744   9.918  0.00  0.00    +0.000 N 
ATOM      7  N   UNL     1      45.883   5.541  10.165  0.00  0.00    +0.000 NA
ATOM      8  C   UNL     1      46.455   6.460  10.981  0.00  0.00    +0.000 A 
ATOM      9  H   UNL     1      44.579   2.806  10.220  0.00  0.00    +0.000 HD
BRANCH   6  10
ATOM     10  C   UNL     1      44.451   3.920   8.478  0.00  0.00    +0.000 C 
BRANCH  10  11
ATOM     11  C   UNL     1      45.503   2.966   7.972  0.00  0.00    +0.000 A 
ATOM     12  C   UNL     1      46.440   3.369   7.011  0.00  0.00    +0.000 A 
ATOM     13  C   UNL     1      47.416   2.481   6.570  0.00  0.00    +0.000 A 
ATOM     14  C   UNL     1      47.428   1.209   7.115  0.00  0.00    +0.000 A 
ATOM     15  N   UNL     1      46.551   0.781   8.050  0.00  0.00    +0.000 NA
ATOM     16  C   UNL     1      45.613   1.670   8.458  0.00  0.00    +0.000 A 
ENDBRANCH  10  11
ENDBRANCH   6  10
ENDBRANCH   1   2
BRANCH   1  19
ATOM     17  O   UNL     1      49.474   6.851  13.688  0.00  0.00    +0.000 OA
ATOM     18  C   UNL     1      48.648   6.794  14.596  0.00  0.00    +0.000 C 
ATOM     19  N   UNL     1      47.332   7.127  14.405  0.00  0.00    +0.000 N 
ATOM     20  H   UNL     1      46.726   7.226  15.213  0.00  0.00    +0.000 HD
BRANCH  18  21
ATOM     21  C   UNL     1      49.009   6.312  15.935  0.00  0.00    +0.000 A 
ATOM     22  C   UNL     1      49.858   7.065  16.736  0.00  0.00    +0.000 A 
ATOM     23  S   UNL     1      50.187   6.350  18.249  0.00  0.00    +0.000 S 
ATOM     24  C   UNL     1      49.169   5.029  17.909  0.00  0.00    +0.000 A 
ATOM     25  N   UNL     1      48.974   4.043  18.824  0.00  0.00    +0.000 NA
ATOM     26  C   UNL     1      48.146   3.125  18.452  0.00  0.00    +0.000 A 
ATOM     27  N   UNL     1      47.505   3.097  17.241  0.00  0.00    +0.000 N 
ATOM     28  C   UNL     1      47.730   4.030  16.258  0.00  0.00    +0.000 A 
ATOM     29  O   UNL     1      47.242   3.901  15.139  0.00  0.00    +0.000 OA
ATOM     30  C   UNL     1      48.612   5.115  16.645  0.00  0.00    +0.000 A 
ATOM     31  H   UNL     1      46.893   2.333  16.998  0.00  0.00    +0.000 HD
ENDBRANCH  18  21
ENDBRANCH   1  19
TORSDOF 5
ENDMDL
MODEL 2
REMARK VINA RESULT:    -7.640      2.389      3.001
REMARK INTER + INTRA:         -10.897
REMARK INTER:                 -10.155
REMARK INTRA:                  -0.741
REMARK UNBOUND:                -1.023
REMARK  Name = 
REMARK  5 active torsions:
REMARK  status: ('A' for Active; 'I' for Inactive)
REMARK    1  A    between atoms: C_2  and  C_19
REMARK    2  A    between atoms: N_3  and  C_4
REMARK    3  A    between atoms: C_4  and  C_5
REMARK    4  A    between atoms: N_9  and  C_10
REMARK    5  A    between atoms: C_10  and  C_11
REMARK                            x       y       z     vdW  Elec       q    Type
REMARK                         _______ _______ _______ _____ _____    ______ ____
ROOT
ATOM      1  C   UNL     1      47.220   4.342  14.929  0.00  0.00    +0.000 C 
ENDROOT
BRANCH   1   2
ATOM      2  C   UNL     1      46.601   4.633  13.596  0.00  0.00    +0.000 A 
ATOM      3  C   UNL     1      46.957   5.756  12.850  0.00  0.00    +0.000 A 
ATOM      4  C   UNL     1      46.356   5.972  11.613  0.00  0.00    +0.000 A 
ATOM      5  C   UNL     1      45.443   5.044  11.116  0.00  0.00    +0.000 A 
ATOM      6  N   UNL     1      44.926   5.271   9.838  0.00  0.00    +0.000 N 
ATOM      7  N   UNL     1      45.100   3.948  11.815  0.00  0.00    +0.000 NA
ATOM      8  C   UNL     1      45.675   3.767  13.029  0.00  0.00    +0.000 A 
ATOM      9  H   UNL     1      44.375   6.124   9.835  0.00  0.00    +0.000 HD
BRANCH   6  10
ATOM     10  C   UNL     1      44.233   4.150   9.221  0.00  0.00    +0.000 C 
BRANCH  10  11
ATOM     11  C   UNL     1      45.256   3.289   8.526  0.00  0.00    +0.000 A 
ATOM     12  C   UNL     1      46.145   3.836   7.590  0.00  0.00    +0.000 A 
ATOM     13  C   UNL     1      47.095   3.029   6.973  0.00  0.00    +0.000 A 
ATOM     14  C   UNL     1      47.132   1.690   7.321  0.00  0.00    +0.000 A 
ATOM     15  N   UNL     1      46.303   1.122   8.223  0.00  0.00    +0.000 NA
ATOM     16  C   UNL     1      45.387   1.935   8.807  0.00  0.00    +0.000 A 
ENDBRANCH  10  11
ENDBRANCH   6  10
ENDBRANCH   1   2
BRANCH   1  19
ATOM     17  O   UNL     1      49.428   4.799  16.614  0.00  0.00    +0.000 OA
ATOM     18  C   UNL     1      48.630   5.714  16.424  0.00  0.00    +0.000 C 
ATOM     19  N   UNL     1      47.509   5.554  15.651  0.00  0.00    +0.000 N 
ATOM     20  H   UNL     1      46.972   6.372  15.385  0.00  0.00    +0.000 HD
BRANCH  18  21
ATOM     21  C   UNL     1      48.800   7.028  17.058  0.00  0.00    +0.000 A 
ATOM     22  C   UNL     1      49.395   8.065  16.352  0.00  0.00    +0.000 A 
ATOM     23  S   UNL     1      49.531   9.513  17.244  0.00  0.00    +0.000 S 
ATOM     24  C   UNL     1      48.754   8.820  18.591  0.00  0.00    +0.000 A 
ATOM     25  N   UNL     1      48.517   9.551  19.713  0.00  0.00    +0.000 NA
ATOM     26  C   UNL     1      47.884   8.914  20.641  0.00  0.00    +0.000 A 
ATOM     27  N   UNL     1      47.478   7.608  20.554  0.00  0.00    +0.000 N 
ATOM     28  C   UNL     1      47.763   6.811  19.472  0.00  0.00    +0.000 A 
ATOM     29  O   UNL     1      47.503   5.612  19.484  0.00  0.00    +0.000 OA
ATOM     30  C   UNL     1      48.427   7.493  18.376  0.00  0.00    +0.000 A 
ATOM     31  H   UNL     1      47.015   7.158  21.328  0.00  0.00    +0.000 HD
ENDBRANCH  18  21
ENDBRANCH   1  19
TORSDOF 5
ENDMDL
MODEL 3
REMARK VINA RESULT:    -7.616      2.149      3.437
REMARK INTER + INTRA:         -10.865
REMARK INTER:                  -9.955
REMARK INTRA:                  -0.910
REMARK UNBOUND:                -1.023
REMARK  Name = 
REMARK  5 active torsions:
REMARK  status: ('A' for Active; 'I' for Inactive)
REMARK    1  A    between atoms: C_2  and  C_19
REMARK    2  A    between atoms: N_3  and  C_4
REMARK    3  A    between atoms: C_4  and  C_5
REMARK    4  A    between atoms: N_9  and  C_10
REMARK    5  A    between atoms: C_10  and  C_11
REMARK                            x       y       z     vdW  Elec       q    Type
REMARK                         _______ _______ _______ _____ _____    ______ ____
ROOT
ATOM      1  C   UNL     1      47.353   4.181  15.029  0.00  0.00    +0.000 C 
ENDROOT
BRANCH   1   2
ATOM      2  C   UNL     1      46.689   4.542  13.735  0.00  0.00    +0.000 A 
ATOM      3  C   UNL     1      47.040   5.689  13.024  0.00  0.00    +0.000 A 
ATOM      4  C   UNL     1      46.397   5.970  11.821  0.00  0.00    +0.000 A 
ATOM      5  C   UNL     1      45.448   5.082  11.321  0.00  0.00    +0.000 A 
ATOM      6  N   UNL     1      44.887   5.374  10.075  0.00  0.00    +0.000 N 
ATOM      7  N   UNL     1      45.108   3.964  11.986  0.00  0.00    +0.000 NA
ATOM      8  C   UNL     1      45.725   3.719  13.168  0.00  0.00    +0.000 A 
ATOM      9  H   UNL     1      44.354   6.236  10.129  0.00  0.00    +0.000 HD
BRANCH   6  10
ATOM     10  C   UNL     1      44.147   4.294   9.438  0.00  0.00    +0.000 C 
BRANCH  10  11
ATOM     11  C   UNL     1      45.130   3.419   8.704  0.00  0.00    +0.000 A 
ATOM     12  C   UNL     1      46.017   3.961   7.763  0.00  0.00    +0.000 A 
ATOM     13  C   UNL     1      46.930   3.140   7.109  0.00  0.00    +0.000 A 
ATOM     14  C   UNL     1      46.934   1.794   7.426  0.00  0.00    +0.000 A 
ATOM     15  N   UNL     1      46.106   1.230   8.333  0.00  0.00    +0.000 NA
ATOM     16  C   UNL     1      45.227   2.056   8.952  0.00  0.00    +0.000 A 
ENDBRANCH  10  11
ENDBRANCH   6  10
ENDBRANCH   1   2
BRANCH   1  19
ATOM     17  O   UNL     1      49.539   4.848  16.674  0.00  0.00    +0.000 OA
ATOM     18  C   UNL     1      48.566   5.599  16.649  0.00  0.00    +0.000 C 
ATOM     19  N   UNL     1      47.448   5.320  15.906  0.00  0.00    +0.000 N 
ATOM     20  H   UNL     1      46.745   6.040  15.783  0.00  0.00    +0.000 HD
BRANCH  18  21
ATOM     21  C   UNL     1      48.519   6.824  17.459  0.00  0.00    +0.000 A 
ATOM     22  C   UNL     1      48.504   6.736  18.845  0.00  0.00    +0.000 A 
ATOM     23  S   UNL     1      48.428   8.250  19.627  0.00  0.00    +0.000 S 
ATOM     24  C   UNL     1      48.461   9.081  18.142  0.00  0.00    +0.000 A 
ATOM     25  N   UNL     1      48.454  10.440  18.101  0.00  0.00    +0.000 NA
ATOM     26  C   UNL     1      48.524  10.939  16.913  0.00  0.00    +0.000 A 
ATOM     27  N   UNL     1      48.587  10.202  15.759  0.00  0.00    +0.000 N 
ATOM     28  C   UNL     1      48.520   8.829  15.749  0.00  0.00    +0.000 A 
ATOM     29  O   UNL     1      48.444   8.208  14.693  0.00  0.00    +0.000 OA
ATOM     30  C   UNL     1      48.495   8.215  17.063  0.00  0.00    +0.000 A 
ATOM     31  H   UNL     1      48.608  10.653  14.858  0.00  0.00    +0.000 HD
ENDBRANCH  18  21
ENDBRANCH   1  19
TORSDOF 5
ENDMDL
MODEL 4
REMARK VINA RESULT:    -7.307      1.920      2.432
REMARK INTER + INTRA:         -10.466
REMARK INTER:                  -9.747
REMARK INTRA:                  -0.719
REMARK UNBOUND:                -1.023
REMARK  Name = 
REMARK  5 active torsions:
REMARK  status: ('A' for Active; 'I' for Inactive)
REMARK    1  A    between atoms: C_2  and  C_19
REMARK    2  A    between atoms: N_3  and  C_4
REMARK    3  A    between atoms: C_4  and  C_5
REMARK    4  A    between atoms: N_9  and  C_10
REMARK    5  A    between atoms: C_10  and  C_11
REMARK                            x       y       z     vdW  Elec       q    Type
REMARK                         _______ _______ _______ _____ _____    ______ ____
ROOT
ATOM      1  C   UNL     1      47.572   7.396  13.763  0.00  0.00    +0.000 C 
ENDROOT
BRANCH   1   2
ATOM      2  C   UNL     1      46.596   6.752  12.827  0.00  0.00    +0.000 A 
ATOM      3  C   UNL     1      45.903   7.487  11.867  0.00  0.00    +0.000 A 
ATOM      4  C   UNL     1      45.015   6.835  11.016  0.00  0.00    +0.000 A 
ATOM      5  C   UNL     1      44.863   5.453  11.103  0.00  0.00    +0.000 A 
ATOM      6  N   UNL     1      44.016   4.839  10.177  0.00  0.00    +0.000 N 
ATOM      7  N   UNL     1      45.535   4.725  12.013  0.00  0.00    +0.000 NA
ATOM      8  C   UNL     1      46.376   5.380  12.851  0.00  0.00    +0.000 A 
ATOM      9  H   UNL     1      43.063   5.159  10.316  0.00  0.00    +0.000 HD
BRANCH   6  10
ATOM     10  C   UNL     1      44.115   3.390  10.083  0.00  0.00    +0.000 C 
BRANCH  10  11
ATOM     11  C   UNL     1      45.096   3.054   8.990  0.00  0.00    +0.000 A 
ATOM     12  C   UNL     1      45.595   4.049   8.137  0.00  0.00    +0.000 A 
ATOM     13  C   UNL     1      46.515   3.723   7.146  0.00  0.00    +0.000 A 
ATOM     14  C   UNL     1      46.919   2.403   7.045  0.00  0.00    +0.000 A 
ATOM     15  N   UNL     1      46.473   1.415   7.851  0.00  0.00    +0.000 NA
ATOM     16  C   UNL     1      45.576   1.764   8.806  0.00  0.00    +0.000 A 
ENDBRANCH  10  11
ENDBRANCH   6  10
ENDBRANCH   1   2
BRANCH   1  19
ATOM     17  O   UNL     1      49.901   6.589  15.124  0.00  0.00    +0.000 OA
ATOM     18  C   UNL     1      48.807   6.376  15.644  0.00  0.00    +0.000 C 
ATOM     19  N   UNL     1      47.629   6.701  15.023  0.00  0.00    +0.000 N 
ATOM     20  H   UNL     1      46.765   6.663  15.554  0.00  0.00    +0.000 HD
BRANCH  18  21
ATOM     21  C   UNL     1      48.693   5.708  16.947  0.00  0.00    +0.000 A 
ATOM     22  C   UNL     1      48.949   4.347  17.052  0.00  0.00    +0.000 A 
ATOM     23  S   UNL     1      48.750   3.730  18.630  0.00  0.00    +0.000 S 
ATOM     24  C   UNL     1      48.360   5.270  19.241  0.00  0.00    +0.000 A 
ATOM     25  N   UNL     1      48.103   5.452  20.564  0.00  0.00    +0.000 NA
ATOM     26  C   UNL     1      47.863   6.676  20.898  0.00  0.00    +0.000 A 
ATOM     27  N   UNL     1      47.843   7.733  20.026  0.00  0.00    +0.000 N 
ATOM     28  C   UNL     1      48.021   7.584  18.672  0.00  0.00    +0.000 A 
ATOM     29  O   UNL     1      47.864   8.530  17.906  0.00  0.00    +0.000 OA
ATOM     30  C   UNL     1      48.348   6.235  18.250  0.00  0.00    +0.000 A 
ATOM     31  H   UNL     1      47.617   8.662  20.346  0.00  0.00    +0.000 HD
ENDBRANCH  18  21
ENDBRANCH   1  19
TORSDOF 5
ENDMDL
MODEL 5
REMARK VINA RESULT:    -7.162      2.200      3.675
REMARK INTER + INTRA:         -10.278
REMARK INTER:                  -9.274
REMARK INTRA:                  -1.005
REMARK UNBOUND:                -1.023
REMARK  Name = 
REMARK  5 active torsions:
REMARK  status: ('A' for Active; 'I' for Inactive)
REMARK    1  A    between atoms: C_2  and  C_19
REMARK    2  A    between atoms: N_3  and  C_4
REMARK    3  A    between atoms: C_4  and  C_5
REMARK    4  A    between atoms: N_9  and  C_10
REMARK    5  A    between atoms: C_10  and  C_11
REMARK                            x       y       z     vdW  Elec       q    Type
REMARK                         _______ _______ _______ _____ _____    ______ ____
ROOT
ATOM      1  C   UNL     1      46.958   5.218  14.689  0.00  0.00    +0.000 C 
ENDROOT
BRANCH   1   2
ATOM      2  C   UNL     1      46.408   5.242  13.295  0.00  0.00    +0.000 A 
ATOM      3  C   UNL     1      46.765   6.231  12.381  0.00  0.00    +0.000 A 
ATOM      4  C   UNL     1      46.231   6.199  11.095  0.00  0.00    +0.000 A 
ATOM      5  C   UNL     1      45.385   5.156  10.725  0.00  0.00    +0.000 A 
ATOM      6  N   UNL     1      44.937   5.130   9.402  0.00  0.00    +0.000 N 
ATOM      7  N   UNL     1      45.042   4.184  11.589  0.00  0.00    +0.000 NA
ATOM      8  C   UNL     1      45.550   4.246  12.844  0.00  0.00    +0.000 A 
ATOM      9  H   UNL     1      44.354   5.942   9.218  0.00  0.00    +0.000 HD
BRANCH   6  10
ATOM     10  C   UNL     1      44.324   3.887   8.959  0.00  0.00    +0.000 C 
BRANCH  10  11
ATOM     11  C   UNL     1      45.387   3.046   8.300  0.00  0.00    +0.000 A 
ATOM     12  C   UNL     1      46.260   3.599   7.353  0.00  0.00    +0.000 A 
ATOM     13  C   UNL     1      47.248   2.811   6.769  0.00  0.00    +0.000 A 
ATOM     14  C   UNL     1      47.338   1.488   7.162  0.00  0.00    +0.000 A 
ATOM     15  N   UNL     1      46.525   0.916   8.077  0.00  0.00    +0.000 NA
ATOM     16  C   UNL     1      45.572   1.709   8.627  0.00  0.00    +0.000 A 
ENDBRANCH  10  11
ENDBRANCH   6  10
ENDBRANCH   1   2
BRANCH   1  19
ATOM     17  O   UNL     1      48.315   5.969  17.038  0.00  0.00    +0.000 OA
ATOM     18  C   UNL     1      48.844   6.193  15.952  0.00  0.00    +0.000 C 
ATOM     19  N   UNL     1      48.227   5.896  14.765  0.00  0.00    +0.000 N 
ATOM     20  H   UNL     1      48.762   5.941  13.905  0.00  0.00    +0.000 HD
BRANCH  18  21
ATOM     21  C   UNL     1      50.157   6.846  15.856  0.00  0.00    +0.000 A 
ATOM     22  C   UNL     1      51.233   6.347  16.578  0.00  0.00    +0.000 A 
ATOM     23  S   UNL     1      52.673   7.235  16.366  0.00  0.00    +0.000 S 
ATOM     24  C   UNL     1      51.923   8.292  15.262  0.00  0.00    +0.000 A 
ATOM     25  N   UNL     1      52.626   9.291  14.664  0.00  0.00    +0.000 NA
ATOM     26  C   UNL     1      51.945   9.990  13.819  0.00  0.00    +0.000 A 
ATOM     27  N   UNL     1      50.621   9.790  13.527  0.00  0.00    +0.000 N 
ATOM     28  C   UNL     1      49.855   8.843  14.162  0.00  0.00    +0.000 A 
ATOM     29  O   UNL     1      48.643   8.780  13.974  0.00  0.00    +0.000 OA
ATOM     30  C   UNL     1      50.584   7.993  15.084  0.00  0.00    +0.000 A 
ATOM     31  H   UNL     1      50.138  10.393  12.879  0.00  0.00    +0.000 HD
ENDBRANCH  18  21
ENDBRANCH   1  19
TORSDOF 5
ENDMDL
MODEL 6
REMARK VINA RESULT:    -7.116      2.448      3.123
REMARK INTER + INTRA:         -10.219
REMARK INTER:                  -9.457
REMARK INTRA:                  -0.763
REMARK UNBOUND:                -1.023
REMARK  Name = 
REMARK  5 active torsions:
REMARK  status: ('A' for Active; 'I' for Inactive)
REMARK    1  A    between atoms: C_2  and  C_19
REMARK    2  A    between atoms: N_3  and  C_4
REMARK    3  A    between atoms: C_4  and  C_5
REMARK    4  A    between atoms: N_9  and  C_10
REMARK    5  A    between atoms: C_10  and  C_11
REMARK                            x       y       z     vdW  Elec       q    Type
REMARK                         _______ _______ _______ _____ _____    ______ ____
ROOT
ATOM      1  C   UNL     1      46.986   5.256  14.687  0.00  0.00    +0.000 C 
ENDROOT
BRANCH   1   2
ATOM      2  C   UNL     1      46.428   5.264  13.296  0.00  0.00    +0.000 A 
ATOM      3  C   UNL     1      46.775   6.247  12.370  0.00  0.00    +0.000 A 
ATOM      4  C   UNL     1      46.234   6.199  11.088  0.00  0.00    +0.000 A 
ATOM      5  C   UNL     1      45.391   5.149  10.733  0.00  0.00    +0.000 A 
ATOM      6  N   UNL     1      44.935   5.109   9.412  0.00  0.00    +0.000 N 
ATOM      7  N   UNL     1      45.057   4.184  11.608  0.00  0.00    +0.000 NA
ATOM      8  C   UNL     1      45.573   4.261  12.860  0.00  0.00    +0.000 A 
ATOM      9  H   UNL     1      44.348   5.916   9.225  0.00  0.00    +0.000 HD
BRANCH   6  10
ATOM     10  C   UNL     1      44.325   3.858   8.985  0.00  0.00    +0.000 C 
BRANCH  10  11
ATOM     11  C   UNL     1      45.384   3.024   8.311  0.00  0.00    +0.000 A 
ATOM     12  C   UNL     1      46.242   3.583   7.353  0.00  0.00    +0.000 A 
ATOM     13  C   UNL     1      47.226   2.802   6.755  0.00  0.00    +0.000 A 
ATOM     14  C   UNL     1      47.328   1.478   7.144  0.00  0.00    +0.000 A 
ATOM     15  N   UNL     1      46.531   0.901   8.070  0.00  0.00    +0.000 NA
ATOM     16  C   UNL     1      45.581   1.688   8.633  0.00  0.00    +0.000 A 
ENDBRANCH  10  11
ENDBRANCH   6  10
ENDBRANCH   1   2
BRANCH   1  19
ATOM     17  O   UNL     1      48.278   6.168  17.016  0.00  0.00    +0.000 OA
ATOM     18  C   UNL     1      48.834   6.325  15.931  0.00  0.00    +0.000 C 
ATOM     19  N   UNL     1      48.248   5.947  14.750  0.00  0.00    +0.000 N 
ATOM     20  H   UNL     1      48.806   5.940  13.903  0.00  0.00    +0.000 HD
BRANCH  18  21
ATOM     21  C   UNL     1      50.144   6.980  15.826  0.00  0.00    +0.000 A 
ATOM     22  C   UNL     1      50.251   8.220  15.208  0.00  0.00    +0.000 A 
ATOM     23  S   UNL     1      51.845   8.825  15.156  0.00  0.00    +0.000 S 
ATOM     24  C   UNL     1      52.445   7.473  15.999  0.00  0.00    +0.000 A 
ATOM     25  N   UNL     1      53.763   7.378  16.318  0.00  0.00    +0.000 NA
ATOM     26  C   UNL     1      54.073   6.322  16.994  0.00  0.00    +0.000 A 
ATOM     27  N   UNL     1      53.187   5.347  17.368  0.00  0.00    +0.000 N 
ATOM     28  C   UNL     1      51.863   5.364  17.002  0.00  0.00    +0.000 A 
ATOM     29  O   UNL     1      51.128   4.410  17.240  0.00  0.00    +0.000 OA
ATOM     30  C   UNL     1      51.449   6.557  16.287  0.00  0.00    +0.000 A 
ATOM     31  H   UNL     1      53.499   4.529  17.869  0.00  0.00    +0.000 HD
ENDBRANCH  18  21
ENDBRANCH   1  19
TORSDOF 5
ENDMDL
MODEL 7
REMARK VINA RESULT:    -7.053      2.620      3.290
REMARK INTER + INTRA:         -10.137
REMARK INTER:                  -9.333
REMARK INTRA:                  -0.804
REMARK UNBOUND:                -1.023
REMARK  Name = 
REMARK  5 active torsions:
REMARK  status: ('A' for Active; 'I' for Inactive)
REMARK    1  A    between atoms: C_2  and  C_19
REMARK    2  A    between atoms: N_3  and  C_4
REMARK    3  A    between atoms: C_4  and  C_5
REMARK    4  A    between atoms: N_9  and  C_10
REMARK    5  A    between atoms: C_10  and  C_11
REMARK                            x       y       z     vdW  Elec       q    Type
REMARK                         _______ _______ _______ _____ _____    ______ ____
ROOT
ATOM      1  C   UNL     1      48.193   6.671  14.722  0.00  0.00    +0.000 C 
ENDROOT
BRANCH   1   2
ATOM      2  C   UNL     1      47.381   5.677  13.948  0.00  0.00    +0.000 A 
ATOM      3  C   UNL     1      47.072   4.420  14.464  0.00  0.00    +0.000 A 
ATOM      4  C   UNL     1      46.305   3.539  13.705  0.00  0.00    +0.000 A 
ATOM      5  C   UNL     1      45.820   3.940  12.463  0.00  0.00    +0.000 A 
ATOM      6  N   UNL     1      44.995   3.046  11.776  0.00  0.00    +0.000 N 
ATOM      7  N   UNL     1      46.095   5.155  11.955  0.00  0.00    +0.000 NA
ATOM      8  C   UNL     1      46.865   5.989  12.697  0.00  0.00    +0.000 A 
ATOM      9  H   UNL     1      45.517   2.211  11.532  0.00  0.00    +0.000 HD
BRANCH   6  10
ATOM     10  C   UNL     1      44.256   3.596  10.648  0.00  0.00    +0.000 C 
BRANCH  10  11
ATOM     11  C   UNL     1      45.066   3.370   9.398  0.00  0.00    +0.000 A 
ATOM     12  C   UNL     1      45.456   2.079   9.015  0.00  0.00    +0.000 A 
ATOM     13  C   UNL     1      46.187   1.887   7.847  0.00  0.00    +0.000 A 
ATOM     14  C   UNL     1      46.500   3.000   7.088  0.00  0.00    +0.000 A 
ATOM     15  N   UNL     1      46.137   4.260   7.413  0.00  0.00    +0.000 NA
ATOM     16  C   UNL     1      45.426   4.415   8.558  0.00  0.00    +0.000 A 
ENDBRANCH  10  11
ENDBRANCH   6  10
ENDBRANCH   1   2
BRANCH   1  19
ATOM     17  O   UNL     1      50.201   5.717  16.449  0.00  0.00    +0.000 OA
ATOM     18  C   UNL     1      49.110   6.027  16.924  0.00  0.00    +0.000 C 
ATOM     19  N   UNL     1      48.071   6.458  16.141  0.00  0.00    +0.000 N 
ATOM     20  H   UNL     1      47.252   6.860  16.586  0.00  0.00    +0.000 HD
BRANCH  18  21
ATOM     21  C   UNL     1      48.834   5.904  18.361  0.00  0.00    +0.000 A 
ATOM     22  C   UNL     1      49.151   4.728  19.028  0.00  0.00    +0.000 A 
ATOM     23  S   UNL     1      48.745   4.748  20.685  0.00  0.00    +0.000 S 
ATOM     24  C   UNL     1      48.175   6.349  20.582  0.00  0.00    +0.000 A 
ATOM     25  N   UNL     1      47.706   6.995  21.683  0.00  0.00    +0.000 NA
ATOM     26  C   UNL     1      47.345   8.217  21.471  0.00  0.00    +0.000 A 
ATOM     27  N   UNL     1      47.399   8.846  20.255  0.00  0.00    +0.000 N 
ATOM     28  C   UNL     1      47.793   8.209  19.103  0.00  0.00    +0.000 A 
ATOM     29  O   UNL     1      47.702   8.762  18.011  0.00  0.00    +0.000 OA
ATOM     30  C   UNL     1      48.261   6.849  19.295  0.00  0.00    +0.000 A 
ATOM     31  H   UNL     1      47.071   9.795  20.149  0.00  0.00    +0.000 HD
ENDBRANCH  18  21
ENDBRANCH   1  19
TORSDOF 5
ENDMDL
MODEL 8
REMARK VINA RESULT:    -6.859      3.264      7.974
REMARK INTER + INTRA:          -9.886
REMARK INTER:                  -9.154
REMARK INTRA:                  -0.733
REMARK UNBOUND:                -1.023
REMARK  Name = 
REMARK  5 active torsions:
REMARK  status: ('A' for Active; 'I' for Inactive)
REMARK    1  A    between atoms: C_2  and  C_19
REMARK    2  A    between atoms: N_3  and  C_4
REMARK    3  A    between atoms: C_4  and  C_5
REMARK    4  A    between atoms: N_9  and  C_10
REMARK    5  A    between atoms: C_10  and  C_11
REMARK                            x       y       z     vdW  Elec       q    Type
REMARK                         _______ _______ _______ _____ _____    ______ ____
ROOT
ATOM      1  C   UNL     1      48.123   7.928  12.605  0.00  0.00    +0.000 C 
ENDROOT
BRANCH   1   2
ATOM      2  C   UNL     1      48.554   7.494  13.973  0.00  0.00    +0.000 A 
ATOM      3  C   UNL     1      49.196   8.365  14.852  0.00  0.00    +0.000 A 
ATOM      4  C   UNL     1      49.566   7.911  16.115  0.00  0.00    +0.000 A 
ATOM      5  C   UNL     1      49.250   6.610  16.501  0.00  0.00    +0.000 A 
ATOM      6  N   UNL     1      49.578   6.229  17.805  0.00  0.00    +0.000 N 
ATOM      7  N   UNL     1      48.618   5.761  15.672  0.00  0.00    +0.000 NA
ATOM      8  C   UNL     1      48.289   6.212  14.437  0.00  0.00    +0.000 A 
ATOM      9  H   UNL     1      50.586   6.240  17.926  0.00  0.00    +0.000 HD
BRANCH   6  10
ATOM     10  C   UNL     1      48.968   4.997  18.283  0.00  0.00    +0.000 C 
BRANCH  10  11
ATOM     11  C   UNL     1      49.888   3.853  17.942  0.00  0.00    +0.000 A 
ATOM     12  C   UNL     1      51.250   3.901  18.268  0.00  0.00    +0.000 A 
ATOM     13  C   UNL     1      52.080   2.827  17.963  0.00  0.00    +0.000 A 
ATOM     14  C   UNL     1      51.515   1.726  17.344  0.00  0.00    +0.000 A 
ATOM     15  N   UNL     1      50.207   1.632  17.021  0.00  0.00    +0.000 NA
ATOM     16  C   UNL     1      49.424   2.696  17.331  0.00  0.00    +0.000 A 
ENDBRANCH  10  11
ENDBRANCH   6  10
ENDBRANCH   1   2
BRANCH   1  19
ATOM     17  O   UNL     1      45.352   7.761  12.140  0.00  0.00    +0.000 OA
ATOM     18  C   UNL     1      46.081   6.881  11.690  0.00  0.00    +0.000 C 
ATOM     19  N   UNL     1      47.434   6.871  11.911  0.00  0.00    +0.000 N 
ATOM     20  H   UNL     1      48.015   6.226  11.386  0.00  0.00    +0.000 HD
BRANCH  18  21
ATOM     21  C   UNL     1      45.539   5.749  10.926  0.00  0.00    +0.000 A 
ATOM     22  C   UNL     1      45.801   5.643   9.566  0.00  0.00    +0.000 A 
ATOM     23  S   UNL     1      45.081   4.282   8.832  0.00  0.00    +0.000 S 
ATOM     24  C   UNL     1      44.432   3.757  10.316  0.00  0.00    +0.000 A 
ATOM     25  N   UNL     1      43.713   2.606  10.396  0.00  0.00    +0.000 NA
ATOM     26  C   UNL     1      43.317   2.305  11.587  0.00  0.00    +0.000 A 
ATOM     27  N   UNL     1      43.562   3.060  12.705  0.00  0.00    +0.000 N 
ATOM     28  C   UNL     1      44.217   4.267  12.659  0.00  0.00    +0.000 A 
ATOM     29  O   UNL     1      44.302   4.979  13.655  0.00  0.00    +0.000 OA
ATOM     30  C   UNL     1      44.732   4.626  11.350  0.00  0.00    +0.000 A 
ATOM     31  H   UNL     1      43.197   2.786  13.604  0.00  0.00    +0.000 HD
ENDBRANCH  18  21
ENDBRANCH   1  19
TORSDOF 5
ENDMDL
MODEL 9
REMARK VINA RESULT:    -6.748      3.527      8.384
REMARK INTER + INTRA:          -9.744
REMARK INTER:                  -8.771
REMARK INTRA:                  -0.973
REMARK UNBOUND:                -1.023
REMARK  Name = 
REMARK  5 active torsions:
REMARK  status: ('A' for Active; 'I' for Inactive)
REMARK    1  A    between atoms: C_2  and  C_19
REMARK    2  A    between atoms: N_3  and  C_4
REMARK    3  A    between atoms: C_4  and  C_5
REMARK    4  A    between atoms: N_9  and  C_10
REMARK    5  A    between atoms: C_10  and  C_11
REMARK                            x       y       z     vdW  Elec       q    Type
REMARK                         _______ _______ _______ _____ _____    ______ ____
ROOT
ATOM      1  C   UNL     1      48.409   7.485  14.443  0.00  0.00    +0.000 C 
ENDROOT
BRANCH   1   2
ATOM      2  C   UNL     1      48.885   6.582  15.540  0.00  0.00    +0.000 A 
ATOM      3  C   UNL     1      48.136   5.488  15.968  0.00  0.00    +0.000 A 
ATOM      4  C   UNL     1      48.632   4.676  16.985  0.00  0.00    +0.000 A 
ATOM      5  C   UNL     1      49.887   4.939  17.528  0.00  0.00    +0.000 A 
ATOM      6  N   UNL     1      50.370   4.050  18.493  0.00  0.00    +0.000 N 
ATOM      7  N   UNL     1      50.631   5.980  17.116  0.00  0.00    +0.000 NA
ATOM      8  C   UNL     1      50.121   6.776  16.144  0.00  0.00    +0.000 A 
ATOM      9  H   UNL     1      49.779   4.081  19.318  0.00  0.00    +0.000 HD
BRANCH   6  10
ATOM     10  C   UNL     1      51.786   4.160  18.812  0.00  0.00    +0.000 C 
BRANCH  10  11
ATOM     11  C   UNL     1      52.452   2.857  18.451  0.00  0.00    +0.000 A 
ATOM     12  C   UNL     1      51.773   1.880  17.710  0.00  0.00    +0.000 A 
ATOM     13  C   UNL     1      52.411   0.692  17.369  0.00  0.00    +0.000 A 
ATOM     14  C   UNL     1      53.722   0.520  17.776  0.00  0.00    +0.000 A 
ATOM     15  N   UNL     1      54.418   1.438  18.482  0.00  0.00    +0.000 NA
ATOM     16  C   UNL     1      53.768   2.586  18.799  0.00  0.00    +0.000 A 
ENDBRANCH  10  11
ENDBRANCH   6  10
ENDBRANCH   1   2
BRANCH   1  19
ATOM     17  O   UNL     1      47.792   7.212  11.709  0.00  0.00    +0.000 OA
ATOM     18  C   UNL     1      46.950   6.882  12.542  0.00  0.00    +0.000 C 
ATOM     19  N   UNL     1      47.161   7.026  13.889  0.00  0.00    +0.000 N 
ATOM     20  H   UNL     1      46.516   6.589  14.538  0.00  0.00    +0.000 HD
BRANCH  18  21
ATOM     21  C   UNL     1      45.637   6.359  12.142  0.00  0.00    +0.000 A 
ATOM     22  C   UNL     1      44.700   7.208  11.566  0.00  0.00    +0.000 A 
ATOM     23  S   UNL     1      43.226   6.442  11.182  0.00  0.00    +0.000 S 
ATOM     24  C   UNL     1      43.802   4.936  11.726  0.00  0.00    +0.000 A 
ATOM     25  N   UNL     1      43.028   3.820  11.645  0.00  0.00    +0.000 NA
ATOM     26  C   UNL     1      43.605   2.740  12.054  0.00  0.00    +0.000 A 
ATOM     27  N   UNL     1      44.881   2.676  12.550  0.00  0.00    +0.000 N 
ATOM     28  C   UNL     1      45.670   3.788  12.721  0.00  0.00    +0.000 A 
ATOM     29  O   UNL     1      46.754   3.712  13.291  0.00  0.00    +0.000 OA
ATOM     30  C   UNL     1      45.090   5.022  12.226  0.00  0.00    +0.000 A 
ATOM     31  H   UNL     1      45.263   1.804  12.884  0.00  0.00    +0.000 HD
ENDBRANCH  18  21
ENDBRANCH   1  19
TORSDOF 5
ENDMDL
