MODEL 1
REMARK VINA RESULT:    -6.859      0.000      0.000
REMARK INTER + INTRA:         -11.315
REMARK INTER:                  -9.665
REMARK INTRA:                  -1.650
REMARK UNBOUND:                -1.650
REMARK  Name = 
REMARK  8 active torsions:
REMARK  status: ('A' for Active; 'I' for Inactive)
REMARK    1  A    between atoms: C_1  and  N_2
REMARK    2  A    between atoms: N_2  and  C_3
REMARK    3  A    between atoms: N_2  and  C_24
REMARK    4  A    between atoms: C_3  and  C_4
REMARK    5  A    between atoms: C_7  and  C_8
REMARK    6  A    between atoms: C_8  and  N_9
REMARK    7  A    between atoms: C_10  and  C_12
REMARK    8  A    between atoms: C_24  and  C_25
REMARK                            x       y       z     vdW  Elec       q    Type
REMARK                         _______ _______ _______ _____ _____    ______ ____
ROOT
ATOM      1  C   UNL     1      48.857   7.894  16.252  0.00  0.00    +0.000 A 
ATOM      2  C   UNL     1      49.047   6.735  15.486  0.00  0.00    +0.000 A 
ATOM      3  C   UNL     1      48.632   6.691  14.151  0.00  0.00    +0.000 A 
ATOM      4  C   UNL     1      48.050   7.814  13.549  0.00  0.00    +0.000 A 
ATOM      5  C   UNL     1      47.850   8.967  14.318  0.00  0.00    +0.000 A 
ATOM      6  C   UNL     1      48.247   9.005  15.655  0.00  0.00    +0.000 A 
ENDROOT
BRANCH   1   7
ATOM      7  C   UNL     1      49.298   7.954  17.699  0.00  0.00    +0.000 C 
BRANCH   7   9
ATOM      8  C   UNL     1      48.095   8.648  19.640  0.00  0.00    +0.000 C 
ATOM      9  N   UNL     1      48.271   7.547  18.678  0.00  0.00    +0.000 NA
BRANCH   9  10
ATOM     10  C   UNL     1      48.663   6.304  19.390  0.00  0.00    +0.000 C 
BRANCH  10  11
ATOM     11  C   UNL     1      48.563   5.039  18.550  0.00  0.00    +0.000 A 
ATOM     12  N   UNL     1      47.328   4.779  18.021  0.00  0.00    +0.000 NA
ATOM     13  C   UNL     1      47.209   3.719  17.194  0.00  0.00    +0.000 A 
ATOM     14  C   UNL     1      48.259   2.880  16.867  0.00  0.00    +0.000 A 
ATOM     15  C   UNL     1      49.506   3.137  17.430  0.00  0.00    +0.000 A 
ATOM     16  C   UNL     1      49.670   4.231  18.282  0.00  0.00    +0.000 A 
ATOM     17 CL   UNL     1      51.233   4.509  18.954  0.00  0.00    +0.000 Cl
ENDBRANCH  10  11
ENDBRANCH   9  10
ENDBRANCH   7   9
ENDBRANCH   1   7
BRANCH   4  18
ATOM     18  C   UNL     1      47.597   7.781  12.115  0.00  0.00    +0.000 C 
BRANCH  18  19
ATOM     19  N   UNL     1      46.908   6.550  11.819  0.00  0.00    +0.000 N 
ATOM     20  C   UNL     1      45.557   6.431  12.010  0.00  0.00    +0.000 C 
ATOM     21  O   UNL     1      44.869   7.374  12.394  0.00  0.00    +0.000 OA
ATOM     22  H   UNL     1      47.478   5.717  11.710  0.00  0.00    +0.000 HD
BRANCH  20  23
ATOM     23  C   UNL     1      44.956   5.134  11.673  0.00  0.00    +0.000 A 
ATOM     24  C   UNL     1      44.247   4.439  12.644  0.00  0.00    +0.000 A 
ATOM     25  S   UNL     1      43.577   2.975  12.085  0.00  0.00    +0.000 S 
ATOM     26  C   UNL     1      44.254   3.192  10.540  0.00  0.00    +0.000 A 
ATOM     27  N   UNL     1      44.078   2.262   9.567  0.00  0.00    +0.000 NA
ATOM     28  C   UNL     1      44.667   2.537   8.450  0.00  0.00    +0.000 A 
ATOM     29  N   UNL     1      45.413   3.667   8.223  0.00  0.00    +0.000 N 
ATOM     30  C   UNL     1      45.596   4.646   9.168  0.00  0.00    +0.000 A 
ATOM     31  O   UNL     1      46.238   5.661   8.915  0.00  0.00    +0.000 OA
ATOM     32  C   UNL     1      44.964   4.377  10.444  0.00  0.00    +0.000 A 
ATOM     33  H   UNL     1      45.840   3.828   7.321  0.00  0.00    +0.000 HD
ENDBRANCH  20  23
ENDBRANCH  18  19
ENDBRANCH   4  18
TORSDOF 7
ENDMDL
MODEL 2
REMARK VINA RESULT:    -6.784      1.331      2.154
REMARK INTER + INTRA:         -11.209
REMARK INTER:                  -9.616
REMARK INTRA:                  -1.594
REMARK UNBOUND:                -1.650
REMARK  Name = 
REMARK  8 active torsions:
REMARK  status: ('A' for Active; 'I' for Inactive)
REMARK    1  A    between atoms: C_1  and  N_2
REMARK    2  A    between atoms: N_2  and  C_3
REMARK    3  A    between atoms: N_2  and  C_24
REMARK    4  A    between atoms: C_3  and  C_4
REMARK    5  A    between atoms: C_7  and  C_8
REMARK    6  A    between atoms: C_8  and  N_9
REMARK    7  A    between atoms: C_10  and  C_12
REMARK    8  A    between atoms: C_24  and  C_25
REMARK                            x       y       z     vdW  Elec       q    Type
REMARK                         _______ _______ _______ _____ _____    ______ ____
ROOT
ATOM      1  C   UNL     1      48.792   7.874  16.242  0.00  0.00    +0.000 A 
ATOM      2  C   UNL     1      48.510   9.107  15.637  0.00  0.00    +0.000 A 
ATOM      3  C   UNL     1      48.373   9.202  14.248  0.00  0.00    +0.000 A 
ATOM      4  C   UNL     1      48.485   8.060  13.443  0.00  0.00    +0.000 A 
ATOM      5  C   UNL     1      48.778   6.832  14.046  0.00  0.00    +0.000 A 
ATOM      6  C   UNL     1      48.933   6.740  15.429  0.00  0.00    +0.000 A 
ENDROOT
BRANCH   1   7
ATOM      7  C   UNL     1      48.946   7.758  17.743  0.00  0.00    +0.000 C 
BRANCH   7   9
ATOM      8  C   UNL     1      47.364   8.575  19.333  0.00  0.00    +0.000 C 
ATOM      9  N   UNL     1      47.705   7.430  18.472  0.00  0.00    +0.000 NA
BRANCH   9  10
ATOM     10  C   UNL     1      47.866   6.203  19.293  0.00  0.00    +0.000 C 
BRANCH  10  11
ATOM     11  C   UNL     1      48.068   4.928  18.487  0.00  0.00    +0.000 A 
ATOM     12  N   UNL     1      46.987   4.516  17.756  0.00  0.00    +0.000 NA
ATOM     13  C   UNL     1      47.143   3.442  16.953  0.00  0.00    +0.000 A 
ATOM     14  C   UNL     1      48.326   2.733  16.843  0.00  0.00    +0.000 A 
ATOM     15  C   UNL     1      49.413   3.144  17.610  0.00  0.00    +0.000 A 
ATOM     16  C   UNL     1      49.292   4.257  18.444  0.00  0.00    +0.000 A 
ATOM     17 CL   UNL     1      50.664   4.727  19.375  0.00  0.00    +0.000 Cl
ENDBRANCH  10  11
ENDBRANCH   9  10
ENDBRANCH   7   9
ENDBRANCH   1   7
BRANCH   4  18
ATOM     18  C   UNL     1      48.342   8.147  11.948  0.00  0.00    +0.000 C 
BRANCH  18  19
ATOM     19  N   UNL     1      47.642   6.999  11.428  0.00  0.00    +0.000 N 
ATOM     20  C   UNL     1      46.275   6.985  11.337  0.00  0.00    +0.000 C 
ATOM     21  O   UNL     1      45.593   7.958  11.647  0.00  0.00    +0.000 OA
ATOM     22  H   UNL     1      48.161   6.129  11.372  0.00  0.00    +0.000 HD
BRANCH  20  23
ATOM     23  C   UNL     1      45.665   5.766  10.790  0.00  0.00    +0.000 A 
ATOM     24  C   UNL     1      45.813   5.476   9.440  0.00  0.00    +0.000 A 
ATOM     25  S   UNL     1      45.085   4.008   8.972  0.00  0.00    +0.000 S 
ATOM     26  C   UNL     1      44.503   3.731  10.546  0.00  0.00    +0.000 A 
ATOM     27  N   UNL     1      43.759   2.631  10.829  0.00  0.00    +0.000 NA
ATOM     28  C   UNL     1      43.358   2.557  12.055  0.00  0.00    +0.000 A 
ATOM     29  N   UNL     1      43.642   3.488  13.024  0.00  0.00    +0.000 N 
ATOM     30  C   UNL     1      44.413   4.600  12.790  0.00  0.00    +0.000 A 
ATOM     31  O   UNL     1      44.679   5.390  13.691  0.00  0.00    +0.000 OA
ATOM     32  C   UNL     1      44.876   4.735  11.423  0.00  0.00    +0.000 A 
ATOM     33  H   UNL     1      43.306   3.365  13.969  0.00  0.00    +0.000 HD
ENDBRANCH  20  23
ENDBRANCH  18  19
ENDBRANCH   4  18
TORSDOF 7
ENDMDL
MODEL 3
REMARK VINA RESULT:    -6.626      4.464      8.874
REMARK INTER + INTRA:         -10.987
REMARK INTER:                 -10.468
REMARK INTRA:                  -0.519
REMARK UNBOUND:                -1.650
REMARK  Name = 
REMARK  8 active torsions:
REMARK  status: ('A' for Active; 'I' for Inactive)
REMARK    1  A    between atoms: C_1  and  N_2
REMARK    2  A    between atoms: N_2  and  C_3
REMARK    3  A    between atoms: N_2  and  C_24
REMARK    4  A    between atoms: C_3  and  C_4
REMARK    5  A    between atoms: C_7  and  C_8
REMARK    6  A    between atoms: C_8  and  N_9
REMARK    7  A    between atoms: C_10  and  C_12
REMARK    8  A    between atoms: C_24  and  C_25
REMARK                            x       y       z     vdW  Elec       q    Type
REMARK                         _______ _______ _______ _____ _____    ______ ____
ROOT
ATOM      1  C   UNL     1      47.054   5.317  13.751  0.00  0.00    +0.000 A 
ATOM      2  C   UNL     1      47.885   6.444  13.689  0.00  0.00    +0.000 A 
ATOM      3  C   UNL     1      48.620   6.847  14.810  0.00  0.00    +0.000 A 
ATOM      4  C   UNL     1      48.561   6.112  16.001  0.00  0.00    +0.000 A 
ATOM      5  C   UNL     1      47.721   4.993  16.066  0.00  0.00    +0.000 A 
ATOM      6  C   UNL     1      46.974   4.603  14.955  0.00  0.00    +0.000 A 
ENDROOT
BRANCH   1   7
ATOM      7  C   UNL     1      46.250   4.873  12.548  0.00  0.00    +0.000 C 
BRANCH   7   9
ATOM      8  C   UNL     1      45.138   6.974  12.765  0.00  0.00    +0.000 C 
ATOM      9  N   UNL     1      45.600   5.965  11.797  0.00  0.00    +0.000 NA
BRANCH   9  10
ATOM     10  C   UNL     1      44.456   5.464  10.993  0.00  0.00    +0.000 C 
BRANCH  10  11
ATOM     11  C   UNL     1      44.826   4.413   9.958  0.00  0.00    +0.000 A 
ATOM     12  N   UNL     1      45.595   4.857   8.916  0.00  0.00    +0.000 NA
ATOM     13  C   UNL     1      46.026   3.945   8.019  0.00  0.00    +0.000 A 
ATOM     14  C   UNL     1      45.721   2.597   8.090  0.00  0.00    +0.000 A 
ATOM     15  C   UNL     1      44.918   2.159   9.139  0.00  0.00    +0.000 A 
ATOM     16  C   UNL     1      44.461   3.072  10.091  0.00  0.00    +0.000 A 
ATOM     17 CL   UNL     1      43.469   2.481  11.371  0.00  0.00    +0.000 Cl
ENDBRANCH  10  11
ENDBRANCH   9  10
ENDBRANCH   7   9
ENDBRANCH   1   7
BRANCH   4  18
ATOM     18  C   UNL     1      49.344   6.533  17.215  0.00  0.00    +0.000 C 
BRANCH  18  19
ATOM     19  N   UNL     1      50.267   5.502  17.617  0.00  0.00    +0.000 N 
ATOM     20  C   UNL     1      51.562   5.496  17.169  0.00  0.00    +0.000 C 
ATOM     21  O   UNL     1      52.004   6.387  16.447  0.00  0.00    +0.000 OA
ATOM     22  H   UNL     1      49.871   4.662  18.028  0.00  0.00    +0.000 HD
BRANCH  20  23
ATOM     23  C   UNL     1      52.418   4.401  17.644  0.00  0.00    +0.000 A 
ATOM     24  C   UNL     1      53.690   4.688  18.121  0.00  0.00    +0.000 A 
ATOM     25  S   UNL     1      54.538   3.318  18.674  0.00  0.00    +0.000 S 
ATOM     26  C   UNL     1      53.256   2.284  18.249  0.00  0.00    +0.000 A 
ATOM     27  N   UNL     1      53.350   0.943  18.440  0.00  0.00    +0.000 NA
ATOM     28  C   UNL     1      52.317   0.273  18.049  0.00  0.00    +0.000 A 
ATOM     29  N   UNL     1      51.196   0.830  17.487  0.00  0.00    +0.000 N 
ATOM     30  C   UNL     1      51.045   2.182  17.299  0.00  0.00    +0.000 A 
ATOM     31  O   UNL     1      50.012   2.647  16.829  0.00  0.00    +0.000 OA
ATOM     32  C   UNL     1      52.185   2.978  17.711  0.00  0.00    +0.000 A 
ATOM     33  H   UNL     1      50.416   0.249  17.211  0.00  0.00    +0.000 HD
ENDBRANCH  20  23
ENDBRANCH  18  19
ENDBRANCH   4  18
TORSDOF 7
ENDMDL
MODEL 4
REMARK VINA RESULT:    -6.524      4.481      8.985
REMARK INTER + INTRA:         -10.844
REMARK INTER:                  -9.588
REMARK INTRA:                  -1.255
REMARK UNBOUND:                -1.650
REMARK  Name = 
REMARK  8 active torsions:
REMARK  status: ('A' for Active; 'I' for Inactive)
REMARK    1  A    between atoms: C_1  and  N_2
REMARK    2  A    between atoms: N_2  and  C_3
REMARK    3  A    between atoms: N_2  and  C_24
REMARK    4  A    between atoms: C_3  and  C_4
REMARK    5  A    between atoms: C_7  and  C_8
REMARK    6  A    between atoms: C_8  and  N_9
REMARK    7  A    between atoms: C_10  and  C_12
REMARK    8  A    between atoms: C_24  and  C_25
REMARK                            x       y       z     vdW  Elec       q    Type
REMARK                         _______ _______ _______ _____ _____    ______ ____
ROOT
ATOM      1  C   UNL     1      47.655   6.063  14.594  0.00  0.00    +0.000 A 
ATOM      2  C   UNL     1      48.388   6.318  15.761  0.00  0.00    +0.000 A 
ATOM      3  C   UNL     1      48.534   5.327  16.738  0.00  0.00    +0.000 A 
ATOM      4  C   UNL     1      47.977   4.055  16.549  0.00  0.00    +0.000 A 
ATOM      5  C   UNL     1      47.235   3.805  15.389  0.00  0.00    +0.000 A 
ATOM      6  C   UNL     1      47.074   4.799  14.423  0.00  0.00    +0.000 A 
ENDROOT
BRANCH   1   7
ATOM      7  C   UNL     1      47.486   7.128  13.531  0.00  0.00    +0.000 C 
BRANCH   7   9
ATOM      8  C   UNL     1      48.354   7.252  11.310  0.00  0.00    +0.000 C 
ATOM      9  N   UNL     1      47.331   6.614  12.156  0.00  0.00    +0.000 NA
BRANCH   9  10
ATOM     10  C   UNL     1      45.975   6.899  11.621  0.00  0.00    +0.000 C 
BRANCH  10  11
ATOM     11  C   UNL     1      45.316   5.723  10.916  0.00  0.00    +0.000 A 
ATOM     12  N   UNL     1      45.791   5.445   9.662  0.00  0.00    +0.000 NA
ATOM     13  C   UNL     1      45.303   4.356   9.032  0.00  0.00    +0.000 A 
ATOM     14  C   UNL     1      44.345   3.521   9.577  0.00  0.00    +0.000 A 
ATOM     15  C   UNL     1      43.849   3.825  10.842  0.00  0.00    +0.000 A 
ATOM     16  C   UNL     1      44.337   4.938  11.529  0.00  0.00    +0.000 A 
ATOM     17 CL   UNL     1      43.692   5.274  13.091  0.00  0.00    +0.000 Cl
ENDBRANCH  10  11
ENDBRANCH   9  10
ENDBRANCH   7   9
ENDBRANCH   1   7
BRANCH   4  18
ATOM     18  C   UNL     1      48.125   2.980  17.591  0.00  0.00    +0.000 C 
BRANCH  18  19
ATOM     19  N   UNL     1      49.511   2.777  17.931  0.00  0.00    +0.000 N 
ATOM     20  C   UNL     1      50.345   2.068  17.108  0.00  0.00    +0.000 C 
ATOM     21  O   UNL     1      49.966   1.617  16.030  0.00  0.00    +0.000 OA
ATOM     22  H   UNL     1      49.780   2.952  18.894  0.00  0.00    +0.000 HD
BRANCH  20  23
ATOM     23  C   UNL     1      51.739   1.925  17.549  0.00  0.00    +0.000 A 
ATOM     24  C   UNL     1      52.264   0.654  17.748  0.00  0.00    +0.000 A 
ATOM     25  S   UNL     1      53.902   0.656  18.216  0.00  0.00    +0.000 S 
ATOM     26  C   UNL     1      53.955   2.357  18.220  0.00  0.00    +0.000 A 
ATOM     27  N   UNL     1      55.091   3.016  18.565  0.00  0.00    +0.000 NA
ATOM     28  C   UNL     1      54.987   4.304  18.552  0.00  0.00    +0.000 A 
ATOM     29  N   UNL     1      53.845   4.988  18.217  0.00  0.00    +0.000 N 
ATOM     30  C   UNL     1      52.683   4.364  17.836  0.00  0.00    +0.000 A 
ATOM     31  O   UNL     1      51.693   5.011  17.506  0.00  0.00    +0.000 OA
ATOM     32  C   UNL     1      52.745   2.916  17.847  0.00  0.00    +0.000 A 
ATOM     33  H   UNL     1      53.833   5.999  18.217  0.00  0.00    +0.000 HD
ENDBRANCH  20  23
ENDBRANCH  18  19
ENDBRANCH   4  18
TORSDOF 7
ENDMDL
MODEL 5
REMARK VINA RESULT:    -6.274      1.554      1.953
REMARK INTER + INTRA:         -10.491
REMARK INTER:                  -9.340
REMARK INTRA:                  -1.150
REMARK UNBOUND:                -1.650
REMARK  Name = 
REMARK  8 active torsions:
REMARK  status: ('A' for Active; 'I' for Inactive)
REMARK    1  A    between atoms: C_1  and  N_2
REMARK    2  A    between atoms: N_2  and  C_3
REMARK    3  A    between atoms: N_2  and  C_24
REMARK    4  A    between atoms: C_3  and  C_4
REMARK    5  A    between atoms: C_7  and  C_8
REMARK    6  A    between atoms: C_8  and  N_9
REMARK    7  A    between atoms: C_10  and  C_12
REMARK    8  A    between atoms: C_24  and  C_25
REMARK                            x       y       z     vdW  Elec       q    Type
REMARK                         _______ _______ _______ _____ _____    ______ ____
ROOT
ATOM      1  C   UNL     1      50.113   7.093  15.929  0.00  0.00    +0.000 A 
ATOM      2  C   UNL     1      50.626   7.847  14.864  0.00  0.00    +0.000 A 
ATOM      3  C   UNL     1      49.903   7.975  13.673  0.00  0.00    +0.000 A 
ATOM      4  C   UNL     1      48.642   7.380  13.538  0.00  0.00    +0.000 A 
ATOM      5  C   UNL     1      48.136   6.618  14.598  0.00  0.00    +0.000 A 
ATOM      6  C   UNL     1      48.865   6.474  15.779  0.00  0.00    +0.000 A 
ENDROOT
BRANCH   1   7
ATOM      7  C   UNL     1      50.887   6.942  17.222  0.00  0.00    +0.000 C 
BRANCH   7   9
ATOM      8  C   UNL     1      49.978   7.814  19.250  0.00  0.00    +0.000 C 
ATOM      9  N   UNL     1      50.065   6.613  18.403  0.00  0.00    +0.000 NA
BRANCH   9  10
ATOM     10  C   UNL     1      50.650   5.485  19.172  0.00  0.00    +0.000 C 
BRANCH  10  11
ATOM     11  C   UNL     1      50.735   4.175  18.404  0.00  0.00    +0.000 A 
ATOM     12  N   UNL     1      51.996   3.668  18.240  0.00  0.00    +0.000 NA
ATOM     13  C   UNL     1      52.117   2.463  17.644  0.00  0.00    +0.000 A 
ATOM     14  C   UNL     1      51.042   1.725  17.182  0.00  0.00    +0.000 A 
ATOM     15  C   UNL     1      49.765   2.259  17.330  0.00  0.00    +0.000 A 
ATOM     16  C   UNL     1      49.600   3.499  17.950  0.00  0.00    +0.000 A 
ATOM     17 CL   UNL     1      48.000   4.120  18.110  0.00  0.00    +0.000 Cl
ENDBRANCH  10  11
ENDBRANCH   9  10
ENDBRANCH   7   9
ENDBRANCH   1   7
BRANCH   4  18
ATOM     18  C   UNL     1      47.854   7.509  12.263  0.00  0.00    +0.000 C 
BRANCH  18  19
ATOM     19  N   UNL     1      47.098   6.309  12.000  0.00  0.00    +0.000 N 
ATOM     20  C   UNL     1      45.768   6.367  11.676  0.00  0.00    +0.000 C 
ATOM     21  O   UNL     1      45.176   7.436  11.551  0.00  0.00    +0.000 OA
ATOM     22  H   UNL     1      47.507   5.431  12.302  0.00  0.00    +0.000 HD
BRANCH  20  23
ATOM     23  C   UNL     1      45.096   5.085  11.425  0.00  0.00    +0.000 A 
ATOM     24  C   UNL     1      44.391   4.472  12.453  0.00  0.00    +0.000 A 
ATOM     25  S   UNL     1      43.634   3.018  11.990  0.00  0.00    +0.000 S 
ATOM     26  C   UNL     1      44.263   3.128  10.413  0.00  0.00    +0.000 A 
ATOM     27  N   UNL     1      44.008   2.163   9.493  0.00  0.00    +0.000 NA
ATOM     28  C   UNL     1      44.568   2.356   8.345  0.00  0.00    +0.000 A 
ATOM     29  N   UNL     1      45.357   3.436   8.037  0.00  0.00    +0.000 N 
ATOM     30  C   UNL     1      45.620   4.450   8.926  0.00  0.00    +0.000 A 
ATOM     31  O   UNL     1      46.298   5.419   8.601  0.00  0.00    +0.000 OA
ATOM     32  C   UNL     1      45.023   4.272  10.235  0.00  0.00    +0.000 A 
ATOM     33  H   UNL     1      45.758   3.534   7.114  0.00  0.00    +0.000 HD
ENDBRANCH  20  23
ENDBRANCH  18  19
ENDBRANCH   4  18
TORSDOF 7
ENDMDL
MODEL 6
REMARK VINA RESULT:    -6.248      2.219      2.699
REMARK INTER + INTRA:         -10.454
REMARK INTER:                  -8.825
REMARK INTRA:                  -1.629
REMARK UNBOUND:                -1.650
REMARK  Name = 
REMARK  8 active torsions:
REMARK  status: ('A' for Active; 'I' for Inactive)
REMARK    1  A    between atoms: C_1  and  N_2
REMARK    2  A    between atoms: N_2  and  C_3
REMARK    3  A    between atoms: N_2  and  C_24
REMARK    4  A    between atoms: C_3  and  C_4
REMARK    5  A    between atoms: C_7  and  C_8
REMARK    6  A    between atoms: C_8  and  N_9
REMARK    7  A    between atoms: C_10  and  C_12
REMARK    8  A    between atoms: C_24  and  C_25
REMARK                            x       y       z     vdW  Elec       q    Type
REMARK                         _______ _______ _______ _____ _____    ______ ____
ROOT
ATOM      1  C   UNL     1      49.579   7.624  17.728  0.00  0.00    +0.000 A 
ATOM      2  C   UNL     1      49.941   7.030  16.511  0.00  0.00    +0.000 A 
ATOM      3  C   UNL     1      49.396   7.491  15.307  0.00  0.00    +0.000 A 
ATOM      4  C   UNL     1      48.506   8.573  15.297  0.00  0.00    +0.000 A 
ATOM      5  C   UNL     1      48.136   9.157  16.515  0.00  0.00    +0.000 A 
ATOM      6  C   UNL     1      48.665   8.686  17.716  0.00  0.00    +0.000 A 
ENDROOT
BRANCH   1   7
ATOM      7  C   UNL     1      50.158   7.132  19.038  0.00  0.00    +0.000 C 
BRANCH   7   9
ATOM      8  C   UNL     1      49.358   6.938  21.279  0.00  0.00    +0.000 C 
ATOM      9  N   UNL     1      49.204   6.419  19.910  0.00  0.00    +0.000 NA
BRANCH   9  10
ATOM     10  C   UNL     1      49.442   4.953  19.888  0.00  0.00    +0.000 C 
BRANCH  10  11
ATOM     11  C   UNL     1      48.934   4.250  18.638  0.00  0.00    +0.000 A 
ATOM     12  N   UNL     1      49.782   3.321  18.098  0.00  0.00    +0.000 NA
ATOM     13  C   UNL     1      49.341   2.606  17.042  0.00  0.00    +0.000 A 
ATOM     14  C   UNL     1      48.092   2.772  16.472  0.00  0.00    +0.000 A 
ATOM     15  C   UNL     1      47.245   3.737  17.011  0.00  0.00    +0.000 A 
ATOM     16  C   UNL     1      47.663   4.489  18.110  0.00  0.00    +0.000 A 
ATOM     17 CL   UNL     1      46.581   5.672  18.743  0.00  0.00    +0.000 Cl
ENDBRANCH  10  11
ENDBRANCH   9  10
ENDBRANCH   7   9
ENDBRANCH   1   7
BRANCH   4  18
ATOM     18  C   UNL     1      47.911   9.079  14.011  0.00  0.00    +0.000 C 
BRANCH  18  19
ATOM     19  N   UNL     1      46.785   8.273  13.611  0.00  0.00    +0.000 N 
ATOM     20  C   UNL     1      46.864   7.433  12.531  0.00  0.00    +0.000 C 
ATOM     21  O   UNL     1      47.903   7.294  11.890  0.00  0.00    +0.000 OA
ATOM     22  H   UNL     1      45.878   8.528  13.987  0.00  0.00    +0.000 HD
BRANCH  20  23
ATOM     23  C   UNL     1      45.659   6.655  12.213  0.00  0.00    +0.000 A 
ATOM     24  C   UNL     1      44.552   7.302  11.680  0.00  0.00    +0.000 A 
ATOM     25  S   UNL     1      43.254   6.257  11.326  0.00  0.00    +0.000 S 
ATOM     26  C   UNL     1      44.105   4.909  11.921  0.00  0.00    +0.000 A 
ATOM     27  N   UNL     1      43.537   3.676  11.931  0.00  0.00    +0.000 NA
ATOM     28  C   UNL     1      44.281   2.748  12.434  0.00  0.00    +0.000 A 
ATOM     29  N   UNL     1      45.548   2.947  12.923  0.00  0.00    +0.000 N 
ATOM     30  C   UNL     1      46.173   4.170  12.907  0.00  0.00    +0.000 A 
ATOM     31  O   UNL     1      47.323   4.301  13.317  0.00  0.00    +0.000 OA
ATOM     32  C   UNL     1      45.372   5.248  12.364  0.00  0.00    +0.000 A 
ATOM     33  H   UNL     1      46.084   2.174  13.294  0.00  0.00    +0.000 HD
ENDBRANCH  20  23
ENDBRANCH  18  19
ENDBRANCH   4  18
TORSDOF 7
ENDMDL
MODEL 7
REMARK VINA RESULT:    -6.057      2.469      3.414
REMARK INTER + INTRA:         -10.186
REMARK INTER:                  -8.426
REMARK INTRA:                  -1.760
REMARK UNBOUND:                -1.650
REMARK  Name = 
REMARK  8 active torsions:
REMARK  status: ('A' for Active; 'I' for Inactive)
REMARK    1  A    between atoms: C_1  and  N_2
REMARK    2  A    between atoms: N_2  and  C_3
REMARK    3  A    between atoms: N_2  and  C_24
REMARK    4  A    between atoms: C_3  and  C_4
REMARK    5  A    between atoms: C_7  and  C_8
REMARK    6  A    between atoms: C_8  and  N_9
REMARK    7  A    between atoms: C_10  and  C_12
REMARK    8  A    between atoms: C_24  and  C_25
REMARK                            x       y       z     vdW  Elec       q    Type
REMARK                         _______ _______ _______ _____ _____    ______ ____
ROOT
ATOM      1  C   UNL     1      50.915   7.359  17.922  0.00  0.00    +0.000 A 
ATOM      2  C   UNL     1      51.139   7.374  16.539  0.00  0.00    +0.000 A 
ATOM      3  C   UNL     1      50.267   8.060  15.686  0.00  0.00    +0.000 A 
ATOM      4  C   UNL     1      49.176   8.770  16.205  0.00  0.00    +0.000 A 
ATOM      5  C   UNL     1      48.946   8.744  17.586  0.00  0.00    +0.000 A 
ATOM      6  C   UNL     1      49.805   8.045  18.434  0.00  0.00    +0.000 A 
ENDROOT
BRANCH   1   7
ATOM      7  C   UNL     1      51.848   6.617  18.856  0.00  0.00    +0.000 C 
BRANCH   7   9
ATOM      8  C   UNL     1      52.006   5.237  20.797  0.00  0.00    +0.000 C 
ATOM      9  N   UNL     1      51.240   5.473  19.562  0.00  0.00    +0.000 NA
BRANCH   9  10
ATOM     10  C   UNL     1      51.242   4.251  18.716  0.00  0.00    +0.000 C 
BRANCH  10  11
ATOM     11  C   UNL     1      49.873   3.849  18.187  0.00  0.00    +0.000 A 
ATOM     12  N   UNL     1      48.843   4.687  18.519  0.00  0.00    +0.000 NA
ATOM     13  C   UNL     1      47.626   4.424  17.999  0.00  0.00    +0.000 A 
ATOM     14  C   UNL     1      47.365   3.352  17.165  0.00  0.00    +0.000 A 
ATOM     15  C   UNL     1      48.412   2.491  16.853  0.00  0.00    +0.000 A 
ATOM     16  C   UNL     1      49.688   2.736  17.365  0.00  0.00    +0.000 A 
ATOM     17 CL   UNL     1      50.953   1.641  16.951  0.00  0.00    +0.000 Cl
ENDBRANCH  10  11
ENDBRANCH   9  10
ENDBRANCH   7   9
ENDBRANCH   1   7
BRANCH   4  18
ATOM     18  C   UNL     1      48.229   9.511  15.301  0.00  0.00    +0.000 C 
BRANCH  18  19
ATOM     19  N   UNL     1      47.303   8.605  14.669  0.00  0.00    +0.000 N 
ATOM     20  C   UNL     1      47.370   8.349  13.324  0.00  0.00    +0.000 C 
ATOM     21  O   UNL     1      48.242   8.838  12.612  0.00  0.00    +0.000 OA
ATOM     22  H   UNL     1      46.464   8.366  15.187  0.00  0.00    +0.000 HD
BRANCH  20  23
ATOM     23  C   UNL     1      46.379   7.408  12.784  0.00  0.00    +0.000 A 
ATOM     24  C   UNL     1      45.331   7.890  12.011  0.00  0.00    +0.000 A 
ATOM     25  S   UNL     1      44.296   6.670  11.425  0.00  0.00    +0.000 S 
ATOM     26  C   UNL     1      45.181   5.458  12.226  0.00  0.00    +0.000 A 
ATOM     27  N   UNL     1      44.800   4.157  12.154  0.00  0.00    +0.000 NA
ATOM     28  C   UNL     1      45.543   3.344  12.830  0.00  0.00    +0.000 A 
ATOM     29  N   UNL     1      46.638   3.721  13.567  0.00  0.00    +0.000 N 
ATOM     30  C   UNL     1      47.075   5.021  13.646  0.00  0.00    +0.000 A 
ATOM     31  O   UNL     1      48.082   5.315  14.284  0.00  0.00    +0.000 OA
ATOM     32  C   UNL     1      46.266   5.974  12.914  0.00  0.00    +0.000 A 
ATOM     33  H   UNL     1      47.184   3.033  14.066  0.00  0.00    +0.000 HD
ENDBRANCH  20  23
ENDBRANCH  18  19
ENDBRANCH   4  18
TORSDOF 7
ENDMDL
MODEL 8
REMARK VINA RESULT:    -5.432      5.986      8.220
REMARK INTER + INTRA:          -9.305
REMARK INTER:                  -8.448
REMARK INTRA:                  -0.857
REMARK UNBOUND:                -1.650
REMARK  Name = 
REMARK  8 active torsions:
REMARK  status: ('A' for Active; 'I' for Inactive)
REMARK    1  A    between atoms: C_1  and  N_2
REMARK    2  A    between atoms: N_2  and  C_3
REMARK    3  A    between atoms: N_2  and  C_24
REMARK    4  A    between atoms: C_3  and  C_4
REMARK    5  A    between atoms: C_7  and  C_8
REMARK    6  A    between atoms: C_8  and  N_9
REMARK    7  A    between atoms: C_10  and  C_12
REMARK    8  A    between atoms: C_24  and  C_25
REMARK                            x       y       z     vdW  Elec       q    Type
REMARK                         _______ _______ _______ _____ _____    ______ ____
ROOT
ATOM      1  C   UNL     1      47.965   8.606  12.377  0.00  0.00    +0.000 A 
ATOM      2  C   UNL     1      48.785   7.631  11.792  0.00  0.00    +0.000 A 
ATOM      3  C   UNL     1      50.066   7.961  11.337  0.00  0.00    +0.000 A 
ATOM      4  C   UNL     1      50.561   9.263  11.488  0.00  0.00    +0.000 A 
ATOM      5  C   UNL     1      49.738  10.239  12.062  0.00  0.00    +0.000 A 
ATOM      6  C   UNL     1      48.453   9.915  12.499  0.00  0.00    +0.000 A 
ENDROOT
BRANCH   1   7
ATOM      7  C   UNL     1      46.575   8.264  12.870  0.00  0.00    +0.000 C 
BRANCH   7   9
ATOM      8  C   UNL     1      44.656   8.619  11.495  0.00  0.00    +0.000 C 
ATOM      9  N   UNL     1      45.694   7.641  11.863  0.00  0.00    +0.000 NA
BRANCH   9  10
ATOM     10  C   UNL     1      45.067   6.400  12.384  0.00  0.00    +0.000 C 
BRANCH  10  11
ATOM     11  C   UNL     1      44.840   5.321  11.336  0.00  0.00    +0.000 A 
ATOM     12  N   UNL     1      45.456   5.529  10.132  0.00  0.00    +0.000 NA
ATOM     13  C   UNL     1      45.360   4.558   9.200  0.00  0.00    +0.000 A 
ATOM     14  C   UNL     1      44.666   3.377   9.393  0.00  0.00    +0.000 A 
ATOM     15  C   UNL     1      44.021   3.184  10.611  0.00  0.00    +0.000 A 
ATOM     16  C   UNL     1      44.105   4.163  11.603  0.00  0.00    +0.000 A 
ATOM     17 CL   UNL     1      43.290   3.880  13.095  0.00  0.00    +0.000 Cl
ENDBRANCH  10  11
ENDBRANCH   9  10
ENDBRANCH   7   9
ENDBRANCH   1   7
BRANCH   4  18
ATOM     18  C   UNL     1      51.936   9.633  11.002  0.00  0.00    +0.000 C 
BRANCH  18  19
ATOM     19  N   UNL     1      52.207   9.038   9.717  0.00  0.00    +0.000 N 
ATOM     20  C   UNL     1      53.466   8.608   9.388  0.00  0.00    +0.000 C 
ATOM     21  O   UNL     1      54.401   8.667  10.181  0.00  0.00    +0.000 OA
ATOM     22  H   UNL     1      51.514   9.176   8.989  0.00  0.00    +0.000 HD
BRANCH  20  23
ATOM     23  C   UNL     1      53.630   8.015   8.054  0.00  0.00    +0.000 A 
ATOM     24  C   UNL     1      53.666   8.843   6.939  0.00  0.00    +0.000 A 
ATOM     25  S   UNL     1      53.905   8.007   5.474  0.00  0.00    +0.000 S 
ATOM     26  C   UNL     1      53.916   6.504   6.270  0.00  0.00    +0.000 A 
ATOM     27  N   UNL     1      54.060   5.348   5.572  0.00  0.00    +0.000 NA
ATOM     28  C   UNL     1      54.024   4.277   6.295  0.00  0.00    +0.000 A 
ATOM     29  N   UNL     1      53.862   4.266   7.658  0.00  0.00    +0.000 N 
ATOM     30  C   UNL     1      53.741   5.410   8.408  0.00  0.00    +0.000 A 
ATOM     31  O   UNL     1      53.637   5.361   9.630  0.00  0.00    +0.000 OA
ATOM     32  C   UNL     1      53.762   6.638   7.639  0.00  0.00    +0.000 A 
ATOM     33  H   UNL     1      53.854   3.393   8.167  0.00  0.00    +0.000 HD
ENDBRANCH  20  23
ENDBRANCH  18  19
ENDBRANCH   4  18
TORSDOF 7
ENDMDL
MODEL 9
REMARK VINA RESULT:    -5.409      2.321      2.977
REMARK INTER + INTRA:          -9.273
REMARK INTER:                  -7.673
REMARK INTRA:                  -1.600
REMARK UNBOUND:                -1.650
REMARK  Name = 
REMARK  8 active torsions:
REMARK  status: ('A' for Active; 'I' for Inactive)
REMARK    1  A    between atoms: C_1  and  N_2
REMARK    2  A    between atoms: N_2  and  C_3
REMARK    3  A    between atoms: N_2  and  C_24
REMARK    4  A    between atoms: C_3  and  C_4
REMARK    5  A    between atoms: C_7  and  C_8
REMARK    6  A    between atoms: C_8  and  N_9
REMARK    7  A    between atoms: C_10  and  C_12
REMARK    8  A    between atoms: C_24  and  C_25
REMARK                            x       y       z     vdW  Elec       q    Type
REMARK                         _______ _______ _______ _____ _____    ______ ____
ROOT
ATOM      1  C   UNL     1      50.064   8.682  17.960  0.00  0.00    +0.000 A 
ATOM      2  C   UNL     1      50.862   8.956  16.840  0.00  0.00    +0.000 A 
ATOM      3  C   UNL     1      50.279   9.137  15.581  0.00  0.00    +0.000 A 
ATOM      4  C   UNL     1      48.888   9.080  15.425  0.00  0.00    +0.000 A 
ATOM      5  C   UNL     1      48.093   8.794  16.542  0.00  0.00    +0.000 A 
ATOM      6  C   UNL     1      48.675   8.595  17.794  0.00  0.00    +0.000 A 
ENDROOT
BRANCH   1   7
ATOM      7  C   UNL     1      50.681   8.480  19.327  0.00  0.00    +0.000 C 
BRANCH   7   9
ATOM      8  C   UNL     1      49.869   8.529  21.572  0.00  0.00    +0.000 C 
ATOM      9  N   UNL     1      49.817   7.785  20.302  0.00  0.00    +0.000 NA
BRANCH   9  10
ATOM     10  C   UNL     1      50.257   6.382  20.512  0.00  0.00    +0.000 C 
BRANCH  10  11
ATOM     11  C   UNL     1      49.842   5.420  19.410  0.00  0.00    +0.000 A 
ATOM     12  N   UNL     1      50.868   4.794  18.756  0.00  0.00    +0.000 NA
ATOM     13  C   UNL     1      50.550   3.863  17.832  0.00  0.00    +0.000 A 
ATOM     14  C   UNL     1      49.250   3.521  17.505  0.00  0.00    +0.000 A 
ATOM     15  C   UNL     1      48.212   4.180  18.157  0.00  0.00    +0.000 A 
ATOM     16  C   UNL     1      48.503   5.143  19.126  0.00  0.00    +0.000 A 
ATOM     17 CL   UNL     1      47.184   5.932  19.906  0.00  0.00    +0.000 Cl
ENDBRANCH  10  11
ENDBRANCH   9  10
ENDBRANCH   7   9
ENDBRANCH   1   7
BRANCH   4  18
ATOM     18  C   UNL     1      48.248   9.271  14.077  0.00  0.00    +0.000 C 
BRANCH  18  19
ATOM     19  N   UNL     1      47.295   8.225  13.805  0.00  0.00    +0.000 N 
ATOM     20  C   UNL     1      47.666   7.084  13.144  0.00  0.00    +0.000 C 
ATOM     21  O   UNL     1      48.827   6.881  12.798  0.00  0.00    +0.000 OA
ATOM     22  H   UNL     1      46.311   8.463  13.890  0.00  0.00    +0.000 HD
BRANCH  20  23
ATOM     23  C   UNL     1      46.615   6.081  12.922  0.00  0.00    +0.000 A 
ATOM     24  C   UNL     1      46.837   4.765  13.306  0.00  0.00    +0.000 A 
ATOM     25  S   UNL     1      45.508   3.737  13.021  0.00  0.00    +0.000 S 
ATOM     26  C   UNL     1      44.607   5.002  12.329  0.00  0.00    +0.000 A 
ATOM     27  N   UNL     1      43.358   4.782  11.844  0.00  0.00    +0.000 NA
ATOM     28  C   UNL     1      42.796   5.821  11.320  0.00  0.00    +0.000 A 
ATOM     29  N   UNL     1      43.376   7.063  11.246  0.00  0.00    +0.000 N 
ATOM     30  C   UNL     1      44.625   7.338  11.747  0.00  0.00    +0.000 A 
ATOM     31  O   UNL     1      45.094   8.471  11.697  0.00  0.00    +0.000 OA
ATOM     32  C   UNL     1      45.302   6.199  12.333  0.00  0.00    +0.000 A 
ATOM     33  H   UNL     1      42.877   7.839  10.832  0.00  0.00    +0.000 HD
ENDBRANCH  20  23
ENDBRANCH  18  19
ENDBRANCH   4  18
TORSDOF 7
ENDMDL
