MODEL 1
REMARK VINA RESULT:    -8.006      0.000      0.000
REMARK INTER + INTRA:         -12.593
REMARK INTER:                 -11.282
REMARK INTRA:                  -1.311
REMARK UNBOUND:                -1.311
REMARK  Name = 
REMARK  8 active torsions:
REMARK  status: ('A' for Active; 'I' for Inactive)
REMARK    1  A    between atoms: C_1  and  N_2
REMARK    2  A    between atoms: C_4  and  C_5
REMARK    3  A    between atoms: N_7  and  C_8
REMARK    4  A    between atoms: C_8  and  C_9
REMARK    5  A    between atoms: C_12  and  C_13
REMARK    6  A    between atoms: C_13  and  O_14
REMARK    7  A    between atoms: O_14  and  C_15
REMARK    8  A    between atoms: C_15  and  C_16
REMARK                            x       y       z     vdW  Elec       q    Type
REMARK                         _______ _______ _______ _____ _____    ______ ____
ROOT
ATOM      1  C   UNL     1      46.947   7.798  13.019  0.00  0.00    +0.000 C 
ENDROOT
BRANCH   1   2
ATOM      2  C   UNL     1      46.080   6.706  12.453  0.00  0.00    +0.000 A 
ATOM      3  C   UNL     1      46.123   6.396  11.088  0.00  0.00    +0.000 A 
ATOM      4  C   UNL     1      45.332   5.368  10.568  0.00  0.00    +0.000 A 
ATOM      5  C   UNL     1      44.473   4.637  11.399  0.00  0.00    +0.000 A 
ATOM      6  C   UNL     1      44.420   4.958  12.762  0.00  0.00    +0.000 A 
ATOM      7  C   UNL     1      45.212   5.985  13.283  0.00  0.00    +0.000 A 
BRANCH   5   8
ATOM      8  C   UNL     1      43.613   3.536  10.833  0.00  0.00    +0.000 C 
BRANCH   8   9
ATOM      9  O   UNL     1      44.008   3.280   9.490  0.00  0.00    +0.000 OA
BRANCH   9  10
ATOM     10  C   UNL     1      44.657   2.011   9.372  0.00  0.00    +0.000 C 
BRANCH  10  11
ATOM     11  C   UNL     1      45.726   2.033   8.303  0.00  0.00    +0.000 A 
ATOM     12  C   UNL     1      46.020   3.203   7.606  0.00  0.00    +0.000 A 
ATOM     13  C   UNL     1      47.030   3.186   6.648  0.00  0.00    +0.000 A 
ATOM     14  C   UNL     1      47.729   2.007   6.419  0.00  0.00    +0.000 A 
ATOM     15  C   UNL     1      47.390   0.892   7.165  0.00  0.00    +0.000 A 
ATOM     16  N   UNL     1      46.414   0.879   8.101  0.00  0.00    +0.000 NA
ENDBRANCH  10  11
ENDBRANCH   9  10
ENDBRANCH   8   9
ENDBRANCH   5   8
ENDBRANCH   1   2
BRANCH   1  19
ATOM     17  C   UNL     1      48.582   6.932  14.613  0.00  0.00    +0.000 C 
ATOM     18  O   UNL     1      49.385   6.713  13.714  0.00  0.00    +0.000 OA
ATOM     19  N   UNL     1      47.356   7.514  14.374  0.00  0.00    +0.000 N 
ATOM     20  H   UNL     1      46.676   7.588  15.116  0.00  0.00    +0.000 HD
BRANCH  17  24
ATOM     21  C   UNL     1      50.257   7.325  19.295  0.00  0.00    +0.000 C 
ATOM     22  N   UNL     1      49.624   6.800  18.107  0.00  0.00    +0.000 N 
ATOM     23  C   UNL     1      49.481   7.459  16.917  0.00  0.00    +0.000 A 
ATOM     24  C   UNL     1      48.853   6.609  16.011  0.00  0.00    +0.000 A 
ATOM     25  C   UNL     1      48.592   5.379  16.718  0.00  0.00    +0.000 A 
ATOM     26  C   UNL     1      48.005   4.134  16.502  0.00  0.00    +0.000 A 
ATOM     27 CL   UNL     1      47.246   3.754  15.036  0.00  0.00    +0.000 Cl
ATOM     28  N   UNL     1      47.936   3.194  17.462  0.00  0.00    +0.000 NA
ATOM     29  C   UNL     1      48.468   3.500  18.651  0.00  0.00    +0.000 A 
ATOM     30  N   UNL     1      49.058   4.649  19.011  0.00  0.00    +0.000 NA
ATOM     31  C   UNL     1      49.087   5.546  18.010  0.00  0.00    +0.000 A 
ENDBRANCH  17  24
ENDBRANCH   1  19
TORSDOF 7
ENDMDL
MODEL 2
REMARK VINA RESULT:    -7.640      1.948      2.743
REMARK INTER + INTRA:         -12.077
REMARK INTER:                 -11.132
REMARK INTRA:                  -0.945
REMARK UNBOUND:                -1.311
REMARK  Name = 
REMARK  8 active torsions:
REMARK  status: ('A' for Active; 'I' for Inactive)
REMARK    1  A    between atoms: C_1  and  N_2
REMARK    2  A    between atoms: C_4  and  C_5
REMARK    3  A    between atoms: N_7  and  C_8
REMARK    4  A    between atoms: C_8  and  C_9
REMARK    5  A    between atoms: C_12  and  C_13
REMARK    6  A    between atoms: C_13  and  O_14
REMARK    7  A    between atoms: O_14  and  C_15
REMARK    8  A    between atoms: C_15  and  C_16
REMARK                            x       y       z     vdW  Elec       q    Type
REMARK                         _______ _______ _______ _____ _____    ______ ____
ROOT
ATOM      1  C   UNL     1      48.261   6.497  13.785  0.00  0.00    +0.000 C 
ENDROOT
BRANCH   1   2
ATOM      2  C   UNL     1      47.079   5.889  13.078  0.00  0.00    +0.000 A 
ATOM      3  C   UNL     1      46.515   4.690  13.532  0.00  0.00    +0.000 A 
ATOM      4  C   UNL     1      45.405   4.139  12.887  0.00  0.00    +0.000 A 
ATOM      5  C   UNL     1      44.843   4.768  11.769  0.00  0.00    +0.000 A 
ATOM      6  C   UNL     1      45.416   5.959  11.307  0.00  0.00    +0.000 A 
ATOM      7  C   UNL     1      46.526   6.512  11.952  0.00  0.00    +0.000 A 
BRANCH   5   8
ATOM      8  C   UNL     1      43.653   4.164  11.068  0.00  0.00    +0.000 C 
BRANCH   8   9
ATOM      9  O   UNL     1      43.997   3.893   9.713  0.00  0.00    +0.000 OA
BRANCH   9  10
ATOM     10  C   UNL     1      44.459   2.549   9.554  0.00  0.00    +0.000 C 
BRANCH  10  11
ATOM     11  C   UNL     1      45.508   2.449   8.469  0.00  0.00    +0.000 A 
ATOM     12  C   UNL     1      45.818   3.546   7.668  0.00  0.00    +0.000 A 
ATOM     13  C   UNL     1      46.810   3.419   6.699  0.00  0.00    +0.000 A 
ATOM     14  C   UNL     1      47.475   2.207   6.563  0.00  0.00    +0.000 A 
ATOM     15  C   UNL     1      47.123   1.170   7.410  0.00  0.00    +0.000 A 
ATOM     16  N   UNL     1      46.165   1.264   8.359  0.00  0.00    +0.000 NA
ENDBRANCH  10  11
ENDBRANCH   9  10
ENDBRANCH   8   9
ENDBRANCH   5   8
ENDBRANCH   1   2
BRANCH   1  19
ATOM     17  C   UNL     1      49.207   6.482  16.036  0.00  0.00    +0.000 C 
ATOM     18  O   UNL     1      50.344   6.571  15.590  0.00  0.00    +0.000 OA
ATOM     19  N   UNL     1      48.097   6.484  15.218  0.00  0.00    +0.000 N 
ATOM     20  H   UNL     1      47.182   6.306  15.605  0.00  0.00    +0.000 HD
BRANCH  17  24
ATOM     21  C   UNL     1      48.699   4.540  20.602  0.00  0.00    +0.000 C 
ATOM     22  N   UNL     1      48.691   5.482  19.506  0.00  0.00    +0.000 N 
ATOM     23  C   UNL     1      49.128   5.235  18.234  0.00  0.00    +0.000 A 
ATOM     24  C   UNL     1      48.924   6.377  17.465  0.00  0.00    +0.000 A 
ATOM     25  C   UNL     1      48.348   7.365  18.345  0.00  0.00    +0.000 A 
ATOM     26  C   UNL     1      47.913   8.688  18.315  0.00  0.00    +0.000 A 
ATOM     27 CL   UNL     1      48.069   9.642  16.924  0.00  0.00    +0.000 Cl
ATOM     28  N   UNL     1      47.418   9.308  19.402  0.00  0.00    +0.000 NA
ATOM     29  C   UNL     1      47.351   8.593  20.531  0.00  0.00    +0.000 A 
ATOM     30  N   UNL     1      47.733   7.321  20.717  0.00  0.00    +0.000 NA
ATOM     31  C   UNL     1      48.224   6.764  19.595  0.00  0.00    +0.000 A 
ENDBRANCH  17  24
ENDBRANCH   1  19
TORSDOF 7
ENDMDL
MODEL 3
REMARK VINA RESULT:    -7.534      1.510      1.883
REMARK INTER + INTRA:         -11.928
REMARK INTER:                 -10.947
REMARK INTRA:                  -0.982
REMARK UNBOUND:                -1.311
REMARK  Name = 
REMARK  8 active torsions:
REMARK  status: ('A' for Active; 'I' for Inactive)
REMARK    1  A    between atoms: C_1  and  N_2
REMARK    2  A    between atoms: C_4  and  C_5
REMARK    3  A    between atoms: N_7  and  C_8
REMARK    4  A    between atoms: C_8  and  C_9
REMARK    5  A    between atoms: C_12  and  C_13
REMARK    6  A    between atoms: C_13  and  O_14
REMARK    7  A    between atoms: O_14  and  C_15
REMARK    8  A    between atoms: C_15  and  C_16
REMARK                            x       y       z     vdW  Elec       q    Type
REMARK                         _______ _______ _______ _____ _____    ______ ____
ROOT
ATOM      1  C   UNL     1      48.221   7.012  13.616  0.00  0.00    +0.000 C 
ENDROOT
BRANCH   1   2
ATOM      2  C   UNL     1      47.012   6.369  12.991  0.00  0.00    +0.000 A 
ATOM      3  C   UNL     1      46.453   5.211  13.546  0.00  0.00    +0.000 A 
ATOM      4  C   UNL     1      45.318   4.628  12.976  0.00  0.00    +0.000 A 
ATOM      5  C   UNL     1      44.726   5.183  11.834  0.00  0.00    +0.000 A 
ATOM      6  C   UNL     1      45.294   6.333  11.272  0.00  0.00    +0.000 A 
ATOM      7  C   UNL     1      46.429   6.918  11.842  0.00  0.00    +0.000 A 
BRANCH   5   8
ATOM      8  C   UNL     1      43.508   4.545  11.215  0.00  0.00    +0.000 C 
BRANCH   8   9
ATOM      9  O   UNL     1      43.815   4.151   9.882  0.00  0.00    +0.000 OA
BRANCH   9  10
ATOM     10  C   UNL     1      44.306   2.809   9.837  0.00  0.00    +0.000 C 
BRANCH  10  11
ATOM     11  C   UNL     1      45.329   2.630   8.737  0.00  0.00    +0.000 A 
ATOM     12  C   UNL     1      45.737   3.709   7.955  0.00  0.00    +0.000 A 
ATOM     13  C   UNL     1      46.700   3.506   6.971  0.00  0.00    +0.000 A 
ATOM     14  C   UNL     1      47.242   2.238   6.801  0.00  0.00    +0.000 A 
ATOM     15  C   UNL     1      46.798   1.222   7.630  0.00  0.00    +0.000 A 
ATOM     16  N   UNL     1      45.863   1.389   8.593  0.00  0.00    +0.000 NA
ENDBRANCH  10  11
ENDBRANCH   9  10
ENDBRANCH   8   9
ENDBRANCH   5   8
ENDBRANCH   1   2
BRANCH   1  19
ATOM     17  C   UNL     1      49.002   6.871  15.925  0.00  0.00    +0.000 C 
ATOM     18  O   UNL     1      50.068   6.387  15.566  0.00  0.00    +0.000 OA
ATOM     19  N   UNL     1      48.032   7.259  15.025  0.00  0.00    +0.000 N 
ATOM     20  H   UNL     1      47.126   7.557  15.353  0.00  0.00    +0.000 HD
BRANCH  17  24
ATOM     21  C   UNL     1      47.800   9.199  20.170  0.00  0.00    +0.000 C 
ATOM     22  N   UNL     1      48.138   8.156  19.228  0.00  0.00    +0.000 N 
ATOM     23  C   UNL     1      48.319   8.318  17.883  0.00  0.00    +0.000 A 
ATOM     24  C   UNL     1      48.666   7.089  17.330  0.00  0.00    +0.000 A 
ATOM     25  C   UNL     1      48.670   6.139  18.415  0.00  0.00    +0.000 A 
ATOM     26  C   UNL     1      48.885   4.780  18.636  0.00  0.00    +0.000 A 
ATOM     27 CL   UNL     1      49.199   3.713  17.358  0.00  0.00    +0.000 Cl
ATOM     28  N   UNL     1      48.781   4.224  19.857  0.00  0.00    +0.000 NA
ATOM     29  C   UNL     1      48.466   5.038  20.870  0.00  0.00    +0.000 A 
ATOM     30  N   UNL     1      48.224   6.356  20.815  0.00  0.00    +0.000 NA
ATOM     31  C   UNL     1      48.338   6.847  19.568  0.00  0.00    +0.000 A 
ENDBRANCH  17  24
ENDBRANCH   1  19
TORSDOF 7
ENDMDL
MODEL 4
REMARK VINA RESULT:    -7.096      3.325      6.098
REMARK INTER + INTRA:         -11.310
REMARK INTER:                 -10.754
REMARK INTRA:                  -0.556
REMARK UNBOUND:                -1.311
REMARK  Name = 
REMARK  8 active torsions:
REMARK  status: ('A' for Active; 'I' for Inactive)
REMARK    1  A    between atoms: C_1  and  N_2
REMARK    2  A    between atoms: C_4  and  C_5
REMARK    3  A    between atoms: N_7  and  C_8
REMARK    4  A    between atoms: C_8  and  C_9
REMARK    5  A    between atoms: C_12  and  C_13
REMARK    6  A    between atoms: C_13  and  O_14
REMARK    7  A    between atoms: O_14  and  C_15
REMARK    8  A    between atoms: C_15  and  C_16
REMARK                            x       y       z     vdW  Elec       q    Type
REMARK                         _______ _______ _______ _____ _____    ______ ____
ROOT
ATOM      1  C   UNL     1      44.307   3.949  10.075  0.00  0.00    +0.000 C 
ENDROOT
BRANCH   1   2
ATOM      2  C   UNL     1      45.148   3.334   8.989  0.00  0.00    +0.000 A 
ATOM      3  C   UNL     1      45.656   4.122   7.948  0.00  0.00    +0.000 A 
ATOM      4  C   UNL     1      46.454   3.553   6.952  0.00  0.00    +0.000 A 
ATOM      5  C   UNL     1      46.752   2.184   6.970  0.00  0.00    +0.000 A 
ATOM      6  C   UNL     1      46.232   1.395   8.004  0.00  0.00    +0.000 A 
ATOM      7  C   UNL     1      45.434   1.963   9.001  0.00  0.00    +0.000 A 
BRANCH   5   8
ATOM      8  C   UNL     1      47.604   1.571   5.888  0.00  0.00    +0.000 C 
BRANCH   8   9
ATOM      9  O   UNL     1      47.006   0.353   5.457  0.00  0.00    +0.000 OA
BRANCH   9  10
ATOM     10  C   UNL     1      46.995   0.255   4.031  0.00  0.00    +0.000 C 
BRANCH  10  11
ATOM     11  C   UNL     1      47.221  -1.168   3.572  0.00  0.00    +0.000 A 
ATOM     12  C   UNL     1      46.608  -2.238   4.221  0.00  0.00    +0.000 A 
ATOM     13  C   UNL     1      46.822  -3.530   3.750  0.00  0.00    +0.000 A 
ATOM     14  C   UNL     1      47.630  -3.721   2.636  0.00  0.00    +0.000 A 
ATOM     15  C   UNL     1      48.188  -2.606   2.035  0.00  0.00    +0.000 A 
ATOM     16  N   UNL     1      47.999  -1.341   2.470  0.00  0.00    +0.000 NA
ENDBRANCH  10  11
ENDBRANCH   9  10
ENDBRANCH   8   9
ENDBRANCH   5   8
ENDBRANCH   1   2
BRANCH   1  19
ATOM     17  C   UNL     1      44.183   6.083  11.255  0.00  0.00    +0.000 C 
ATOM     18  O   UNL     1      42.967   5.987  11.362  0.00  0.00    +0.000 OA
ATOM     19  N   UNL     1      44.948   5.097  10.669  0.00  0.00    +0.000 N 
ATOM     20  H   UNL     1      45.932   5.250  10.502  0.00  0.00    +0.000 HD
BRANCH  17  24
ATOM     21  C   UNL     1      45.684  10.801  11.862  0.00  0.00    +0.000 C 
ATOM     22  N   UNL     1      45.597   9.364  11.991  0.00  0.00    +0.000 N 
ATOM     23  C   UNL     1      44.657   8.562  11.407  0.00  0.00    +0.000 A 
ATOM     24  C   UNL     1      44.931   7.239  11.742  0.00  0.00    +0.000 A 
ATOM     25  C   UNL     1      46.094   7.267  12.595  0.00  0.00    +0.000 A 
ATOM     26  C   UNL     1      46.907   6.389  13.310  0.00  0.00    +0.000 A 
ATOM     27 CL   UNL     1      46.571   4.730  13.384  0.00  0.00    +0.000 Cl
ATOM     28  N   UNL     1      47.954   6.812  14.042  0.00  0.00    +0.000 NA
ATOM     29  C   UNL     1      48.195   8.128  14.052  0.00  0.00    +0.000 A 
ATOM     30  N   UNL     1      47.504   9.091  13.426  0.00  0.00    +0.000 NA
ATOM     31  C   UNL     1      46.469   8.602  12.719  0.00  0.00    +0.000 A 
ENDBRANCH  17  24
ENDBRANCH   1  19
TORSDOF 7
ENDMDL
MODEL 5
REMARK VINA RESULT:    -6.525      4.594      9.207
REMARK INTER + INTRA:         -10.507
REMARK INTER:                  -9.646
REMARK INTRA:                  -0.861
REMARK UNBOUND:                -1.311
REMARK  Name = 
REMARK  8 active torsions:
REMARK  status: ('A' for Active; 'I' for Inactive)
REMARK    1  A    between atoms: C_1  and  N_2
REMARK    2  A    between atoms: C_4  and  C_5
REMARK    3  A    between atoms: N_7  and  C_8
REMARK    4  A    between atoms: C_8  and  C_9
REMARK    5  A    between atoms: C_12  and  C_13
REMARK    6  A    between atoms: C_13  and  O_14
REMARK    7  A    between atoms: O_14  and  C_15
REMARK    8  A    between atoms: C_15  and  C_16
REMARK                            x       y       z     vdW  Elec       q    Type
REMARK                         _______ _______ _______ _____ _____    ______ ____
ROOT
ATOM      1  C   UNL     1      47.205   3.471  16.793  0.00  0.00    +0.000 C 
ENDROOT
BRANCH   1   2
ATOM      2  C   UNL     1      48.678   3.383  17.091  0.00  0.00    +0.000 A 
ATOM      3  C   UNL     1      49.392   4.516  17.500  0.00  0.00    +0.000 A 
ATOM      4  C   UNL     1      50.755   4.428  17.796  0.00  0.00    +0.000 A 
ATOM      5  C   UNL     1      51.434   3.209  17.678  0.00  0.00    +0.000 A 
ATOM      6  C   UNL     1      50.722   2.079  17.255  0.00  0.00    +0.000 A 
ATOM      7  C   UNL     1      49.359   2.166  16.960  0.00  0.00    +0.000 A 
BRANCH   5   8
ATOM      8  C   UNL     1      52.907   3.119  17.987  0.00  0.00    +0.000 C 
BRANCH   8   9
ATOM      9  O   UNL     1      53.129   2.042  18.890  0.00  0.00    +0.000 OA
BRANCH   9  10
ATOM     10  C   UNL     1      54.487   1.595  18.842  0.00  0.00    +0.000 C 
BRANCH  10  11
ATOM     11  C   UNL     1      54.583   0.170  18.345  0.00  0.00    +0.000 A 
ATOM     12  C   UNL     1      54.864  -0.107  17.009  0.00  0.00    +0.000 A 
ATOM     13  C   UNL     1      54.970  -1.433  16.599  0.00  0.00    +0.000 A 
ATOM     14  C   UNL     1      54.807  -2.448  17.534  0.00  0.00    +0.000 A 
ATOM     15  C   UNL     1      54.549  -2.092  18.846  0.00  0.00    +0.000 A 
ATOM     16  N   UNL     1      54.440  -0.813  19.273  0.00  0.00    +0.000 NA
ENDBRANCH  10  11
ENDBRANCH   9  10
ENDBRANCH   8   9
ENDBRANCH   5   8
ENDBRANCH   1   2
BRANCH   1  19
ATOM     17  C   UNL     1      47.000   4.272  14.496  0.00  0.00    +0.000 C 
ATOM     18  O   UNL     1      47.254   3.158  14.054  0.00  0.00    +0.000 OA
ATOM     19  N   UNL     1      46.908   4.520  15.849  0.00  0.00    +0.000 N 
ATOM     20  H   UNL     1      46.801   5.466  16.185  0.00  0.00    +0.000 HD
BRANCH  17  24
ATOM     21  C   UNL     1      47.698   8.638  12.186  0.00  0.00    +0.000 C 
ATOM     22  N   UNL     1      47.093   7.398  12.618  0.00  0.00    +0.000 N 
ATOM     23  C   UNL     1      47.677   6.458  13.421  0.00  0.00    +0.000 A 
ATOM     24  C   UNL     1      46.765   5.429  13.636  0.00  0.00    +0.000 A 
ATOM     25  C   UNL     1      45.576   5.776  12.897  0.00  0.00    +0.000 A 
ATOM     26  C   UNL     1      44.311   5.261  12.618  0.00  0.00    +0.000 A 
ATOM     27 CL   UNL     1      43.833   3.734  13.174  0.00  0.00    +0.000 Cl
ATOM     28  N   UNL     1      43.430   5.904  11.831  0.00  0.00    +0.000 NA
ATOM     29  C   UNL     1      43.814   7.081  11.324  0.00  0.00    +0.000 A 
ATOM     30  N   UNL     1      44.991   7.700  11.496  0.00  0.00    +0.000 NA
ATOM     31  C   UNL     1      45.827   7.002  12.285  0.00  0.00    +0.000 A 
ENDBRANCH  17  24
ENDBRANCH   1  19
TORSDOF 7
ENDMDL
MODEL 6
REMARK VINA RESULT:    -6.196      3.851      9.623
REMARK INTER + INTRA:         -10.042
REMARK INTER:                  -8.598
REMARK INTRA:                  -1.444
REMARK UNBOUND:                -1.311
REMARK  Name = 
REMARK  8 active torsions:
REMARK  status: ('A' for Active; 'I' for Inactive)
REMARK    1  A    between atoms: C_1  and  N_2
REMARK    2  A    between atoms: C_4  and  C_5
REMARK    3  A    between atoms: N_7  and  C_8
REMARK    4  A    between atoms: C_8  and  C_9
REMARK    5  A    between atoms: C_12  and  C_13
REMARK    6  A    between atoms: C_13  and  O_14
REMARK    7  A    between atoms: O_14  and  C_15
REMARK    8  A    between atoms: C_15  and  C_16
REMARK                            x       y       z     vdW  Elec       q    Type
REMARK                         _______ _______ _______ _____ _____    ______ ____
ROOT
ATOM      1  C   UNL     1      47.685   3.625  16.416  0.00  0.00    +0.000 C 
ENDROOT
BRANCH   1   2
ATOM      2  C   UNL     1      47.927   4.289  17.744  0.00  0.00    +0.000 A 
ATOM      3  C   UNL     1      49.098   4.029  18.468  0.00  0.00    +0.000 A 
ATOM      4  C   UNL     1      49.331   4.663  19.692  0.00  0.00    +0.000 A 
ATOM      5  C   UNL     1      48.394   5.560  20.222  0.00  0.00    +0.000 A 
ATOM      6  C   UNL     1      47.218   5.808  19.504  0.00  0.00    +0.000 A 
ATOM      7  C   UNL     1      46.984   5.175  18.279  0.00  0.00    +0.000 A 
BRANCH   5   8
ATOM      8  C   UNL     1      48.643   6.233  21.548  0.00  0.00    +0.000 C 
BRANCH   8   9
ATOM      9  O   UNL     1      48.190   7.581  21.479  0.00  0.00    +0.000 OA
BRANCH   9  10
ATOM     10  C   UNL     1      49.222   8.452  21.008  0.00  0.00    +0.000 C 
BRANCH  10  11
ATOM     11  C   UNL     1      48.732   9.332  19.880  0.00  0.00    +0.000 A 
ATOM     12  C   UNL     1      48.749   8.883  18.561  0.00  0.00    +0.000 A 
ATOM     13  C   UNL     1      48.265   9.715  17.556  0.00  0.00    +0.000 A 
ATOM     14  C   UNL     1      47.763  10.966  17.892  0.00  0.00    +0.000 A 
ATOM     15  C   UNL     1      47.763  11.332  19.227  0.00  0.00    +0.000 A 
ATOM     16  N   UNL     1      48.228  10.546  20.224  0.00  0.00    +0.000 NA
ENDBRANCH  10  11
ENDBRANCH   9  10
ENDBRANCH   8   9
ENDBRANCH   5   8
ENDBRANCH   1   2
BRANCH   1  19
ATOM     17  C   UNL     1      46.693   4.113  14.238  0.00  0.00    +0.000 C 
ATOM     18  O   UNL     1      47.288   3.174  13.724  0.00  0.00    +0.000 OA
ATOM     19  N   UNL     1      46.789   4.393  15.584  0.00  0.00    +0.000 N 
ATOM     20  H   UNL     1      46.372   5.232  15.959  0.00  0.00    +0.000 HD
BRANCH  17  24
ATOM     21  C   UNL     1      42.855   5.752  11.506  0.00  0.00    +0.000 C 
ATOM     22  N   UNL     1      44.099   5.723  12.242  0.00  0.00    +0.000 N 
ATOM     23  C   UNL     1      44.593   4.656  12.939  0.00  0.00    +0.000 A 
ATOM     24  C   UNL     1      45.826   5.010  13.479  0.00  0.00    +0.000 A 
ATOM     25  C   UNL     1      46.063   6.379  13.092  0.00  0.00    +0.000 A 
ATOM     26  C   UNL     1      47.017   7.380  13.262  0.00  0.00    +0.000 A 
ATOM     27 CL   UNL     1      48.380   7.149  14.241  0.00  0.00    +0.000 Cl
ATOM     28  N   UNL     1      46.877   8.607  12.727  0.00  0.00    +0.000 NA
ATOM     29  C   UNL     1      45.772   8.832  12.006  0.00  0.00    +0.000 A 
ATOM     30  N   UNL     1      44.768   7.978  11.760  0.00  0.00    +0.000 NA
ATOM     31  C   UNL     1      44.967   6.775  12.328  0.00  0.00    +0.000 A 
ENDBRANCH  17  24
ENDBRANCH   1  19
TORSDOF 7
ENDMDL
MODEL 7
REMARK VINA RESULT:    -6.187      2.325      3.097
REMARK INTER + INTRA:         -10.030
REMARK INTER:                  -9.159
REMARK INTRA:                  -0.870
REMARK UNBOUND:                -1.311
REMARK  Name = 
REMARK  8 active torsions:
REMARK  status: ('A' for Active; 'I' for Inactive)
REMARK    1  A    between atoms: C_1  and  N_2
REMARK    2  A    between atoms: C_4  and  C_5
REMARK    3  A    between atoms: N_7  and  C_8
REMARK    4  A    between atoms: C_8  and  C_9
REMARK    5  A    between atoms: C_12  and  C_13
REMARK    6  A    between atoms: C_13  and  O_14
REMARK    7  A    between atoms: O_14  and  C_15
REMARK    8  A    between atoms: C_15  and  C_16
REMARK                            x       y       z     vdW  Elec       q    Type
REMARK                         _______ _______ _______ _____ _____    ______ ____
ROOT
ATOM      1  C   UNL     1      46.515   8.022  13.171  0.00  0.00    +0.000 C 
ENDROOT
BRANCH   1   2
ATOM      2  C   UNL     1      45.799   6.804  12.654  0.00  0.00    +0.000 A 
ATOM      3  C   UNL     1      44.949   6.892  11.544  0.00  0.00    +0.000 A 
ATOM      4  C   UNL     1      44.302   5.755  11.054  0.00  0.00    +0.000 A 
ATOM      5  C   UNL     1      44.481   4.509  11.669  0.00  0.00    +0.000 A 
ATOM      6  C   UNL     1      45.320   4.424  12.787  0.00  0.00    +0.000 A 
ATOM      7  C   UNL     1      45.969   5.561  13.278  0.00  0.00    +0.000 A 
BRANCH   5   8
ATOM      8  C   UNL     1      43.772   3.287  11.144  0.00  0.00    +0.000 C 
BRANCH   8   9
ATOM      9  O   UNL     1      44.731   2.395  10.586  0.00  0.00    +0.000 OA
BRANCH   9  10
ATOM     10  C   UNL     1      44.395   2.046   9.241  0.00  0.00    +0.000 C 
BRANCH  10  11
ATOM     11  C   UNL     1      45.585   2.187   8.318  0.00  0.00    +0.000 A 
ATOM     12  C   UNL     1      45.918   3.420   7.761  0.00  0.00    +0.000 A 
ATOM     13  C   UNL     1      47.037   3.512   6.938  0.00  0.00    +0.000 A 
ATOM     14  C   UNL     1      47.802   2.377   6.703  0.00  0.00    +0.000 A 
ATOM     15  C   UNL     1      47.417   1.193   7.308  0.00  0.00    +0.000 A 
ATOM     16  N   UNL     1      46.335   1.074   8.111  0.00  0.00    +0.000 NA
ENDBRANCH  10  11
ENDBRANCH   9  10
ENDBRANCH   8   9
ENDBRANCH   5   8
ENDBRANCH   1   2
BRANCH   1  19
ATOM     17  C   UNL     1      48.469   8.637  14.500  0.00  0.00    +0.000 C 
ATOM     18  O   UNL     1      48.377   9.806  14.148  0.00  0.00    +0.000 OA
ATOM     19  N   UNL     1      47.561   7.678  14.104  0.00  0.00    +0.000 N 
ATOM     20  H   UNL     1      47.720   6.707  14.324  0.00  0.00    +0.000 HD
BRANCH  17  24
ATOM     21  C   UNL     1      50.826   6.972  18.569  0.00  0.00    +0.000 C 
ATOM     22  N   UNL     1      50.577   7.420  17.218  0.00  0.00    +0.000 N 
ATOM     23  C   UNL     1      49.356   7.735  16.690  0.00  0.00    +0.000 A 
ATOM     24  C   UNL     1      49.535   8.156  15.375  0.00  0.00    +0.000 A 
ATOM     25  C   UNL     1      50.949   8.064  15.106  0.00  0.00    +0.000 A 
ATOM     26  C   UNL     1      51.847   8.277  14.062  0.00  0.00    +0.000 A 
ATOM     27 CL   UNL     1      51.320   8.736  12.519  0.00  0.00    +0.000 Cl
ATOM     28  N   UNL     1      53.168   8.058  14.192  0.00  0.00    +0.000 NA
ATOM     29  C   UNL     1      53.597   7.627  15.384  0.00  0.00    +0.000 A 
ATOM     30  N   UNL     1      52.860   7.371  16.475  0.00  0.00    +0.000 NA
ATOM     31  C   UNL     1      51.551   7.604  16.275  0.00  0.00    +0.000 A 
ENDBRANCH  17  24
ENDBRANCH   1  19
TORSDOF 7
ENDMDL
MODEL 8
REMARK VINA RESULT:    -6.035      2.699      3.360
REMARK INTER + INTRA:          -9.815
REMARK INTER:                  -8.864
REMARK INTRA:                  -0.951
REMARK UNBOUND:                -1.311
REMARK  Name = 
REMARK  8 active torsions:
REMARK  status: ('A' for Active; 'I' for Inactive)
REMARK    1  A    between atoms: C_1  and  N_2
REMARK    2  A    between atoms: C_4  and  C_5
REMARK    3  A    between atoms: N_7  and  C_8
REMARK    4  A    between atoms: C_8  and  C_9
REMARK    5  A    between atoms: C_12  and  C_13
REMARK    6  A    between atoms: C_13  and  O_14
REMARK    7  A    between atoms: O_14  and  C_15
REMARK    8  A    between atoms: C_15  and  C_16
REMARK                            x       y       z     vdW  Elec       q    Type
REMARK                         _______ _______ _______ _____ _____    ______ ____
ROOT
ATOM      1  C   UNL     1      47.476   8.995  12.287  0.00  0.00    +0.000 C 
ENDROOT
BRANCH   1   2
ATOM      2  C   UNL     1      46.581   7.791  12.162  0.00  0.00    +0.000 A 
ATOM      3  C   UNL     1      45.235   7.937  11.802  0.00  0.00    +0.000 A 
ATOM      4  C   UNL     1      44.412   6.816  11.667  0.00  0.00    +0.000 A 
ATOM      5  C   UNL     1      44.912   5.529  11.899  0.00  0.00    +0.000 A 
ATOM      6  C   UNL     1      46.254   5.385  12.273  0.00  0.00    +0.000 A 
ATOM      7  C   UNL     1      47.080   6.505  12.408  0.00  0.00    +0.000 A 
BRANCH   5   8
ATOM      8  C   UNL     1      44.018   4.323  11.764  0.00  0.00    +0.000 C 
BRANCH   8   9
ATOM      9  O   UNL     1      44.668   3.349  10.953  0.00  0.00    +0.000 OA
BRANCH   9  10
ATOM     10  C   UNL     1      44.228   3.426   9.595  0.00  0.00    +0.000 C 
BRANCH  10  11
ATOM     11  C   UNL     1      45.333   3.053   8.633  0.00  0.00    +0.000 A 
ATOM     12  C   UNL     1      45.812   1.746   8.561  0.00  0.00    +0.000 A 
ATOM     13  C   UNL     1      46.812   1.440   7.643  0.00  0.00    +0.000 A 
ATOM     14  C   UNL     1      47.300   2.440   6.811  0.00  0.00    +0.000 A 
ATOM     15  C   UNL     1      46.760   3.709   6.930  0.00  0.00    +0.000 A 
ATOM     16  N   UNL     1      45.789   4.036   7.812  0.00  0.00    +0.000 NA
ENDBRANCH  10  11
ENDBRANCH   9  10
ENDBRANCH   8   9
ENDBRANCH   5   8
ENDBRANCH   1   2
BRANCH   1  19
ATOM     17  C   UNL     1      49.369   9.617  13.698  0.00  0.00    +0.000 C 
ATOM     18  O   UNL     1      48.873  10.713  13.930  0.00  0.00    +0.000 OA
ATOM     19  N   UNL     1      48.728   8.671  12.927  0.00  0.00    +0.000 N 
ATOM     20  H   UNL     1      49.205   7.820  12.668  0.00  0.00    +0.000 HD
BRANCH  17  24
ATOM     21  C   UNL     1      54.292   9.498  14.495  0.00  0.00    +0.000 C 
ATOM     22  N   UNL     1      52.886   9.167  14.557  0.00  0.00    +0.000 N 
ATOM     23  C   UNL     1      51.872   9.863  13.959  0.00  0.00    +0.000 A 
ATOM     24  C   UNL     1      50.671   9.211  14.222  0.00  0.00    +0.000 A 
ATOM     25  C   UNL     1      50.996   8.071  15.044  0.00  0.00    +0.000 A 
ATOM     26  C   UNL     1      50.360   7.014  15.693  0.00  0.00    +0.000 A 
ATOM     27 CL   UNL     1      48.673   6.861  15.695  0.00  0.00    +0.000 Cl
ATOM     28  N   UNL     1      51.036   6.103  16.417  0.00  0.00    +0.000 NA
ATOM     29  C   UNL     1      52.365   6.247  16.486  0.00  0.00    +0.000 A 
ATOM     30  N   UNL     1      53.113   7.207  15.925  0.00  0.00    +0.000 NA
ATOM     31  C   UNL     1      52.377   8.087  15.223  0.00  0.00    +0.000 A 
ENDBRANCH  17  24
ENDBRANCH   1  19
TORSDOF 7
ENDMDL
MODEL 9
REMARK VINA RESULT:    -6.033      3.921      8.891
REMARK INTER + INTRA:          -9.812
REMARK INTER:                  -8.536
REMARK INTRA:                  -1.276
REMARK UNBOUND:                -1.311
REMARK  Name = 
REMARK  8 active torsions:
REMARK  status: ('A' for Active; 'I' for Inactive)
REMARK    1  A    between atoms: C_1  and  N_2
REMARK    2  A    between atoms: C_4  and  C_5
REMARK    3  A    between atoms: N_7  and  C_8
REMARK    4  A    between atoms: C_8  and  C_9
REMARK    5  A    between atoms: C_12  and  C_13
REMARK    6  A    between atoms: C_13  and  O_14
REMARK    7  A    between atoms: O_14  and  C_15
REMARK    8  A    between atoms: C_15  and  C_16
REMARK                            x       y       z     vdW  Elec       q    Type
REMARK                         _______ _______ _______ _____ _____    ______ ____
ROOT
ATOM      1  C   UNL     1      47.224   3.484  16.878  0.00  0.00    +0.000 C 
ENDROOT
BRANCH   1   2
ATOM      2  C   UNL     1      48.670   3.399  17.284  0.00  0.00    +0.000 A 
ATOM      3  C   UNL     1      49.454   2.301  16.906  0.00  0.00    +0.000 A 
ATOM      4  C   UNL     1      50.802   2.234  17.267  0.00  0.00    +0.000 A 
ATOM      5  C   UNL     1      51.392   3.256  18.022  0.00  0.00    +0.000 A 
ATOM      6  C   UNL     1      50.604   4.347  18.411  0.00  0.00    +0.000 A 
ATOM      7  C   UNL     1      49.255   4.415  18.050  0.00  0.00    +0.000 A 
BRANCH   5   8
ATOM      8  C   UNL     1      52.844   3.175  18.419  0.00  0.00    +0.000 C 
BRANCH   8   9
ATOM      9  O   UNL     1      53.631   3.860  17.450  0.00  0.00    +0.000 OA
BRANCH   9  10
ATOM     10  C   UNL     1      54.236   5.031  18.005  0.00  0.00    +0.000 C 
BRANCH  10  11
ATOM     11  C   UNL     1      53.959   6.253  17.158  0.00  0.00    +0.000 A 
ATOM     12  C   UNL     1      52.806   6.340  16.380  0.00  0.00    +0.000 A 
ATOM     13  C   UNL     1      52.576   7.493  15.635  0.00  0.00    +0.000 A 
ATOM     14  C   UNL     1      53.494   8.534  15.695  0.00  0.00    +0.000 A 
ATOM     15  C   UNL     1      54.605   8.379  16.506  0.00  0.00    +0.000 A 
ATOM     16  N   UNL     1      54.854   7.271  17.239  0.00  0.00    +0.000 NA
ENDBRANCH  10  11
ENDBRANCH   9  10
ENDBRANCH   8   9
ENDBRANCH   5   8
ENDBRANCH   1   2
BRANCH   1  19
ATOM     17  C   UNL     1      47.071   4.268  14.571  0.00  0.00    +0.000 C 
ATOM     18  O   UNL     1      47.255   3.136  14.143  0.00  0.00    +0.000 OA
ATOM     19  N   UNL     1      46.994   4.538  15.920  0.00  0.00    +0.000 N 
ATOM     20  H   UNL     1      46.946   5.493  16.245  0.00  0.00    +0.000 HD
BRANCH  17  24
ATOM     21  C   UNL     1      48.035   8.564  12.225  0.00  0.00    +0.000 C 
ATOM     22  N   UNL     1      47.358   7.365  12.662  0.00  0.00    +0.000 N 
ATOM     23  C   UNL     1      47.880   6.402  13.481  0.00  0.00    +0.000 A 
ATOM     24  C   UNL     1      46.910   5.428  13.697  0.00  0.00    +0.000 A 
ATOM     25  C   UNL     1      45.750   5.832  12.940  0.00  0.00    +0.000 A 
ATOM     26  C   UNL     1      44.462   5.384  12.651  0.00  0.00    +0.000 A 
ATOM     27 CL   UNL     1      43.894   3.892  13.217  0.00  0.00    +0.000 Cl
ATOM     28  N   UNL     1      43.626   6.066  11.848  0.00  0.00    +0.000 NA
ATOM     29  C   UNL     1      44.081   7.215  11.334  0.00  0.00    +0.000 A 
ATOM     30  N   UNL     1      45.289   7.769  11.513  0.00  0.00    +0.000 NA
ATOM     31  C   UNL     1      46.076   7.035  12.319  0.00  0.00    +0.000 A 
ENDBRANCH  17  24
ENDBRANCH   1  19
TORSDOF 7
ENDMDL
