MODEL 1
REMARK VINA RESULT:    -8.480      0.000      0.000
REMARK INTER + INTRA:         -12.421
REMARK INTER:                 -11.455
REMARK INTRA:                  -0.967
REMARK UNBOUND:                -0.967
REMARK  Name = 
REMARK  7 active torsions:
REMARK  status: ('A' for Active; 'I' for Inactive)
REMARK    1  A    between atoms: C_1  and  C_2
REMARK    2  A    between atoms: C_6  and  C_7
REMARK    3  A    between atoms: C_7  and  C_8
REMARK    4  A    between atoms: C_8  and  C_9
REMARK    5  A    between atoms: C_12  and  C_13
REMARK    6  A    between atoms: C_13  and  N_14
REMARK    7  A    between atoms: C_15  and  C_17
REMARK                            x       y       z     vdW  Elec       q    Type
REMARK                         _______ _______ _______ _____ _____    ______ ____
ROOT
ATOM      1  C   UNL     1      44.489   4.474  10.152  0.00  0.00    +0.000 C 
ENDROOT
BRANCH   1   5
ATOM      2  C   UNL     1      46.505   2.013   7.337  0.00  0.00    +0.000 A 
ATOM      3  C   UNL     1      46.463   3.383   7.101  0.00  0.00    +0.000 A 
ATOM      4  C   UNL     1      45.764   4.194   7.989  0.00  0.00    +0.000 A 
ATOM      5  C   UNL     1      45.107   3.625   9.081  0.00  0.00    +0.000 A 
ATOM      6  C   UNL     1      45.130   2.240   9.184  0.00  0.00    +0.000 A 
ATOM      7  N   UNL     1      45.803   1.427   8.338  0.00  0.00    +0.000 NA
BRANCH   2   8
ATOM      8  C   UNL     1      47.449   1.124   6.564  0.00  0.00    +0.000 C 
BRANCH   8   9
ATOM      9  C   UNL     1      47.625   1.547   5.093  0.00  0.00    +0.000 C 
BRANCH   9  15
ATOM     10  C   UNL     1      47.271  -2.845   3.012  0.00  0.00    +0.000 C 
ATOM     11  C   UNL     1      46.735  -1.449   3.124  0.00  0.00    +0.000 A 
ATOM     12  C   UNL     1      45.701  -1.030   2.298  0.00  0.00    +0.000 A 
ATOM     13  C   UNL     1      45.341   0.310   2.313  0.00  0.00    +0.000 A 
ATOM     14  C   UNL     1      46.001   1.185   3.167  0.00  0.00    +0.000 A 
ATOM     15  C   UNL     1      46.960   0.685   4.041  0.00  0.00    +0.000 A 
ATOM     16  N   UNL     1      47.358  -0.615   3.995  0.00  0.00    +0.000 NA
ENDBRANCH   9  15
ENDBRANCH   8   9
ENDBRANCH   2   8
ENDBRANCH   1   5
BRANCH   1  17
ATOM     17  N   UNL     1      45.467   4.854  11.150  0.00  0.00    +0.000 N 
ATOM     18  C   UNL     1      45.731   6.162  11.466  0.00  0.00    +0.000 C 
ATOM     19  O   UNL     1      45.115   7.086  10.937  0.00  0.00    +0.000 OA
ATOM     20  H   UNL     1      46.043   4.113  11.538  0.00  0.00    +0.000 HD
BRANCH  18  21
ATOM     21  C   UNL     1      46.770   6.425  12.478  0.00  0.00    +0.000 A 
ATOM     22  C   UNL     1      47.667   7.465  12.263  0.00  0.00    +0.000 A 
ATOM     23  S   UNL     1      48.797   7.680  13.519  0.00  0.00    +0.000 S 
ATOM     24  C   UNL     1      48.142   6.381  14.400  0.00  0.00    +0.000 A 
ATOM     25  N   UNL     1      48.668   6.030  15.603  0.00  0.00    +0.000 NA
ATOM     26  C   UNL     1      48.075   5.033  16.174  0.00  0.00    +0.000 A 
ATOM     27  N   UNL     1      47.007   4.358  15.649  0.00  0.00    +0.000 N 
ATOM     28  C   UNL     1      46.445   4.674  14.437  0.00  0.00    +0.000 A 
ATOM     29  O   UNL     1      45.491   4.038  13.990  0.00  0.00    +0.000 OA
ATOM     30  C   UNL     1      47.070   5.791  13.746  0.00  0.00    +0.000 A 
ATOM     31  H   UNL     1      46.587   3.587  16.144  0.00  0.00    +0.000 HD
ENDBRANCH  18  21
ENDBRANCH   1  17
TORSDOF 6
ENDMDL
MODEL 2
REMARK VINA RESULT:    -8.000      2.988      4.951
REMARK INTER + INTRA:         -11.773
REMARK INTER:                 -10.911
REMARK INTRA:                  -0.862
REMARK UNBOUND:                -0.967
REMARK  Name = 
REMARK  7 active torsions:
REMARK  status: ('A' for Active; 'I' for Inactive)
REMARK    1  A    between atoms: C_1  and  C_2
REMARK    2  A    between atoms: C_6  and  C_7
REMARK    3  A    between atoms: C_7  and  C_8
REMARK    4  A    between atoms: C_8  and  C_9
REMARK    5  A    between atoms: C_12  and  C_13
REMARK    6  A    between atoms: C_13  and  N_14
REMARK    7  A    between atoms: C_15  and  C_17
REMARK                            x       y       z     vdW  Elec       q    Type
REMARK                         _______ _______ _______ _____ _____    ______ ____
ROOT
ATOM      1  C   UNL     1      46.906   7.994  13.111  0.00  0.00    +0.000 C 
ENDROOT
BRANCH   1   5
ATOM      2  C   UNL     1      44.168   5.233  11.402  0.00  0.00    +0.000 A 
ATOM      3  C   UNL     1      44.059   6.572  11.045  0.00  0.00    +0.000 A 
ATOM      4  C   UNL     1      44.918   7.494  11.635  0.00  0.00    +0.000 A 
ATOM      5  C   UNL     1      45.853   7.067  12.580  0.00  0.00    +0.000 A 
ATOM      6  C   UNL     1      45.826   5.726  12.939  0.00  0.00    +0.000 A 
ATOM      7  N   UNL     1      45.006   4.807  12.380  0.00  0.00    +0.000 NA
BRANCH   2   8
ATOM      8  C   UNL     1      43.448   4.162  10.617  0.00  0.00    +0.000 C 
BRANCH   8   9
ATOM      9  C   UNL     1      44.281   2.882  10.417  0.00  0.00    +0.000 C 
BRANCH   9  15
ATOM     10  C   UNL     1      47.019   0.155   7.448  0.00  0.00    +0.000 C 
ATOM     11  C   UNL     1      46.429   1.501   7.748  0.00  0.00    +0.000 A 
ATOM     12  C   UNL     1      46.739   2.593   6.949  0.00  0.00    +0.000 A 
ATOM     13  C   UNL     1      46.309   3.850   7.348  0.00  0.00    +0.000 A 
ATOM     14  C   UNL     1      45.564   3.980   8.513  0.00  0.00    +0.000 A 
ATOM     15  C   UNL     1      45.202   2.836   9.217  0.00  0.00    +0.000 A 
ATOM     16  N   UNL     1      45.664   1.606   8.865  0.00  0.00    +0.000 NA
ENDBRANCH   9  15
ENDBRANCH   8   9
ENDBRANCH   2   8
ENDBRANCH   1   5
BRANCH   1  17
ATOM     17  N   UNL     1      47.376   7.562  14.411  0.00  0.00    +0.000 N 
ATOM     18  C   UNL     1      48.513   6.814  14.574  0.00  0.00    +0.000 C 
ATOM     19  O   UNL     1      49.218   6.501  13.616  0.00  0.00    +0.000 OA
ATOM     20  H   UNL     1      46.767   7.738  15.205  0.00  0.00    +0.000 HD
BRANCH  18  21
ATOM     21  C   UNL     1      48.875   6.408  15.944  0.00  0.00    +0.000 A 
ATOM     22  C   UNL     1      49.583   7.300  16.743  0.00  0.00    +0.000 A 
ATOM     23  S   UNL     1      49.912   6.720  18.310  0.00  0.00    +0.000 S 
ATOM     24  C   UNL     1      49.132   5.245  17.984  0.00  0.00    +0.000 A 
ATOM     25  N   UNL     1      49.058   4.278  18.938  0.00  0.00    +0.000 NA
ATOM     26  C   UNL     1      48.433   3.210  18.568  0.00  0.00    +0.000 A 
ATOM     27  N   UNL     1      47.877   3.021  17.330  0.00  0.00    +0.000 N 
ATOM     28  C   UNL     1      47.930   3.966  16.336  0.00  0.00    +0.000 A 
ATOM     29  O   UNL     1      47.428   3.759  15.232  0.00  0.00    +0.000 OA
ATOM     30  C   UNL     1      48.621   5.195  16.695  0.00  0.00    +0.000 A 
ATOM     31  H   UNL     1      47.401   2.163  17.102  0.00  0.00    +0.000 HD
ENDBRANCH  18  21
ENDBRANCH   1  17
TORSDOF 6
ENDMDL
MODEL 3
REMARK VINA RESULT:    -7.863      3.088      5.616
REMARK INTER + INTRA:         -11.588
REMARK INTER:                 -10.453
REMARK INTRA:                  -1.135
REMARK UNBOUND:                -0.967
REMARK  Name = 
REMARK  7 active torsions:
REMARK  status: ('A' for Active; 'I' for Inactive)
REMARK    1  A    between atoms: C_1  and  C_2
REMARK    2  A    between atoms: C_6  and  C_7
REMARK    3  A    between atoms: C_7  and  C_8
REMARK    4  A    between atoms: C_8  and  C_9
REMARK    5  A    between atoms: C_12  and  C_13
REMARK    6  A    between atoms: C_13  and  N_14
REMARK    7  A    between atoms: C_15  and  C_17
REMARK                            x       y       z     vdW  Elec       q    Type
REMARK                         _______ _______ _______ _____ _____    ______ ____
ROOT
ATOM      1  C   UNL     1      47.639   6.145  14.342  0.00  0.00    +0.000 C 
ENDROOT
BRANCH   1   5
ATOM      2  C   UNL     1      44.900   3.619  12.303  0.00  0.00    +0.000 A 
ATOM      3  C   UNL     1      44.600   4.974  12.398  0.00  0.00    +0.000 A 
ATOM      4  C   UNL     1      45.464   5.803  13.106  0.00  0.00    +0.000 A 
ATOM      5  C   UNL     1      46.597   5.266  13.718  0.00  0.00    +0.000 A 
ATOM      6  C   UNL     1      46.766   3.889  13.645  0.00  0.00    +0.000 A 
ATOM      7  N   UNL     1      45.945   3.059  12.962  0.00  0.00    +0.000 NA
BRANCH   2   8
ATOM      8  C   UNL     1      44.149   2.726  11.346  0.00  0.00    +0.000 C 
BRANCH   8   9
ATOM      9  C   UNL     1      43.974   3.338   9.943  0.00  0.00    +0.000 C 
BRANCH   9  15
ATOM     10  C   UNL     1      46.837   0.091   7.708  0.00  0.00    +0.000 C 
ATOM     11  C   UNL     1      46.372   1.512   7.808  0.00  0.00    +0.000 A 
ATOM     12  C   UNL     1      46.949   2.493   7.011  0.00  0.00    +0.000 A 
ATOM     13  C   UNL     1      46.612   3.819   7.244  0.00  0.00    +0.000 A 
ATOM     14  C   UNL     1      45.695   4.126   8.242  0.00  0.00    +0.000 A 
ATOM     15  C   UNL     1      45.079   3.092   8.938  0.00  0.00    +0.000 A 
ATOM     16  N   UNL     1      45.442   1.794   8.756  0.00  0.00    +0.000 NA
ENDBRANCH   9  15
ENDBRANCH   8   9
ENDBRANCH   2   8
ENDBRANCH   1   5
BRANCH   1  17
ATOM     17  N   UNL     1      47.629   7.469  13.755  0.00  0.00    +0.000 N 
ATOM     18  C   UNL     1      48.408   7.805  12.678  0.00  0.00    +0.000 C 
ATOM     19  O   UNL     1      49.134   6.978  12.128  0.00  0.00    +0.000 OA
ATOM     20  H   UNL     1      47.102   8.187  14.242  0.00  0.00    +0.000 HD
BRANCH  18  21
ATOM     21  C   UNL     1      48.334   9.193  12.187  0.00  0.00    +0.000 A 
ATOM     22  C   UNL     1      49.498   9.810  11.740  0.00  0.00    +0.000 A 
ATOM     23  S   UNL     1      49.269  11.399  11.174  0.00  0.00    +0.000 S 
ATOM     24  C   UNL     1      47.604  11.336  11.513  0.00  0.00    +0.000 A 
ATOM     25  N   UNL     1      46.806  12.406  11.253  0.00  0.00    +0.000 NA
ATOM     26  C   UNL     1      45.561  12.227  11.548  0.00  0.00    +0.000 A 
ATOM     27  N   UNL     1      45.043  11.076  12.079  0.00  0.00    +0.000 N 
ATOM     28  C   UNL     1      45.810   9.973  12.362  0.00  0.00    +0.000 A 
ATOM     29  O   UNL     1      45.313   8.959  12.849  0.00  0.00    +0.000 OA
ATOM     30  C   UNL     1      47.223  10.114  12.049  0.00  0.00    +0.000 A 
ATOM     31  H   UNL     1      44.060  10.998  12.287  0.00  0.00    +0.000 HD
ENDBRANCH  18  21
ENDBRANCH   1  17
TORSDOF 6
ENDMDL
MODEL 4
REMARK VINA RESULT:    -7.862      3.372      5.694
REMARK INTER + INTRA:         -11.586
REMARK INTER:                 -10.722
REMARK INTRA:                  -0.865
REMARK UNBOUND:                -0.967
REMARK  Name = 
REMARK  7 active torsions:
REMARK  status: ('A' for Active; 'I' for Inactive)
REMARK    1  A    between atoms: C_1  and  C_2
REMARK    2  A    between atoms: C_6  and  C_7
REMARK    3  A    between atoms: C_7  and  C_8
REMARK    4  A    between atoms: C_8  and  C_9
REMARK    5  A    between atoms: C_12  and  C_13
REMARK    6  A    between atoms: C_13  and  N_14
REMARK    7  A    between atoms: C_15  and  C_17
REMARK                            x       y       z     vdW  Elec       q    Type
REMARK                         _______ _______ _______ _____ _____    ______ ____
ROOT
ATOM      1  C   UNL     1      48.481   6.530  13.806  0.00  0.00    +0.000 C 
ENDROOT
BRANCH   1   5
ATOM      2  C   UNL     1      45.329   4.107  12.312  0.00  0.00    +0.000 A 
ATOM      3  C   UNL     1      45.412   5.422  11.870  0.00  0.00    +0.000 A 
ATOM      4  C   UNL     1      46.410   6.241  12.389  0.00  0.00    +0.000 A 
ATOM      5  C   UNL     1      47.291   5.740  13.348  0.00  0.00    +0.000 A 
ATOM      6  C   UNL     1      47.074   4.442  13.794  0.00  0.00    +0.000 A 
ATOM      7  N   UNL     1      46.115   3.623  13.306  0.00  0.00    +0.000 NA
BRANCH   2   8
ATOM      8  C   UNL     1      44.442   3.109  11.607  0.00  0.00    +0.000 C 
BRANCH   8   9
ATOM      9  C   UNL     1      44.071   3.525  10.170  0.00  0.00    +0.000 C 
BRANCH   9  15
ATOM     10  C   UNL     1      46.751   0.270   7.727  0.00  0.00    +0.000 C 
ATOM     11  C   UNL     1      46.303   1.695   7.866  0.00  0.00    +0.000 A 
ATOM     12  C   UNL     1      46.830   2.676   7.036  0.00  0.00    +0.000 A 
ATOM     13  C   UNL     1      46.519   4.003   7.298  0.00  0.00    +0.000 A 
ATOM     14  C   UNL     1      45.675   4.310   8.358  0.00  0.00    +0.000 A 
ATOM     15  C   UNL     1      45.102   3.277   9.090  0.00  0.00    +0.000 A 
ATOM     16  N   UNL     1      45.443   1.977   8.878  0.00  0.00    +0.000 NA
ENDBRANCH   9  15
ENDBRANCH   8   9
ENDBRANCH   2   8
ENDBRANCH   1   5
BRANCH   1  17
ATOM     17  N   UNL     1      48.251   7.117  15.110  0.00  0.00    +0.000 N 
ATOM     18  C   UNL     1      48.854   6.647  16.248  0.00  0.00    +0.000 C 
ATOM     19  O   UNL     1      49.659   5.718  16.211  0.00  0.00    +0.000 OA
ATOM     20  H   UNL     1      47.529   7.828  15.176  0.00  0.00    +0.000 HD
BRANCH  18  21
ATOM     21  C   UNL     1      48.517   7.307  17.523  0.00  0.00    +0.000 A 
ATOM     22  C   UNL     1      48.544   8.696  17.587  0.00  0.00    +0.000 A 
ATOM     23  S   UNL     1      48.109   9.331  19.105  0.00  0.00    +0.000 S 
ATOM     24  C   UNL     1      47.877   7.774  19.748  0.00  0.00    +0.000 A 
ATOM     25  N   UNL     1      47.489   7.612  21.041  0.00  0.00    +0.000 NA
ATOM     26  C   UNL     1      47.340   6.381  21.404  0.00  0.00    +0.000 A 
ATOM     27  N   UNL     1      47.547   5.299  20.590  0.00  0.00    +0.000 N 
ATOM     28  C   UNL     1      47.943   5.413  19.281  0.00  0.00    +0.000 A 
ATOM     29  O   UNL     1      48.129   4.418  18.582  0.00  0.00    +0.000 OA
ATOM     30  C   UNL     1      48.125   6.778  18.814  0.00  0.00    +0.000 A 
ATOM     31  H   UNL     1      47.413   4.361  20.933  0.00  0.00    +0.000 HD
ENDBRANCH  18  21
ENDBRANCH   1  17
TORSDOF 6
ENDMDL
MODEL 5
REMARK VINA RESULT:    -7.465      4.165      9.750
REMARK INTER + INTRA:         -11.050
REMARK INTER:                  -9.621
REMARK INTRA:                  -1.428
REMARK UNBOUND:                -0.967
REMARK  Name = 
REMARK  7 active torsions:
REMARK  status: ('A' for Active; 'I' for Inactive)
REMARK    1  A    between atoms: C_1  and  C_2
REMARK    2  A    between atoms: C_6  and  C_7
REMARK    3  A    between atoms: C_7  and  C_8
REMARK    4  A    between atoms: C_8  and  C_9
REMARK    5  A    between atoms: C_12  and  C_13
REMARK    6  A    between atoms: C_13  and  N_14
REMARK    7  A    between atoms: C_15  and  C_17
REMARK                            x       y       z     vdW  Elec       q    Type
REMARK                         _______ _______ _______ _____ _____    ______ ____
ROOT
ATOM      1  C   UNL     1      47.716   8.038  11.877  0.00  0.00    +0.000 C 
ENDROOT
BRANCH   1   5
ATOM      2  C   UNL     1      49.635   7.717  15.653  0.00  0.00    +0.000 A 
ATOM      3  C   UNL     1      48.497   8.511  15.560  0.00  0.00    +0.000 A 
ATOM      4  C   UNL     1      47.888   8.664  14.318  0.00  0.00    +0.000 A 
ATOM      5  C   UNL     1      48.432   8.040  13.195  0.00  0.00    +0.000 A 
ATOM      6  C   UNL     1      49.620   7.341  13.370  0.00  0.00    +0.000 A 
ATOM      7  N   UNL     1      50.233   7.173  14.564  0.00  0.00    +0.000 NA
BRANCH   2   8
ATOM      8  C   UNL     1      50.184   7.309  16.999  0.00  0.00    +0.000 C 
BRANCH   8   9
ATOM      9  C   UNL     1      49.225   6.417  17.810  0.00  0.00    +0.000 C 
BRANCH   9  15
ATOM     10  C   UNL     1      51.143   1.966  17.309  0.00  0.00    +0.000 C 
ATOM     11  C   UNL     1      49.934   2.846  17.190  0.00  0.00    +0.000 A 
ATOM     12  C   UNL     1      48.750   2.339  16.671  0.00  0.00    +0.000 A 
ATOM     13  C   UNL     1      47.705   3.217  16.423  0.00  0.00    +0.000 A 
ATOM     14  C   UNL     1      47.860   4.565  16.722  0.00  0.00    +0.000 A 
ATOM     15  C   UNL     1      49.034   4.994  17.331  0.00  0.00    +0.000 A 
ATOM     16  N   UNL     1      50.084   4.152  17.528  0.00  0.00    +0.000 NA
ENDBRANCH   9  15
ENDBRANCH   8   9
ENDBRANCH   2   8
ENDBRANCH   1   5
BRANCH   1  17
ATOM     17  N   UNL     1      46.989   6.801  11.677  0.00  0.00    +0.000 N 
ATOM     18  C   UNL     1      45.654   6.674  11.962  0.00  0.00    +0.000 C 
ATOM     19  O   UNL     1      44.992   7.627  12.371  0.00  0.00    +0.000 OA
ATOM     20  H   UNL     1      47.532   5.982  11.420  0.00  0.00    +0.000 HD
BRANCH  18  21
ATOM     21  C   UNL     1      45.031   5.357  11.745  0.00  0.00    +0.000 A 
ATOM     22  C   UNL     1      44.318   4.772  12.787  0.00  0.00    +0.000 A 
ATOM     23  S   UNL     1      43.626   3.266  12.397  0.00  0.00    +0.000 S 
ATOM     24  C   UNL     1      44.260   3.324  10.820  0.00  0.00    +0.000 A 
ATOM     25  N   UNL     1      44.028   2.310   9.945  0.00  0.00    +0.000 NA
ATOM     26  C   UNL     1      44.557   2.479   8.779  0.00  0.00    +0.000 A 
ATOM     27  N   UNL     1      45.298   3.569   8.411  0.00  0.00    +0.000 N 
ATOM     28  C   UNL     1      45.563   4.615   9.260  0.00  0.00    +0.000 A 
ATOM     29  O   UNL     1      46.241   5.575   8.898  0.00  0.00    +0.000 OA
ATOM     30  C   UNL     1      44.989   4.482  10.590  0.00  0.00    +0.000 A 
ATOM     31  H   UNL     1      45.685   3.643   7.483  0.00  0.00    +0.000 HD
ENDBRANCH  18  21
ENDBRANCH   1  17
TORSDOF 6
ENDMDL
MODEL 6
REMARK VINA RESULT:    -7.245      2.534      4.691
REMARK INTER + INTRA:         -10.753
REMARK INTER:                  -9.674
REMARK INTRA:                  -1.079
REMARK UNBOUND:                -0.967
REMARK  Name = 
REMARK  7 active torsions:
REMARK  status: ('A' for Active; 'I' for Inactive)
REMARK    1  A    between atoms: C_1  and  C_2
REMARK    2  A    between atoms: C_6  and  C_7
REMARK    3  A    between atoms: C_7  and  C_8
REMARK    4  A    between atoms: C_8  and  C_9
REMARK    5  A    between atoms: C_12  and  C_13
REMARK    6  A    between atoms: C_13  and  N_14
REMARK    7  A    between atoms: C_15  and  C_17
REMARK                            x       y       z     vdW  Elec       q    Type
REMARK                         _______ _______ _______ _____ _____    ______ ____
ROOT
ATOM      1  C   UNL     1      46.635   4.931  14.354  0.00  0.00    +0.000 C 
ENDROOT
BRANCH   1   5
ATOM      2  C   UNL     1      44.997   4.276  10.489  0.00  0.00    +0.000 A 
ATOM      3  C   UNL     1      45.577   5.512  10.756  0.00  0.00    +0.000 A 
ATOM      4  C   UNL     1      46.073   5.756  12.033  0.00  0.00    +0.000 A 
ATOM      5  C   UNL     1      45.965   4.775  13.020  0.00  0.00    +0.000 A 
ATOM      6  C   UNL     1      45.291   3.608  12.685  0.00  0.00    +0.000 A 
ATOM      7  N   UNL     1      44.801   3.342  11.452  0.00  0.00    +0.000 NA
BRANCH   2   8
ATOM      8  C   UNL     1      44.678   3.862   9.073  0.00  0.00    +0.000 C 
BRANCH   8   9
ATOM      9  C   UNL     1      45.755   4.281   8.053  0.00  0.00    +0.000 C 
BRANCH   9  15
ATOM     10  C   UNL     1      46.892  -0.443   7.689  0.00  0.00    +0.000 C 
ATOM     11  C   UNL     1      46.837   0.902   7.028  0.00  0.00    +0.000 A 
ATOM     12  C   UNL     1      47.346   1.071   5.747  0.00  0.00    +0.000 A 
ATOM     13  C   UNL     1      47.428   2.357   5.230  0.00  0.00    +0.000 A 
ATOM     14  C   UNL     1      46.979   3.429   5.991  0.00  0.00    +0.000 A 
ATOM     15  C   UNL     1      46.389   3.183   7.226  0.00  0.00    +0.000 A 
ATOM     16  N   UNL     1      46.354   1.935   7.765  0.00  0.00    +0.000 NA
ENDBRANCH   9  15
ENDBRANCH   8   9
ENDBRANCH   2   8
ENDBRANCH   1   5
BRANCH   1  17
ATOM     17  N   UNL     1      47.465   6.117  14.388  0.00  0.00    +0.000 N 
ATOM     18  C   UNL     1      48.509   6.263  15.265  0.00  0.00    +0.000 C 
ATOM     19  O   UNL     1      48.818   5.366  16.049  0.00  0.00    +0.000 OA
ATOM     20  H   UNL     1      47.178   6.900  13.809  0.00  0.00    +0.000 HD
BRANCH  18  21
ATOM     21  C   UNL     1      49.265   7.527  15.225  0.00  0.00    +0.000 A 
ATOM     22  C   UNL     1      49.545   8.179  16.422  0.00  0.00    +0.000 A 
ATOM     23  S   UNL     1      50.446   9.612  16.238  0.00  0.00    +0.000 S 
ATOM     24  C   UNL     1      50.490   9.430  14.548  0.00  0.00    +0.000 A 
ATOM     25  N   UNL     1      51.127  10.347  13.772  0.00  0.00    +0.000 NA
ATOM     26  C   UNL     1      51.095  10.090  12.506  0.00  0.00    +0.000 A 
ATOM     27  N   UNL     1      50.482   9.000  11.949  0.00  0.00    +0.000 N 
ATOM     28  C   UNL     1      49.823   8.051  12.691  0.00  0.00    +0.000 A 
ATOM     29  O   UNL     1      49.275   7.089  12.155  0.00  0.00    +0.000 OA
ATOM     30  C   UNL     1      49.828   8.286  14.126  0.00  0.00    +0.000 A 
ATOM     31  H   UNL     1      50.492   8.854  10.951  0.00  0.00    +0.000 HD
ENDBRANCH  18  21
ENDBRANCH   1  17
TORSDOF 6
ENDMDL
MODEL 7
REMARK VINA RESULT:    -7.181      2.979      5.371
REMARK INTER + INTRA:         -10.666
REMARK INTER:                  -9.674
REMARK INTRA:                  -0.992
REMARK UNBOUND:                -0.967
REMARK  Name = 
REMARK  7 active torsions:
REMARK  status: ('A' for Active; 'I' for Inactive)
REMARK    1  A    between atoms: C_1  and  C_2
REMARK    2  A    between atoms: C_6  and  C_7
REMARK    3  A    between atoms: C_7  and  C_8
REMARK    4  A    between atoms: C_8  and  C_9
REMARK    5  A    between atoms: C_12  and  C_13
REMARK    6  A    between atoms: C_13  and  N_14
REMARK    7  A    between atoms: C_15  and  C_17
REMARK                            x       y       z     vdW  Elec       q    Type
REMARK                         _______ _______ _______ _____ _____    ______ ____
ROOT
ATOM      1  C   UNL     1      46.850   4.053  14.915  0.00  0.00    +0.000 C 
ENDROOT
BRANCH   1   5
ATOM      2  C   UNL     1      45.659   5.187  10.998  0.00  0.00    +0.000 A 
ATOM      3  C   UNL     1      46.371   6.107  11.760  0.00  0.00    +0.000 A 
ATOM      4  C   UNL     1      46.724   5.766  13.063  0.00  0.00    +0.000 A 
ATOM      5  C   UNL     1      46.347   4.527  13.584  0.00  0.00    +0.000 A 
ATOM      6  C   UNL     1      45.560   3.713  12.779  0.00  0.00    +0.000 A 
ATOM      7  N   UNL     1      45.205   4.016  11.509  0.00  0.00    +0.000 NA
BRANCH   2   8
ATOM      8  C   UNL     1      45.473   5.393   9.514  0.00  0.00    +0.000 C 
BRANCH   8   9
ATOM      9  C   UNL     1      44.659   4.274   8.836  0.00  0.00    +0.000 C 
BRANCH   9  15
ATOM     10  C   UNL     1      47.376   2.891   5.034  0.00  0.00    +0.000 C 
ATOM     11  C   UNL     1      46.817   2.550   6.383  0.00  0.00    +0.000 A 
ATOM     12  C   UNL     1      47.029   1.291   6.928  0.00  0.00    +0.000 A 
ATOM     13  C   UNL     1      46.364   0.954   8.099  0.00  0.00    +0.000 A 
ATOM     14  C   UNL     1      45.531   1.887   8.704  0.00  0.00    +0.000 A 
ATOM     15  C   UNL     1      45.437   3.164   8.162  0.00  0.00    +0.000 A 
ATOM     16  N   UNL     1      46.041   3.487   6.987  0.00  0.00    +0.000 NA
ENDBRANCH   9  15
ENDBRANCH   8   9
ENDBRANCH   2   8
ENDBRANCH   1   5
BRANCH   1  17
ATOM     17  N   UNL     1      47.383   5.150  15.695  0.00  0.00    +0.000 N 
ATOM     18  C   UNL     1      48.419   4.993  16.579  0.00  0.00    +0.000 C 
ATOM     19  O   UNL     1      48.977   3.907  16.726  0.00  0.00    +0.000 OA
ATOM     20  H   UNL     1      46.884   6.033  15.652  0.00  0.00    +0.000 HD
BRANCH  18  21
ATOM     21  C   UNL     1      48.856   6.178  17.339  0.00  0.00    +0.000 A 
ATOM     22  C   UNL     1      48.795   6.143  18.728  0.00  0.00    +0.000 A 
ATOM     23  S   UNL     1      49.354   7.563  19.484  0.00  0.00    +0.000 S 
ATOM     24  C   UNL     1      49.690   8.291  17.984  0.00  0.00    +0.000 A 
ATOM     25  N   UNL     1      50.203   9.549  17.928  0.00  0.00    +0.000 NA
ATOM     26  C   UNL     1      50.421   9.984  16.731  0.00  0.00    +0.000 A 
ATOM     27  N   UNL     1      50.169   9.274  15.587  0.00  0.00    +0.000 N 
ATOM     28  C   UNL     1      49.647   8.005  15.594  0.00  0.00    +0.000 A 
ATOM     29  O   UNL     1      49.424   7.400  14.546  0.00  0.00    +0.000 OA
ATOM     30  C   UNL     1      49.383   7.460  16.917  0.00  0.00    +0.000 A 
ATOM     31  H   UNL     1      50.361   9.670  14.680  0.00  0.00    +0.000 HD
ENDBRANCH  18  21
ENDBRANCH   1  17
TORSDOF 6
ENDMDL
MODEL 8
REMARK VINA RESULT:    -6.992      3.627      6.331
REMARK INTER + INTRA:         -10.411
REMARK INTER:                  -9.284
REMARK INTRA:                  -1.127
REMARK UNBOUND:                -0.967
REMARK  Name = 
REMARK  7 active torsions:
REMARK  status: ('A' for Active; 'I' for Inactive)
REMARK    1  A    between atoms: C_1  and  C_2
REMARK    2  A    between atoms: C_6  and  C_7
REMARK    3  A    between atoms: C_7  and  C_8
REMARK    4  A    between atoms: C_8  and  C_9
REMARK    5  A    between atoms: C_12  and  C_13
REMARK    6  A    between atoms: C_13  and  N_14
REMARK    7  A    between atoms: C_15  and  C_17
REMARK                            x       y       z     vdW  Elec       q    Type
REMARK                         _______ _______ _______ _____ _____    ______ ____
ROOT
ATOM      1  C   UNL     1      48.400   6.571  13.591  0.00  0.00    +0.000 C 
ENDROOT
BRANCH   1   5
ATOM      2  C   UNL     1      44.778   5.312  11.764  0.00  0.00    +0.000 A 
ATOM      3  C   UNL     1      45.252   6.586  11.474  0.00  0.00    +0.000 A 
ATOM      4  C   UNL     1      46.410   7.029  12.104  0.00  0.00    +0.000 A 
ATOM      5  C   UNL     1      47.062   6.203  13.021  0.00  0.00    +0.000 A 
ATOM      6  C   UNL     1      46.465   4.984  13.313  0.00  0.00    +0.000 A 
ATOM      7  N   UNL     1      45.341   4.526  12.715  0.00  0.00    +0.000 NA
BRANCH   2   8
ATOM      8  C   UNL     1      43.685   4.685  10.932  0.00  0.00    +0.000 C 
BRANCH   8   9
ATOM      9  C   UNL     1      44.022   3.262  10.447  0.00  0.00    +0.000 C 
BRANCH   9  15
ATOM     10  C   UNL     1      46.802   0.317   7.737  0.00  0.00    +0.000 C 
ATOM     11  C   UNL     1      46.262   1.698   7.961  0.00  0.00    +0.000 A 
ATOM     12  C   UNL     1      46.676   2.749   7.154  0.00  0.00    +0.000 A 
ATOM     13  C   UNL     1      46.285   4.037   7.489  0.00  0.00    +0.000 A 
ATOM     14  C   UNL     1      45.475   4.238   8.600  0.00  0.00    +0.000 A 
ATOM     15  C   UNL     1      45.014   3.135   9.311  0.00  0.00    +0.000 A 
ATOM     16  N   UNL     1      45.435   1.874   9.023  0.00  0.00    +0.000 NA
ENDBRANCH   9  15
ENDBRANCH   8   9
ENDBRANCH   2   8
ENDBRANCH   1   5
BRANCH   1  17
ATOM     17  N   UNL     1      49.127   7.449  12.698  0.00  0.00    +0.000 N 
ATOM     18  C   UNL     1      50.122   8.286  13.133  0.00  0.00    +0.000 C 
ATOM     19  O   UNL     1      50.475   8.305  14.311  0.00  0.00    +0.000 OA
ATOM     20  H   UNL     1      48.797   7.510  11.739  0.00  0.00    +0.000 HD
BRANCH  18  21
ATOM     21  C   UNL     1      50.770   9.155  12.134  0.00  0.00    +0.000 A 
ATOM     22  C   UNL     1      52.143   9.047  11.941  0.00  0.00    +0.000 A 
ATOM     23  S   UNL     1      52.760  10.086  10.741  0.00  0.00    +0.000 S 
ATOM     24  C   UNL     1      51.219  10.736  10.437  0.00  0.00    +0.000 A 
ATOM     25  N   UNL     1      51.051  11.701   9.494  0.00  0.00    +0.000 NA
ATOM     26  C   UNL     1      49.831  12.104   9.354  0.00  0.00    +0.000 A 
ATOM     27  N   UNL     1      48.767  11.630  10.073  0.00  0.00    +0.000 N 
ATOM     28  C   UNL     1      48.888  10.660  11.036  0.00  0.00    +0.000 A 
ATOM     29  O   UNL     1      47.911  10.264  11.670  0.00  0.00    +0.000 OA
ATOM     30  C   UNL     1      50.241  10.164  11.238  0.00  0.00    +0.000 A 
ATOM     31  H   UNL     1      47.837  11.985   9.916  0.00  0.00    +0.000 HD
ENDBRANCH  18  21
ENDBRANCH   1  17
TORSDOF 6
ENDMDL
MODEL 9
REMARK VINA RESULT:    -6.956      3.279      5.552
REMARK INTER + INTRA:         -10.363
REMARK INTER:                  -9.459
REMARK INTRA:                  -0.904
REMARK UNBOUND:                -0.967
REMARK  Name = 
REMARK  7 active torsions:
REMARK  status: ('A' for Active; 'I' for Inactive)
REMARK    1  A    between atoms: C_1  and  C_2
REMARK    2  A    between atoms: C_6  and  C_7
REMARK    3  A    between atoms: C_7  and  C_8
REMARK    4  A    between atoms: C_8  and  C_9
REMARK    5  A    between atoms: C_12  and  C_13
REMARK    6  A    between atoms: C_13  and  N_14
REMARK    7  A    between atoms: C_15  and  C_17
REMARK                            x       y       z     vdW  Elec       q    Type
REMARK                         _______ _______ _______ _____ _____    ______ ____
ROOT
ATOM      1  C   UNL     1      47.719   5.679  14.423  0.00  0.00    +0.000 C 
ENDROOT
BRANCH   1   5
ATOM      2  C   UNL     1      44.790   4.993  11.424  0.00  0.00    +0.000 A 
ATOM      3  C   UNL     1      45.703   6.023  11.226  0.00  0.00    +0.000 A 
ATOM      4  C   UNL     1      46.636   6.290  12.224  0.00  0.00    +0.000 A 
ATOM      5  C   UNL     1      46.630   5.540  13.401  0.00  0.00    +0.000 A 
ATOM      6  C   UNL     1      45.624   4.592  13.545  0.00  0.00    +0.000 A 
ATOM      7  N   UNL     1      44.706   4.309  12.592  0.00  0.00    +0.000 NA
BRANCH   2   8
ATOM      8  C   UNL     1      43.932   4.493  10.286  0.00  0.00    +0.000 C 
BRANCH   8   9
ATOM      9  C   UNL     1      44.216   3.029   9.899  0.00  0.00    +0.000 C 
BRANCH   9  15
ATOM     10  C   UNL     1      47.013  -0.194   7.547  0.00  0.00    +0.000 C 
ATOM     11  C   UNL     1      46.511   1.216   7.644  0.00  0.00    +0.000 A 
ATOM     12  C   UNL     1      46.997   2.190   6.782  0.00  0.00    +0.000 A 
ATOM     13  C   UNL     1      46.637   3.511   7.004  0.00  0.00    +0.000 A 
ATOM     14  C   UNL     1      45.784   3.819   8.058  0.00  0.00    +0.000 A 
ATOM     15  C   UNL     1      45.253   2.787   8.824  0.00  0.00    +0.000 A 
ATOM     16  N   UNL     1      45.643   1.496   8.649  0.00  0.00    +0.000 NA
ENDBRANCH   9  15
ENDBRANCH   8   9
ENDBRANCH   2   8
ENDBRANCH   1   5
BRANCH   1  17
ATOM     17  N   UNL     1      48.039   7.071  14.661  0.00  0.00    +0.000 N 
ATOM     18  C   UNL     1      49.243   7.474  15.178  0.00  0.00    +0.000 C 
ATOM     19  O   UNL     1      50.135   6.666  15.432  0.00  0.00    +0.000 OA
ATOM     20  H   UNL     1      47.290   7.746  14.537  0.00  0.00    +0.000 HD
BRANCH  18  21
ATOM     21  C   UNL     1      49.442   8.917  15.405  0.00  0.00    +0.000 A 
ATOM     22  C   UNL     1      50.179   9.646  14.477  0.00  0.00    +0.000 A 
ATOM     23  S   UNL     1      50.310  11.304  14.842  0.00  0.00    +0.000 S 
ATOM     24  C   UNL     1      49.396  11.116  16.264  0.00  0.00    +0.000 A 
ATOM     25  N   UNL     1      49.135  12.186  17.062  0.00  0.00    +0.000 NA
ATOM     26  C   UNL     1      48.425  11.912  18.107  0.00  0.00    +0.000 A 
ATOM     27  N   UNL     1      47.956  10.666  18.424  0.00  0.00    +0.000 N 
ATOM     28  C   UNL     1      48.197   9.557  17.652  0.00  0.00    +0.000 A 
ATOM     29  O   UNL     1      47.768   8.450  17.973  0.00  0.00    +0.000 OA
ATOM     30  C   UNL     1      48.991   9.804  16.458  0.00  0.00    +0.000 A 
ATOM     31  H   UNL     1      47.405  10.516  19.255  0.00  0.00    +0.000 HD
ENDBRANCH  18  21
ENDBRANCH   1  17
TORSDOF 6
ENDMDL
