MODEL 1
REMARK VINA RESULT:    -7.849      0.000      0.000
REMARK INTER + INTRA:         -12.852
REMARK INTER:                 -11.520
REMARK INTRA:                  -1.331
REMARK UNBOUND:                -1.331
REMARK  Name = 
REMARK  10 active torsions:
REMARK  status: ('A' for Active; 'I' for Inactive)
REMARK    1  A    between atoms: C_1  and  C_2
REMARK    2  A    between atoms: C_2  and  C_3
REMARK    3  A    between atoms: C_2  and  N_10
REMARK    4  A    between atoms: C_3  and  C_4
REMARK    5  A    between atoms: N_10  and  C_11
REMARK    6  A    between atoms: N_10  and  C_12
REMARK    7  A    between atoms: C_12  and  C_13
REMARK    8  A    between atoms: C_16  and  C_17
REMARK    9  A    between atoms: C_17  and  N_18
REMARK   10  A    between atoms: C_19  and  C_21
REMARK                            x       y       z     vdW  Elec       q    Type
REMARK                         _______ _______ _______ _____ _____    ______ ____
ROOT
ATOM      1  C   UNL     1      45.241   6.572  11.415  0.00  0.00    +0.000 A 
ATOM      2  C   UNL     1      44.887   7.724  12.130  0.00  0.00    +0.000 A 
ATOM      3  C   UNL     1      45.797   8.367  12.961  0.00  0.00    +0.000 A 
ATOM      4  C   UNL     1      47.061   7.818  13.170  0.00  0.00    +0.000 A 
ATOM      5  C   UNL     1      47.361   6.575  12.599  0.00  0.00    +0.000 A 
ATOM      6  C   UNL     1      46.468   5.967  11.714  0.00  0.00    +0.000 A 
ENDROOT
BRANCH   1   7
ATOM      7  C   UNL     1      44.358   6.018  10.308  0.00  0.00    +0.000 C 
BRANCH   7   8
ATOM      8  N   UNL     1      43.566   4.801  10.640  0.00  0.00    +0.000 NA
ATOM      9  C   UNL     1      42.671   5.091  11.770  0.00  0.00    +0.000 C 
BRANCH   8  11
ATOM     10  C   UNL     1      43.972   2.809  12.146  0.00  0.00    +0.000 C 
ATOM     11  C   UNL     1      44.370   3.562  10.859  0.00  0.00    +0.000 C 
BRANCH  11  12
ATOM     12  C   UNL     1      44.269   2.562   9.665  0.00  0.00    +0.000 C 
BRANCH  12  13
ATOM     13  C   UNL     1      45.393   2.589   8.641  0.00  0.00    +0.000 A 
ATOM     14  C   UNL     1      46.062   1.394   8.351  0.00  0.00    +0.000 A 
ATOM     15  C   UNL     1      47.063   1.358   7.378  0.00  0.00    +0.000 A 
ATOM     16  C   UNL     1      47.397   2.510   6.672  0.00  0.00    +0.000 A 
ATOM     17  C   UNL     1      46.725   3.701   6.934  0.00  0.00    +0.000 A 
ATOM     18  C   UNL     1      45.722   3.738   7.905  0.00  0.00    +0.000 A 
ENDBRANCH  12  13
ENDBRANCH  11  12
ENDBRANCH   8  11
ENDBRANCH   7   8
ENDBRANCH   1   7
BRANCH   4  19
ATOM     19  C   UNL     1      48.048   8.522  14.055  0.00  0.00    +0.000 C 
BRANCH  19  20
ATOM     20  N   UNL     1      48.305   7.730  15.222  0.00  0.00    +0.000 N 
ATOM     21  C   UNL     1      49.539   7.200  15.474  0.00  0.00    +0.000 C 
ATOM     22  O   UNL     1      50.505   7.407  14.743  0.00  0.00    +0.000 OA
ATOM     23  H   UNL     1      47.491   7.379  15.718  0.00  0.00    +0.000 HD
BRANCH  21  24
ATOM     24  C   UNL     1      49.654   6.409  16.705  0.00  0.00    +0.000 A 
ATOM     25  C   UNL     1      50.525   6.823  17.703  0.00  0.00    +0.000 A 
ATOM     26  S   UNL     1      50.480   5.842  19.097  0.00  0.00    +0.000 S 
ATOM     27  C   UNL     1      49.332   4.794  18.395  0.00  0.00    +0.000 A 
ATOM     28  N   UNL     1      48.864   3.718  19.074  0.00  0.00    +0.000 NA
ATOM     29  C   UNL     1      48.019   2.999  18.414  0.00  0.00    +0.000 A 
ATOM     30  N   UNL     1      47.599   3.261  17.135  0.00  0.00    +0.000 N 
ATOM     31  C   UNL     1      48.033   4.350  16.420  0.00  0.00    +0.000 A 
ATOM     32  O   UNL     1      47.621   4.567  15.284  0.00  0.00    +0.000 OA
ATOM     33  C   UNL     1      48.983   5.195  17.120  0.00  0.00    +0.000 A 
ATOM     34  H   UNL     1      46.934   2.660  16.673  0.00  0.00    +0.000 HD
ENDBRANCH  21  24
ENDBRANCH  19  20
ENDBRANCH   4  19
TORSDOF 8
ENDMDL
MODEL 2
REMARK VINA RESULT:    -7.787      3.637      9.770
REMARK INTER + INTRA:         -12.760
REMARK INTER:                  -9.928
REMARK INTRA:                  -2.833
REMARK UNBOUND:                -1.331
REMARK  Name = 
REMARK  10 active torsions:
REMARK  status: ('A' for Active; 'I' for Inactive)
REMARK    1  A    between atoms: C_1  and  C_2
REMARK    2  A    between atoms: C_2  and  C_3
REMARK    3  A    between atoms: C_2  and  N_10
REMARK    4  A    between atoms: C_3  and  C_4
REMARK    5  A    between atoms: N_10  and  C_11
REMARK    6  A    between atoms: N_10  and  C_12
REMARK    7  A    between atoms: C_12  and  C_13
REMARK    8  A    between atoms: C_16  and  C_17
REMARK    9  A    between atoms: C_17  and  N_18
REMARK   10  A    between atoms: C_19  and  C_21
REMARK                            x       y       z     vdW  Elec       q    Type
REMARK                         _______ _______ _______ _____ _____    ______ ____
ROOT
ATOM      1  C   UNL     1      51.460   4.542  17.731  0.00  0.00    +0.000 A 
ATOM      2  C   UNL     1      50.598   5.525  17.229  0.00  0.00    +0.000 A 
ATOM      3  C   UNL     1      49.268   5.240  16.936  0.00  0.00    +0.000 A 
ATOM      4  C   UNL     1      48.793   3.934  17.051  0.00  0.00    +0.000 A 
ATOM      5  C   UNL     1      49.693   2.914  17.381  0.00  0.00    +0.000 A 
ATOM      6  C   UNL     1      51.009   3.217  17.738  0.00  0.00    +0.000 A 
ENDROOT
BRANCH   1   7
ATOM      7  C   UNL     1      52.823   4.895  18.304  0.00  0.00    +0.000 C 
BRANCH   7   8
ATOM      8  N   UNL     1      52.835   5.484  19.672  0.00  0.00    +0.000 NA
ATOM      9  C   UNL     1      54.200   5.916  20.009  0.00  0.00    +0.000 C 
BRANCH   8  11
ATOM     10  C   UNL     1      53.291   4.021  21.684  0.00  0.00    +0.000 C 
ATOM     11  C   UNL     1      52.235   4.625  20.735  0.00  0.00    +0.000 C 
BRANCH  11  12
ATOM     12  C   UNL     1      51.188   5.390  21.605  0.00  0.00    +0.000 C 
BRANCH  12  13
ATOM     13  C   UNL     1      49.934   5.885  20.903  0.00  0.00    +0.000 A 
ATOM     14  C   UNL     1      48.842   5.015  20.792  0.00  0.00    +0.000 A 
ATOM     15  C   UNL     1      47.650   5.442  20.204  0.00  0.00    +0.000 A 
ATOM     16  C   UNL     1      47.526   6.747  19.737  0.00  0.00    +0.000 A 
ATOM     17  C   UNL     1      48.595   7.631  19.862  0.00  0.00    +0.000 A 
ATOM     18  C   UNL     1      49.787   7.205  20.450  0.00  0.00    +0.000 A 
ENDBRANCH  12  13
ENDBRANCH  11  12
ENDBRANCH   8  11
ENDBRANCH   7   8
ENDBRANCH   1   7
BRANCH   4  19
ATOM     19  C   UNL     1      47.354   3.631  16.750  0.00  0.00    +0.000 C 
BRANCH  19  20
ATOM     20  N   UNL     1      46.855   4.562  15.780  0.00  0.00    +0.000 N 
ATOM     21  C   UNL     1      46.847   4.273  14.444  0.00  0.00    +0.000 C 
ATOM     22  O   UNL     1      47.225   3.190  14.004  0.00  0.00    +0.000 OA
ATOM     23  H   UNL     1      46.737   5.521  16.092  0.00  0.00    +0.000 HD
BRANCH  21  24
ATOM     24  C   UNL     1      46.310   5.321  13.568  0.00  0.00    +0.000 A 
ATOM     25  C   UNL     1      47.082   6.439  13.287  0.00  0.00    +0.000 A 
ATOM     26  S   UNL     1      46.345   7.518  12.192  0.00  0.00    +0.000 S 
ATOM     27  C   UNL     1      44.940   6.556  12.096  0.00  0.00    +0.000 A 
ATOM     28  N   UNL     1      43.895   6.926  11.316  0.00  0.00    +0.000 NA
ATOM     29  C   UNL     1      42.889   6.118  11.357  0.00  0.00    +0.000 A 
ATOM     30  N   UNL     1      42.836   4.972  12.108  0.00  0.00    +0.000 N 
ATOM     31  C   UNL     1      43.879   4.551  12.895  0.00  0.00    +0.000 A 
ATOM     32  O   UNL     1      43.806   3.508  13.539  0.00  0.00    +0.000 OA
ATOM     33  C   UNL     1      45.039   5.424  12.881  0.00  0.00    +0.000 A 
ATOM     34  H   UNL     1      42.020   4.380  12.096  0.00  0.00    +0.000 HD
ENDBRANCH  21  24
ENDBRANCH  19  20
ENDBRANCH   4  19
TORSDOF 8
ENDMDL
MODEL 3
REMARK VINA RESULT:    -7.487      5.137      6.907
REMARK INTER + INTRA:         -12.320
REMARK INTER:                 -11.146
REMARK INTRA:                  -1.174
REMARK UNBOUND:                -1.331
REMARK  Name = 
REMARK  10 active torsions:
REMARK  status: ('A' for Active; 'I' for Inactive)
REMARK    1  A    between atoms: C_1  and  C_2
REMARK    2  A    between atoms: C_2  and  C_3
REMARK    3  A    between atoms: C_2  and  N_10
REMARK    4  A    between atoms: C_3  and  C_4
REMARK    5  A    between atoms: N_10  and  C_11
REMARK    6  A    between atoms: N_10  and  C_12
REMARK    7  A    between atoms: C_12  and  C_13
REMARK    8  A    between atoms: C_16  and  C_17
REMARK    9  A    between atoms: C_17  and  N_18
REMARK   10  A    between atoms: C_19  and  C_21
REMARK                            x       y       z     vdW  Elec       q    Type
REMARK                         _______ _______ _______ _____ _____    ______ ____
ROOT
ATOM      1  C   UNL     1      46.790   5.874  12.991  0.00  0.00    +0.000 A 
ATOM      2  C   UNL     1      46.976   6.532  11.768  0.00  0.00    +0.000 A 
ATOM      3  C   UNL     1      48.144   7.235  11.495  0.00  0.00    +0.000 A 
ATOM      4  C   UNL     1      49.121   7.374  12.480  0.00  0.00    +0.000 A 
ATOM      5  C   UNL     1      48.867   6.870  13.761  0.00  0.00    +0.000 A 
ATOM      6  C   UNL     1      47.722   6.110  14.010  0.00  0.00    +0.000 A 
ENDROOT
BRANCH   1   7
ATOM      7  C   UNL     1      45.651   4.889  13.201  0.00  0.00    +0.000 C 
BRANCH   7   8
ATOM      8  N   UNL     1      44.557   4.916  12.191  0.00  0.00    +0.000 NA
ATOM      9  C   UNL     1      43.279   5.200  12.859  0.00  0.00    +0.000 C 
BRANCH   8  11
ATOM     10  C   UNL     1      43.310   2.776  11.679  0.00  0.00    +0.000 C 
ATOM     11  C   UNL     1      44.479   3.712  11.311  0.00  0.00    +0.000 C 
BRANCH  11  12
ATOM     12  C   UNL     1      44.344   4.081   9.800  0.00  0.00    +0.000 C 
BRANCH  12  13
ATOM     13  C   UNL     1      45.233   3.331   8.821  0.00  0.00    +0.000 A 
ATOM     14  C   UNL     1      45.944   4.067   7.865  0.00  0.00    +0.000 A 
ATOM     15  C   UNL     1      46.816   3.427   6.980  0.00  0.00    +0.000 A 
ATOM     16  C   UNL     1      47.001   2.050   7.051  0.00  0.00    +0.000 A 
ATOM     17  C   UNL     1      46.319   1.308   8.012  0.00  0.00    +0.000 A 
ATOM     18  C   UNL     1      45.448   1.946   8.898  0.00  0.00    +0.000 A 
ENDBRANCH  12  13
ENDBRANCH  11  12
ENDBRANCH   8  11
ENDBRANCH   7   8
ENDBRANCH   1   7
BRANCH   4  19
ATOM     19  C   UNL     1      50.389   8.119  12.178  0.00  0.00    +0.000 C 
BRANCH  19  20
ATOM     20  N   UNL     1      51.035   7.535  11.039  0.00  0.00    +0.000 N 
ATOM     21  C   UNL     1      52.294   7.907  10.658  0.00  0.00    +0.000 C 
ATOM     22  O   UNL     1      52.958   8.725  11.290  0.00  0.00    +0.000 OA
ATOM     23  H   UNL     1      50.440   7.025  10.394  0.00  0.00    +0.000 HD
BRANCH  21  24
ATOM     24  C   UNL     1      52.827   7.227   9.471  0.00  0.00    +0.000 A 
ATOM     25  C   UNL     1      53.199   5.893   9.559  0.00  0.00    +0.000 A 
ATOM     26  S   UNL     1      53.721   5.232   8.076  0.00  0.00    +0.000 S 
ATOM     27  C   UNL     1      53.521   6.724   7.273  0.00  0.00    +0.000 A 
ATOM     28  N   UNL     1      53.805   6.848   5.953  0.00  0.00    +0.000 NA
ATOM     29  C   UNL     1      53.631   8.036   5.481  0.00  0.00    +0.000 A 
ATOM     30  N   UNL     1      53.197   9.112   6.211  0.00  0.00    +0.000 N 
ATOM     31  C   UNL     1      52.879   9.026   7.544  0.00  0.00    +0.000 A 
ATOM     32  O   UNL     1      52.472  10.005   8.163  0.00  0.00    +0.000 OA
ATOM     33  C   UNL     1      53.053   7.706   8.124  0.00  0.00    +0.000 A 
ATOM     34  H   UNL     1      53.079  10.017   5.783  0.00  0.00    +0.000 HD
ENDBRANCH  21  24
ENDBRANCH  19  20
ENDBRANCH   4  19
TORSDOF 8
ENDMDL
MODEL 4
REMARK VINA RESULT:    -7.474      3.088      8.256
REMARK INTER + INTRA:         -12.301
REMARK INTER:                 -10.441
REMARK INTRA:                  -1.860
REMARK UNBOUND:                -1.331
REMARK  Name = 
REMARK  10 active torsions:
REMARK  status: ('A' for Active; 'I' for Inactive)
REMARK    1  A    between atoms: C_1  and  C_2
REMARK    2  A    between atoms: C_2  and  C_3
REMARK    3  A    between atoms: C_2  and  N_10
REMARK    4  A    between atoms: C_3  and  C_4
REMARK    5  A    between atoms: N_10  and  C_11
REMARK    6  A    between atoms: N_10  and  C_12
REMARK    7  A    between atoms: C_12  and  C_13
REMARK    8  A    between atoms: C_16  and  C_17
REMARK    9  A    between atoms: C_17  and  N_18
REMARK   10  A    between atoms: C_19  and  C_21
REMARK                            x       y       z     vdW  Elec       q    Type
REMARK                         _______ _______ _______ _____ _____    ______ ____
ROOT
ATOM      1  C   UNL     1      48.863   8.173  16.266  0.00  0.00    +0.000 A 
ATOM      2  C   UNL     1      48.464   9.310  15.552  0.00  0.00    +0.000 A 
ATOM      3  C   UNL     1      48.035   9.221  14.232  0.00  0.00    +0.000 A 
ATOM      4  C   UNL     1      48.083   7.998  13.564  0.00  0.00    +0.000 A 
ATOM      5  C   UNL     1      48.646   6.894  14.214  0.00  0.00    +0.000 A 
ATOM      6  C   UNL     1      49.014   6.974  15.559  0.00  0.00    +0.000 A 
ENDROOT
BRANCH   1   7
ATOM      7  C   UNL     1      49.075   8.211  17.771  0.00  0.00    +0.000 C 
BRANCH   7   8
ATOM      8  N   UNL     1      47.897   7.867  18.615  0.00  0.00    +0.000 NA
ATOM      9  C   UNL     1      47.609   8.980  19.533  0.00  0.00    +0.000 C 
BRANCH   8  11
ATOM     10  C   UNL     1      47.422   6.613  20.760  0.00  0.00    +0.000 C 
ATOM     11  C   UNL     1      47.988   6.558  19.326  0.00  0.00    +0.000 C 
BRANCH  11  12
ATOM     12  C   UNL     1      47.257   5.408  18.563  0.00  0.00    +0.000 C 
BRANCH  12  13
ATOM     13  C   UNL     1      48.126   4.335  17.928  0.00  0.00    +0.000 A 
ATOM     14  C   UNL     1      49.491   4.308  18.242  0.00  0.00    +0.000 A 
ATOM     15  C   UNL     1      50.319   3.308  17.727  0.00  0.00    +0.000 A 
ATOM     16  C   UNL     1      49.792   2.314  16.908  0.00  0.00    +0.000 A 
ATOM     17  C   UNL     1      48.433   2.315  16.606  0.00  0.00    +0.000 A 
ATOM     18  C   UNL     1      47.604   3.313  17.121  0.00  0.00    +0.000 A 
ENDBRANCH  12  13
ENDBRANCH  11  12
ENDBRANCH   8  11
ENDBRANCH   7   8
ENDBRANCH   1   7
BRANCH   4  19
ATOM     19  C   UNL     1      47.604   7.900  12.144  0.00  0.00    +0.000 C 
BRANCH  19  20
ATOM     20  N   UNL     1      46.903   6.664  11.953  0.00  0.00    +0.000 N 
ATOM     21  C   UNL     1      45.574   6.632  11.637  0.00  0.00    +0.000 C 
ATOM     22  O   UNL     1      44.917   7.655  11.456  0.00  0.00    +0.000 OA
ATOM     23  H   UNL     1      47.363   5.826  12.295  0.00  0.00    +0.000 HD
BRANCH  21  24
ATOM     24  C   UNL     1      44.989   5.297  11.473  0.00  0.00    +0.000 A 
ATOM     25  C   UNL     1      44.310   4.714  12.533  0.00  0.00    +0.000 A 
ATOM     26  S   UNL     1      43.623   3.201  12.154  0.00  0.00    +0.000 S 
ATOM     27  C   UNL     1      44.257   3.243  10.571  0.00  0.00    +0.000 A 
ATOM     28  N   UNL     1      44.036   2.223   9.705  0.00  0.00    +0.000 NA
ATOM     29  C   UNL     1      44.594   2.376   8.551  0.00  0.00    +0.000 A 
ATOM     30  N   UNL     1      45.352   3.458   8.185  0.00  0.00    +0.000 N 
ATOM     31  C   UNL     1      45.583   4.520   9.024  0.00  0.00    +0.000 A 
ATOM     32  O   UNL     1      46.249   5.484   8.657  0.00  0.00    +0.000 OA
ATOM     33  C   UNL     1      44.973   4.400  10.335  0.00  0.00    +0.000 A 
ATOM     34  H   UNL     1      45.761   3.519   7.266  0.00  0.00    +0.000 HD
ENDBRANCH  21  24
ENDBRANCH  19  20
ENDBRANCH   4  19
TORSDOF 8
ENDMDL
MODEL 5
REMARK VINA RESULT:    -7.312      2.407      2.870
REMARK INTER + INTRA:         -12.063
REMARK INTER:                 -10.847
REMARK INTRA:                  -1.217
REMARK UNBOUND:                -1.331
REMARK  Name = 
REMARK  10 active torsions:
REMARK  status: ('A' for Active; 'I' for Inactive)
REMARK    1  A    between atoms: C_1  and  C_2
REMARK    2  A    between atoms: C_2  and  C_3
REMARK    3  A    between atoms: C_2  and  N_10
REMARK    4  A    between atoms: C_3  and  C_4
REMARK    5  A    between atoms: N_10  and  C_11
REMARK    6  A    between atoms: N_10  and  C_12
REMARK    7  A    between atoms: C_12  and  C_13
REMARK    8  A    between atoms: C_16  and  C_17
REMARK    9  A    between atoms: C_17  and  N_18
REMARK   10  A    between atoms: C_19  and  C_21
REMARK                            x       y       z     vdW  Elec       q    Type
REMARK                         _______ _______ _______ _____ _____    ______ ____
ROOT
ATOM      1  C   UNL     1      45.978   5.539  13.348  0.00  0.00    +0.000 A 
ATOM      2  C   UNL     1      46.813   4.863  14.247  0.00  0.00    +0.000 A 
ATOM      3  C   UNL     1      47.910   5.492  14.827  0.00  0.00    +0.000 A 
ATOM      4  C   UNL     1      48.252   6.789  14.448  0.00  0.00    +0.000 A 
ATOM      5  C   UNL     1      47.528   7.407  13.421  0.00  0.00    +0.000 A 
ATOM      6  C   UNL     1      46.389   6.796  12.890  0.00  0.00    +0.000 A 
ENDROOT
BRANCH   1   7
ATOM      7  C   UNL     1      44.638   4.963  12.919  0.00  0.00    +0.000 C 
BRANCH   7   8
ATOM      8  N   UNL     1      44.411   4.836  11.452  0.00  0.00    +0.000 NA
ATOM      9  C   UNL     1      43.179   5.549  11.083  0.00  0.00    +0.000 C 
BRANCH   8  11
ATOM     10  C   UNL     1      43.421   2.516  11.633  0.00  0.00    +0.000 C 
ATOM     11  C   UNL     1      44.435   3.439  10.926  0.00  0.00    +0.000 C 
BRANCH  11  12
ATOM     12  C   UNL     1      44.160   3.370   9.391  0.00  0.00    +0.000 C 
BRANCH  12  13
ATOM     13  C   UNL     1      45.304   2.910   8.502  0.00  0.00    +0.000 A 
ATOM     14  C   UNL     1      45.959   3.861   7.710  0.00  0.00    +0.000 A 
ATOM     15  C   UNL     1      47.051   3.497   6.919  0.00  0.00    +0.000 A 
ATOM     16  C   UNL     1      47.512   2.184   6.922  0.00  0.00    +0.000 A 
ATOM     17  C   UNL     1      46.885   1.232   7.722  0.00  0.00    +0.000 A 
ATOM     18  C   UNL     1      45.795   1.595   8.515  0.00  0.00    +0.000 A 
ENDBRANCH  12  13
ENDBRANCH  11  12
ENDBRANCH   8  11
ENDBRANCH   7   8
ENDBRANCH   1   7
BRANCH   4  19
ATOM     19  C   UNL     1      49.427   7.472  15.086  0.00  0.00    +0.000 C 
BRANCH  19  20
ATOM     20  N   UNL     1      49.195   7.620  16.494  0.00  0.00    +0.000 N 
ATOM     21  C   UNL     1      48.424   8.631  16.993  0.00  0.00    +0.000 C 
ATOM     22  O   UNL     1      47.852   9.442  16.268  0.00  0.00    +0.000 OA
ATOM     23  H   UNL     1      49.813   7.101  17.111  0.00  0.00    +0.000 HD
BRANCH  21  24
ATOM     24  C   UNL     1      48.276   8.660  18.453  0.00  0.00    +0.000 A 
ATOM     25  C   UNL     1      48.515   9.841  19.140  0.00  0.00    +0.000 A 
ATOM     26  S   UNL     1      48.221   9.726  20.816  0.00  0.00    +0.000 S 
ATOM     27  C   UNL     1      47.816   8.074  20.692  0.00  0.00    +0.000 A 
ATOM     28  N   UNL     1      47.465   7.359  21.789  0.00  0.00    +0.000 NA
ATOM     29  C   UNL     1      47.207   6.116  21.553  0.00  0.00    +0.000 A 
ATOM     30  N   UNL     1      47.268   5.525  20.318  0.00  0.00    +0.000 N 
ATOM     31  C   UNL     1      47.600   6.217  19.179  0.00  0.00    +0.000 A 
ATOM     32  O   UNL     1      47.625   5.661  18.085  0.00  0.00    +0.000 OA
ATOM     33  C   UNL     1      47.895   7.622  19.389  0.00  0.00    +0.000 A 
ATOM     34  H   UNL     1      47.054   4.547  20.198  0.00  0.00    +0.000 HD
ENDBRANCH  21  24
ENDBRANCH  19  20
ENDBRANCH   4  19
TORSDOF 8
ENDMDL
MODEL 6
REMARK VINA RESULT:    -6.899      2.256      3.067
REMARK INTER + INTRA:         -11.457
REMARK INTER:                 -10.392
REMARK INTRA:                  -1.064
REMARK UNBOUND:                -1.331
REMARK  Name = 
REMARK  10 active torsions:
REMARK  status: ('A' for Active; 'I' for Inactive)
REMARK    1  A    between atoms: C_1  and  C_2
REMARK    2  A    between atoms: C_2  and  C_3
REMARK    3  A    between atoms: C_2  and  N_10
REMARK    4  A    between atoms: C_3  and  C_4
REMARK    5  A    between atoms: N_10  and  C_11
REMARK    6  A    between atoms: N_10  and  C_12
REMARK    7  A    between atoms: C_12  and  C_13
REMARK    8  A    between atoms: C_16  and  C_17
REMARK    9  A    between atoms: C_17  and  N_18
REMARK   10  A    between atoms: C_19  and  C_21
REMARK                            x       y       z     vdW  Elec       q    Type
REMARK                         _______ _______ _______ _____ _____    ______ ____
ROOT
ATOM      1  C   UNL     1      46.123   7.402  12.148  0.00  0.00    +0.000 A 
ATOM      2  C   UNL     1      46.196   8.283  13.235  0.00  0.00    +0.000 A 
ATOM      3  C   UNL     1      47.417   8.630  13.803  0.00  0.00    +0.000 A 
ATOM      4  C   UNL     1      48.591   8.028  13.355  0.00  0.00    +0.000 A 
ATOM      5  C   UNL     1      48.508   7.017  12.391  0.00  0.00    +0.000 A 
ATOM      6  C   UNL     1      47.289   6.720  11.778  0.00  0.00    +0.000 A 
ENDROOT
BRANCH   1   7
ATOM      7  C   UNL     1      44.841   7.223  11.352  0.00  0.00    +0.000 C 
BRANCH   7   8
ATOM      8  N   UNL     1      44.150   5.911  11.493  0.00  0.00    +0.000 NA
ATOM      9  C   UNL     1      43.713   5.734  12.886  0.00  0.00    +0.000 C 
BRANCH   8  11
ATOM     10  C   UNL     1      45.104   3.637  12.055  0.00  0.00    +0.000 C 
ATOM     11  C   UNL     1      44.916   4.734  10.987  0.00  0.00    +0.000 C 
BRANCH  11  12
ATOM     12  C   UNL     1      44.253   4.079   9.735  0.00  0.00    +0.000 C 
BRANCH  12  13
ATOM     13  C   UNL     1      45.161   3.297   8.800  0.00  0.00    +0.000 A 
ATOM     14  C   UNL     1      45.918   4.003   7.857  0.00  0.00    +0.000 A 
ATOM     15  C   UNL     1      46.808   3.333   7.014  0.00  0.00    +0.000 A 
ATOM     16  C   UNL     1      46.965   1.954   7.113  0.00  0.00    +0.000 A 
ATOM     17  C   UNL     1      46.236   1.241   8.061  0.00  0.00    +0.000 A 
ATOM     18  C   UNL     1      45.347   1.909   8.906  0.00  0.00    +0.000 A 
ENDBRANCH  12  13
ENDBRANCH  11  12
ENDBRANCH   8  11
ENDBRANCH   7   8
ENDBRANCH   1   7
BRANCH   4  19
ATOM     19  C   UNL     1      49.910   8.416  13.959  0.00  0.00    +0.000 C 
BRANCH  19  20
ATOM     20  N   UNL     1      50.426   7.328  14.738  0.00  0.00    +0.000 N 
ATOM     21  C   UNL     1      50.301   7.296  16.099  0.00  0.00    +0.000 C 
ATOM     22  O   UNL     1      49.705   8.169  16.725  0.00  0.00    +0.000 OA
ATOM     23  H   UNL     1      51.090   6.716  14.275  0.00  0.00    +0.000 HD
BRANCH  21  24
ATOM     24  C   UNL     1      50.878   6.122  16.764  0.00  0.00    +0.000 A 
ATOM     25  C   UNL     1      50.036   5.174  17.328  0.00  0.00    +0.000 A 
ATOM     26  S   UNL     1      50.861   3.836  17.987  0.00  0.00    +0.000 S 
ATOM     27  C   UNL     1      52.381   4.502  17.592  0.00  0.00    +0.000 A 
ATOM     28  N   UNL     1      53.528   3.847  17.895  0.00  0.00    +0.000 NA
ATOM     29  C   UNL     1      54.604   4.477  17.560  0.00  0.00    +0.000 A 
ATOM     30  N   UNL     1      54.635   5.703  16.949  0.00  0.00    +0.000 N 
ATOM     31  C   UNL     1      53.496   6.391  16.606  0.00  0.00    +0.000 A 
ATOM     32  O   UNL     1      53.559   7.478  16.039  0.00  0.00    +0.000 OA
ATOM     33  C   UNL     1      52.256   5.722  16.957  0.00  0.00    +0.000 A 
ATOM     34  H   UNL     1      55.509   6.144  16.710  0.00  0.00    +0.000 HD
ENDBRANCH  21  24
ENDBRANCH  19  20
ENDBRANCH   4  19
TORSDOF 8
ENDMDL
MODEL 7
REMARK VINA RESULT:    -6.742      3.359      8.196
REMARK INTER + INTRA:         -11.227
REMARK INTER:                  -9.135
REMARK INTRA:                  -2.091
REMARK UNBOUND:                -1.331
REMARK  Name = 
REMARK  10 active torsions:
REMARK  status: ('A' for Active; 'I' for Inactive)
REMARK    1  A    between atoms: C_1  and  C_2
REMARK    2  A    between atoms: C_2  and  C_3
REMARK    3  A    between atoms: C_2  and  N_10
REMARK    4  A    between atoms: C_3  and  C_4
REMARK    5  A    between atoms: N_10  and  C_11
REMARK    6  A    between atoms: N_10  and  C_12
REMARK    7  A    between atoms: C_12  and  C_13
REMARK    8  A    between atoms: C_16  and  C_17
REMARK    9  A    between atoms: C_17  and  N_18
REMARK   10  A    between atoms: C_19  and  C_21
REMARK                            x       y       z     vdW  Elec       q    Type
REMARK                         _______ _______ _______ _____ _____    ______ ____
ROOT
ATOM      1  C   UNL     1      49.088   8.305  18.387  0.00  0.00    +0.000 A 
ATOM      2  C   UNL     1      48.199   9.244  17.849  0.00  0.00    +0.000 A 
ATOM      3  C   UNL     1      47.963   9.315  16.480  0.00  0.00    +0.000 A 
ATOM      4  C   UNL     1      48.685   8.505  15.605  0.00  0.00    +0.000 A 
ATOM      5  C   UNL     1      49.701   7.691  16.118  0.00  0.00    +0.000 A 
ATOM      6  C   UNL     1      49.888   7.576  17.498  0.00  0.00    +0.000 A 
ENDROOT
BRANCH   1   7
ATOM      7  C   UNL     1      49.155   8.035  19.881  0.00  0.00    +0.000 C 
BRANCH   7   8
ATOM      8  N   UNL     1      48.459   6.810  20.365  0.00  0.00    +0.000 NA
ATOM      9  C   UNL     1      47.676   7.133  21.567  0.00  0.00    +0.000 C 
BRANCH   8  11
ATOM     10  C   UNL     1      49.889   5.519  22.004  0.00  0.00    +0.000 C 
ATOM     11  C   UNL     1      49.339   5.621  20.566  0.00  0.00    +0.000 C 
BRANCH  11  12
ATOM     12  C   UNL     1      48.618   4.277  20.230  0.00  0.00    +0.000 C 
BRANCH  12  13
ATOM     13  C   UNL     1      48.415   3.949  18.760  0.00  0.00    +0.000 A 
ATOM     14  C   UNL     1      49.142   2.888  18.205  0.00  0.00    +0.000 A 
ATOM     15  C   UNL     1      48.948   2.514  16.873  0.00  0.00    +0.000 A 
ATOM     16  C   UNL     1      48.016   3.182  16.085  0.00  0.00    +0.000 A 
ATOM     17  C   UNL     1      47.270   4.224  16.629  0.00  0.00    +0.000 A 
ATOM     18  C   UNL     1      47.461   4.598  17.961  0.00  0.00    +0.000 A 
ENDBRANCH  12  13
ENDBRANCH  11  12
ENDBRANCH   8  11
ENDBRANCH   7   8
ENDBRANCH   1   7
BRANCH   4  19
ATOM     19  C   UNL     1      48.418   8.572  14.129  0.00  0.00    +0.000 C 
BRANCH  19  20
ATOM     20  N   UNL     1      47.406   7.618  13.776  0.00  0.00    +0.000 N 
ATOM     21  C   UNL     1      47.708   6.465  13.107  0.00  0.00    +0.000 C 
ATOM     22  O   UNL     1      48.860   6.159  12.810  0.00  0.00    +0.000 OA
ATOM     23  H   UNL     1      46.445   7.940  13.823  0.00  0.00    +0.000 HD
BRANCH  21  24
ATOM     24  C   UNL     1      46.572   5.584  12.811  0.00  0.00    +0.000 A 
ATOM     25  C   UNL     1      46.668   4.228  13.091  0.00  0.00    +0.000 A 
ATOM     26  S   UNL     1      45.236   3.362  12.764  0.00  0.00    +0.000 S 
ATOM     27  C   UNL     1      44.451   4.760  12.184  0.00  0.00    +0.000 A 
ATOM     28  N   UNL     1      43.174   4.706  11.733  0.00  0.00    +0.000 NA
ATOM     29  C   UNL     1      42.713   5.832  11.301  0.00  0.00    +0.000 A 
ATOM     30  N   UNL     1      43.416   7.009  11.282  0.00  0.00    +0.000 N 
ATOM     31  C   UNL     1      44.704   7.112  11.747  0.00  0.00    +0.000 A 
ATOM     32  O   UNL     1      45.298   8.187  11.735  0.00  0.00    +0.000 OA
ATOM     33  C   UNL     1      45.268   5.872  12.249  0.00  0.00    +0.000 A 
ATOM     34  H   UNL     1      43.000   7.858  10.933  0.00  0.00    +0.000 HD
ENDBRANCH  21  24
ENDBRANCH  19  20
ENDBRANCH   4  19
TORSDOF 8
ENDMDL
MODEL 8
REMARK VINA RESULT:    -6.699      1.987      2.359
REMARK INTER + INTRA:         -11.163
REMARK INTER:                 -11.668
REMARK INTRA:                   0.505
REMARK UNBOUND:                -1.331
REMARK  Name = 
REMARK  10 active torsions:
REMARK  status: ('A' for Active; 'I' for Inactive)
REMARK    1  A    between atoms: C_1  and  C_2
REMARK    2  A    between atoms: C_2  and  C_3
REMARK    3  A    between atoms: C_2  and  N_10
REMARK    4  A    between atoms: C_3  and  C_4
REMARK    5  A    between atoms: N_10  and  C_11
REMARK    6  A    between atoms: N_10  and  C_12
REMARK    7  A    between atoms: C_12  and  C_13
REMARK    8  A    between atoms: C_16  and  C_17
REMARK    9  A    between atoms: C_17  and  N_18
REMARK   10  A    between atoms: C_19  and  C_21
REMARK                            x       y       z     vdW  Elec       q    Type
REMARK                         _______ _______ _______ _____ _____    ______ ____
ROOT
ATOM      1  C   UNL     1      44.966   5.528  11.646  0.00  0.00    +0.000 A 
ATOM      2  C   UNL     1      45.839   6.597  11.408  0.00  0.00    +0.000 A 
ATOM      3  C   UNL     1      46.993   6.770  12.165  0.00  0.00    +0.000 A 
ATOM      4  C   UNL     1      47.254   5.926  13.243  0.00  0.00    +0.000 A 
ATOM      5  C   UNL     1      46.299   4.966  13.597  0.00  0.00    +0.000 A 
ATOM      6  C   UNL     1      45.175   4.755  12.795  0.00  0.00    +0.000 A 
ENDROOT
BRANCH   1   7
ATOM      7  C   UNL     1      43.857   5.172  10.670  0.00  0.00    +0.000 C 
BRANCH   7   8
ATOM      8  N   UNL     1      43.626   3.720  10.429  0.00  0.00    +0.000 NA
ATOM      9  C   UNL     1      43.247   3.068  11.692  0.00  0.00    +0.000 C 
BRANCH   8  11
ATOM     10  C   UNL     1      44.344   1.595   9.260  0.00  0.00    +0.000 C 
ATOM     11  C   UNL     1      44.740   3.008   9.737  0.00  0.00    +0.000 C 
BRANCH  11  12
ATOM     12  C   UNL     1      45.283   3.798   8.505  0.00  0.00    +0.000 C 
BRANCH  12  13
ATOM     13  C   UNL     1      46.150   3.032   7.519  0.00  0.00    +0.000 A 
ATOM     14  C   UNL     1      46.662   1.787   7.905  0.00  0.00    +0.000 A 
ATOM     15  C   UNL     1      47.418   1.022   7.014  0.00  0.00    +0.000 A 
ATOM     16  C   UNL     1      47.657   1.482   5.723  0.00  0.00    +0.000 A 
ATOM     17  C   UNL     1      47.136   2.707   5.317  0.00  0.00    +0.000 A 
ATOM     18  C   UNL     1      46.379   3.473   6.206  0.00  0.00    +0.000 A 
ENDBRANCH  12  13
ENDBRANCH  11  12
ENDBRANCH   8  11
ENDBRANCH   7   8
ENDBRANCH   1   7
BRANCH   4  19
ATOM     19  C   UNL     1      48.509   6.104  14.048  0.00  0.00    +0.000 C 
BRANCH  19  20
ATOM     20  N   UNL     1      48.177   6.543  15.372  0.00  0.00    +0.000 N 
ATOM     21  C   UNL     1      48.920   7.486  16.025  0.00  0.00    +0.000 C 
ATOM     22  O   UNL     1      49.883   8.042  15.501  0.00  0.00    +0.000 OA
ATOM     23  H   UNL     1      47.528   5.960  15.892  0.00  0.00    +0.000 HD
BRANCH  21  24
ATOM     24  C   UNL     1      48.464   7.836  17.375  0.00  0.00    +0.000 A 
ATOM     25  C   UNL     1      48.262   9.169  17.703  0.00  0.00    +0.000 A 
ATOM     26  S   UNL     1      47.655   9.397  19.281  0.00  0.00    +0.000 S 
ATOM     27  C   UNL     1      47.693   7.722  19.602  0.00  0.00    +0.000 A 
ATOM     28  N   UNL     1      47.299   7.235  20.805  0.00  0.00    +0.000 NA
ATOM     29  C   UNL     1      47.402   5.953  20.918  0.00  0.00    +0.000 A 
ATOM     30  N   UNL     1      47.863   5.115  19.937  0.00  0.00    +0.000 N 
ATOM     31  C   UNL     1      48.254   5.565  18.699  0.00  0.00    +0.000 A 
ATOM     32  O   UNL     1      48.642   4.784  17.835  0.00  0.00    +0.000 OA
ATOM     33  C   UNL     1      48.152   7.002  18.517  0.00  0.00    +0.000 A 
ATOM     34  H   UNL     1      47.919   4.120  20.087  0.00  0.00    +0.000 HD
ENDBRANCH  21  24
ENDBRANCH  19  20
ENDBRANCH   4  19
TORSDOF 8
ENDMDL
MODEL 9
REMARK VINA RESULT:    -6.659      3.275      8.450
REMARK INTER + INTRA:         -11.105
REMARK INTER:                  -9.362
REMARK INTRA:                  -1.742
REMARK UNBOUND:                -1.331
REMARK  Name = 
REMARK  10 active torsions:
REMARK  status: ('A' for Active; 'I' for Inactive)
REMARK    1  A    between atoms: C_1  and  C_2
REMARK    2  A    between atoms: C_2  and  C_3
REMARK    3  A    between atoms: C_2  and  N_10
REMARK    4  A    between atoms: C_3  and  C_4
REMARK    5  A    between atoms: N_10  and  C_11
REMARK    6  A    between atoms: N_10  and  C_12
REMARK    7  A    between atoms: C_12  and  C_13
REMARK    8  A    between atoms: C_16  and  C_17
REMARK    9  A    between atoms: C_17  and  N_18
REMARK   10  A    between atoms: C_19  and  C_21
REMARK                            x       y       z     vdW  Elec       q    Type
REMARK                         _______ _______ _______ _____ _____    ______ ____
ROOT
ATOM      1  C   UNL     1      49.678   8.141  14.391  0.00  0.00    +0.000 A 
ATOM      2  C   UNL     1      48.622   9.027  14.644  0.00  0.00    +0.000 A 
ATOM      3  C   UNL     1      47.447   8.982  13.901  0.00  0.00    +0.000 A 
ATOM      4  C   UNL     1      47.338   8.108  12.821  0.00  0.00    +0.000 A 
ATOM      5  C   UNL     1      48.452   7.346  12.452  0.00  0.00    +0.000 A 
ATOM      6  C   UNL     1      49.605   7.346  13.241  0.00  0.00    +0.000 A 
ENDROOT
BRANCH   1   7
ATOM      7  C   UNL     1      50.845   7.997  15.354  0.00  0.00    +0.000 C 
BRANCH   7   8
ATOM      8  N   UNL     1      50.591   8.389  16.768  0.00  0.00    +0.000 NA
ATOM      9  C   UNL     1      51.457   9.521  17.128  0.00  0.00    +0.000 C 
BRANCH   8  11
ATOM     10  C   UNL     1      49.473   7.239  18.724  0.00  0.00    +0.000 C 
ATOM     11  C   UNL     1      50.676   7.275  17.759  0.00  0.00    +0.000 C 
BRANCH  11  12
ATOM     12  C   UNL     1      50.790   5.875  17.078  0.00  0.00    +0.000 C 
BRANCH  12  13
ATOM     13  C   UNL     1      49.562   4.981  17.123  0.00  0.00    +0.000 A 
ATOM     14  C   UNL     1      49.536   3.925  18.044  0.00  0.00    +0.000 A 
ATOM     15  C   UNL     1      48.408   3.111  18.160  0.00  0.00    +0.000 A 
ATOM     16  C   UNL     1      47.286   3.350  17.372  0.00  0.00    +0.000 A 
ATOM     17  C   UNL     1      47.288   4.410  16.469  0.00  0.00    +0.000 A 
ATOM     18  C   UNL     1      48.415   5.226  16.352  0.00  0.00    +0.000 A 
ENDBRANCH  12  13
ENDBRANCH  11  12
ENDBRANCH   8  11
ENDBRANCH   7   8
ENDBRANCH   1   7
BRANCH   4  19
ATOM     19  C   UNL     1      46.063   8.050  12.031  0.00  0.00    +0.000 C 
BRANCH  19  20
ATOM     20  N   UNL     1      45.744   6.685  11.724  0.00  0.00    +0.000 N 
ATOM     21  C   UNL     1      44.470   6.297  11.417  0.00  0.00    +0.000 C 
ATOM     22  O   UNL     1      43.539   7.095  11.342  0.00  0.00    +0.000 OA
ATOM     23  H   UNL     1      46.438   5.990  11.979  0.00  0.00    +0.000 HD
BRANCH  21  24
ATOM     24  C   UNL     1      44.292   4.869  11.127  0.00  0.00    +0.000 A 
ATOM     25  C   UNL     1      43.544   4.085  11.994  0.00  0.00    +0.000 A 
ATOM     26  S   UNL     1      43.366   2.472  11.472  0.00  0.00    +0.000 S 
ATOM     27  C   UNL     1      44.329   2.748  10.092  0.00  0.00    +0.000 A 
ATOM     28  N   UNL     1      44.583   1.752   9.208  0.00  0.00    +0.000 NA
ATOM     29  C   UNL     1      45.345   2.096   8.225  0.00  0.00    +0.000 A 
ATOM     30  N   UNL     1      45.876   3.346   8.045  0.00  0.00    +0.000 N 
ATOM     31  C   UNL     1      45.628   4.388   8.906  0.00  0.00    +0.000 A 
ATOM     32  O   UNL     1      46.102   5.503   8.704  0.00  0.00    +0.000 OA
ATOM     33  C   UNL     1      44.771   4.056  10.029  0.00  0.00    +0.000 A 
ATOM     34  H   UNL     1      46.464   3.553   7.254  0.00  0.00    +0.000 HD
ENDBRANCH  21  24
ENDBRANCH  19  20
ENDBRANCH   4  19
TORSDOF 8
ENDMDL
