MODEL 1
REMARK VINA RESULT:    -7.883      0.000      0.000
REMARK INTER + INTRA:         -12.782
REMARK INTER:                 -11.569
REMARK INTRA:                  -1.213
REMARK UNBOUND:                -1.213
REMARK  Name = 
REMARK  10 active torsions:
REMARK  status: ('A' for Active; 'I' for Inactive)
REMARK    1  A    between atoms: C_1  and  C_2
REMARK    2  A    between atoms: C_2  and  C_3
REMARK    3  A    between atoms: C_3  and  C_4
REMARK    4  A    between atoms: C_3  and  C_15
REMARK    5  A    between atoms: C_4  and  O_5
REMARK    6  A    between atoms: O_5  and  C_6
REMARK    7  A    between atoms: C_9  and  C_10
REMARK    8  A    between atoms: C_19  and  C_20
REMARK    9  A    between atoms: C_25  and  O_26
REMARK   10  A    between atoms: O_26  and  C_27
REMARK                            x       y       z     vdW  Elec       q    Type
REMARK                         _______ _______ _______ _____ _____    ______ ____
ROOT
ATOM      1  C   UNL     1      44.291   4.618  11.703  0.00  0.00    +0.000 C 
ENDROOT
BRANCH   1   2
ATOM      2  C   UNL     1      45.541   5.087  12.434  0.00  0.00    +0.000 A 
ATOM      3  C   UNL     1      46.040   4.435  13.564  0.00  0.00    +0.000 A 
ATOM      4  C   UNL     1      47.144   4.951  14.235  0.00  0.00    +0.000 A 
ATOM      5  C   UNL     1      47.747   6.137  13.802  0.00  0.00    +0.000 A 
ATOM      6  C   UNL     1      47.298   6.819  12.660  0.00  0.00    +0.000 A 
ATOM      7  C   UNL     1      46.201   6.243  11.981  0.00  0.00    +0.000 A 
BRANCH   6   8
ATOM      8  C   UNL     1      47.872   8.129  12.219  0.00  0.00    +0.000 A 
ATOM      9  C   UNL     1      49.205   8.148  11.738  0.00  0.00    +0.000 A 
ATOM     10  C   UNL     1      49.819   9.309  11.267  0.00  0.00    +0.000 A 
ATOM     11  C   UNL     1      49.117  10.498  11.258  0.00  0.00    +0.000 A 
ATOM     12  C   UNL     1      47.806  10.529  11.729  0.00  0.00    +0.000 A 
ATOM     13  C   UNL     1      47.170   9.360  12.195  0.00  0.00    +0.000 A 
BRANCH  13  14
ATOM     14  O   UNL     1      45.882   9.399  12.676  0.00  0.00    +0.000 OA
ATOM     15  C   UNL     1      44.864   9.697  11.721  0.00  0.00    +0.000 C 
ENDBRANCH  13  14
ENDBRANCH   6   8
ENDBRANCH   1   2
BRANCH   1  17
ATOM     16  C   UNL     1      42.057   5.889  11.772  0.00  0.00    +0.000 C 
ATOM     17  C   UNL     1      43.006   4.940  12.501  0.00  0.00    +0.000 C 
ENDBRANCH   1  17
BRANCH   1  18
ATOM     18  C   UNL     1      44.371   3.117  11.363  0.00  0.00    +0.000 C 
BRANCH  18  19
ATOM     19  O   UNL     1      43.863   2.911  10.035  0.00  0.00    +0.000 OA
BRANCH  19  20
ATOM     20  C   UNL     1      44.858   2.694   9.106  0.00  0.00    +0.000 A 
ATOM     21  C   UNL     1      45.246   3.775   8.332  0.00  0.00    +0.000 A 
ATOM     22  C   UNL     1      46.216   3.581   7.351  0.00  0.00    +0.000 A 
ATOM     23  C   UNL     1      46.767   2.308   7.180  0.00  0.00    +0.000 A 
ATOM     24  C   UNL     1      46.316   1.289   8.008  0.00  0.00    +0.000 A 
ATOM     25  N   UNL     1      45.378   1.453   8.969  0.00  0.00    +0.000 NA
BRANCH  23  26
ATOM     26  C   UNL     1      47.762   1.981   6.139  0.00  0.00    +0.000 C 
ATOM     27  N   UNL     1      48.859   2.786   6.034  0.00  0.00    +0.000 N 
ATOM     28  O   UNL     1      47.619   1.009   5.409  0.00  0.00    +0.000 OA
ATOM     29  H   UNL     1      49.118   3.472   6.728  0.00  0.00    +0.000 HD
ATOM     30  H   UNL     1      49.565   2.504   5.364  0.00  0.00    +0.000 HD
ENDBRANCH  23  26
ENDBRANCH  19  20
ENDBRANCH  18  19
ENDBRANCH   1  18
TORSDOF 8
ENDMDL
MODEL 2
REMARK VINA RESULT:    -7.620      2.050      4.060
REMARK INTER + INTRA:         -12.397
REMARK INTER:                 -11.468
REMARK INTRA:                  -0.928
REMARK UNBOUND:                -1.213
REMARK  Name = 
REMARK  10 active torsions:
REMARK  status: ('A' for Active; 'I' for Inactive)
REMARK    1  A    between atoms: C_1  and  C_2
REMARK    2  A    between atoms: C_2  and  C_3
REMARK    3  A    between atoms: C_3  and  C_4
REMARK    4  A    between atoms: C_3  and  C_15
REMARK    5  A    between atoms: C_4  and  O_5
REMARK    6  A    between atoms: O_5  and  C_6
REMARK    7  A    between atoms: C_9  and  C_10
REMARK    8  A    between atoms: C_19  and  C_20
REMARK    9  A    between atoms: C_25  and  O_26
REMARK   10  A    between atoms: O_26  and  C_27
REMARK                            x       y       z     vdW  Elec       q    Type
REMARK                         _______ _______ _______ _____ _____    ______ ____
ROOT
ATOM      1  C   UNL     1      44.422   4.711  11.854  0.00  0.00    +0.000 C 
ENDROOT
BRANCH   1   2
ATOM      2  C   UNL     1      45.703   5.296  12.434  0.00  0.00    +0.000 A 
ATOM      3  C   UNL     1      46.523   6.169  11.714  0.00  0.00    +0.000 A 
ATOM      4  C   UNL     1      47.719   6.615  12.268  0.00  0.00    +0.000 A 
ATOM      5  C   UNL     1      48.123   6.174  13.533  0.00  0.00    +0.000 A 
ATOM      6  C   UNL     1      47.326   5.314  14.305  0.00  0.00    +0.000 A 
ATOM      7  C   UNL     1      46.100   4.916  13.727  0.00  0.00    +0.000 A 
BRANCH   6   8
ATOM      8  C   UNL     1      47.767   4.766  15.626  0.00  0.00    +0.000 A 
ATOM      9  C   UNL     1      47.606   3.378  15.861  0.00  0.00    +0.000 A 
ATOM     10  C   UNL     1      48.019   2.761  17.043  0.00  0.00    +0.000 A 
ATOM     11  C   UNL     1      48.614   3.515  18.035  0.00  0.00    +0.000 A 
ATOM     12  C   UNL     1      48.786   4.886  17.851  0.00  0.00    +0.000 A 
ATOM     13  C   UNL     1      48.385   5.518  16.656  0.00  0.00    +0.000 A 
BRANCH  13  14
ATOM     14  O   UNL     1      48.540   6.873  16.486  0.00  0.00    +0.000 OA
ATOM     15  C   UNL     1      49.117   7.582  17.582  0.00  0.00    +0.000 C 
ENDBRANCH  13  14
ENDBRANCH   6   8
ENDBRANCH   1   2
BRANCH   1  17
ATOM     16  C   UNL     1      42.097   5.809  11.870  0.00  0.00    +0.000 C 
ATOM     17  C   UNL     1      43.182   5.111  12.687  0.00  0.00    +0.000 C 
ENDBRANCH   1  17
BRANCH   1  18
ATOM     18  C   UNL     1      44.522   3.180  11.707  0.00  0.00    +0.000 C 
BRANCH  18  19
ATOM     19  O   UNL     1      43.902   2.788  10.472  0.00  0.00    +0.000 OA
BRANCH  19  20
ATOM     20  C   UNL     1      44.788   2.741   9.417  0.00  0.00    +0.000 A 
ATOM     21  C   UNL     1      44.938   3.896   8.667  0.00  0.00    +0.000 A 
ATOM     22  C   UNL     1      45.791   3.871   7.565  0.00  0.00    +0.000 A 
ATOM     23  C   UNL     1      46.466   2.688   7.253  0.00  0.00    +0.000 A 
ATOM     24  C   UNL     1      46.253   1.584   8.068  0.00  0.00    +0.000 A 
ATOM     25  N   UNL     1      45.434   1.585   9.144  0.00  0.00    +0.000 NA
BRANCH  23  26
ATOM     26  C   UNL     1      47.351   2.537   6.080  0.00  0.00    +0.000 C 
ATOM     27  N   UNL     1      48.580   1.977   6.281  0.00  0.00    +0.000 N 
ATOM     28  O   UNL     1      46.988   2.881   4.963  0.00  0.00    +0.000 OA
ATOM     29  H   UNL     1      48.846   1.504   7.132  0.00  0.00    +0.000 HD
ATOM     30  H   UNL     1      49.143   1.815   5.455  0.00  0.00    +0.000 HD
ENDBRANCH  23  26
ENDBRANCH  19  20
ENDBRANCH  18  19
ENDBRANCH   1  18
TORSDOF 8
ENDMDL
MODEL 3
REMARK VINA RESULT:    -7.578      1.150      1.922
REMARK INTER + INTRA:         -12.336
REMARK INTER:                 -11.203
REMARK INTRA:                  -1.133
REMARK UNBOUND:                -1.213
REMARK  Name = 
REMARK  10 active torsions:
REMARK  status: ('A' for Active; 'I' for Inactive)
REMARK    1  A    between atoms: C_1  and  C_2
REMARK    2  A    between atoms: C_2  and  C_3
REMARK    3  A    between atoms: C_3  and  C_4
REMARK    4  A    between atoms: C_3  and  C_15
REMARK    5  A    between atoms: C_4  and  O_5
REMARK    6  A    between atoms: O_5  and  C_6
REMARK    7  A    between atoms: C_9  and  C_10
REMARK    8  A    between atoms: C_19  and  C_20
REMARK    9  A    between atoms: C_25  and  O_26
REMARK   10  A    between atoms: O_26  and  C_27
REMARK                            x       y       z     vdW  Elec       q    Type
REMARK                         _______ _______ _______ _____ _____    ______ ____
ROOT
ATOM      1  C   UNL     1      44.603   4.991  11.761  0.00  0.00    +0.000 C 
ENDROOT
BRANCH   1   2
ATOM      2  C   UNL     1      45.878   5.466  12.445  0.00  0.00    +0.000 A 
ATOM      3  C   UNL     1      46.390   4.851  13.590  0.00  0.00    +0.000 A 
ATOM      4  C   UNL     1      47.518   5.374  14.215  0.00  0.00    +0.000 A 
ATOM      5  C   UNL     1      48.132   6.529  13.719  0.00  0.00    +0.000 A 
ATOM      6  C   UNL     1      47.670   7.173  12.561  0.00  0.00    +0.000 A 
ATOM      7  C   UNL     1      46.547   6.590  11.930  0.00  0.00    +0.000 A 
BRANCH   6   8
ATOM      8  C   UNL     1      48.257   8.452  12.053  0.00  0.00    +0.000 A 
ATOM      9  C   UNL     1      47.445   9.613  12.068  0.00  0.00    +0.000 A 
ATOM     10  C   UNL     1      47.909  10.863  11.652  0.00  0.00    +0.000 A 
ATOM     11  C   UNL     1      49.209  10.995  11.208  0.00  0.00    +0.000 A 
ATOM     12  C   UNL     1      50.043   9.878  11.168  0.00  0.00    +0.000 A 
ATOM     13  C   UNL     1      49.590   8.614  11.597  0.00  0.00    +0.000 A 
BRANCH  13  14
ATOM     14  O   UNL     1      50.408   7.511  11.539  0.00  0.00    +0.000 OA
ATOM     15  C   UNL     1      51.563   7.629  10.708  0.00  0.00    +0.000 C 
ENDBRANCH  13  14
ENDBRANCH   6   8
ENDBRANCH   1   2
BRANCH   1  17
ATOM     16  C   UNL     1      42.117   5.648  11.728  0.00  0.00    +0.000 C 
ATOM     17  C   UNL     1      43.344   5.345  12.586  0.00  0.00    +0.000 C 
ENDBRANCH   1  17
BRANCH   1  18
ATOM     18  C   UNL     1      44.661   3.481  11.457  0.00  0.00    +0.000 C 
BRANCH  18  19
ATOM     19  O   UNL     1      44.040   3.237  10.184  0.00  0.00    +0.000 OA
BRANCH  19  20
ATOM     20  C   UNL     1      44.943   2.893   9.202  0.00  0.00    +0.000 A 
ATOM     21  C   UNL     1      45.345   3.895   8.335  0.00  0.00    +0.000 A 
ATOM     22  C   UNL     1      46.223   3.572   7.301  0.00  0.00    +0.000 A 
ATOM     23  C   UNL     1      46.669   2.254   7.173  0.00  0.00    +0.000 A 
ATOM     24  C   UNL     1      46.213   1.322   8.095  0.00  0.00    +0.000 A 
ATOM     25  N   UNL     1      45.365   1.611   9.109  0.00  0.00    +0.000 NA
BRANCH  23  26
ATOM     26  C   UNL     1      47.557   1.793   6.087  0.00  0.00    +0.000 C 
ATOM     27  N   UNL     1      48.566   2.626   5.695  0.00  0.00    +0.000 N 
ATOM     28  O   UNL     1      47.408   0.694   5.570  0.00  0.00    +0.000 OA
ATOM     29  H   UNL     1      48.849   3.444   6.214  0.00  0.00    +0.000 HD
ATOM     30  H   UNL     1      49.207   2.263   5.001  0.00  0.00    +0.000 HD
ENDBRANCH  23  26
ENDBRANCH  19  20
ENDBRANCH  18  19
ENDBRANCH   1  18
TORSDOF 8
ENDMDL
MODEL 4
REMARK VINA RESULT:    -7.338      3.589      7.842
REMARK INTER + INTRA:         -11.983
REMARK INTER:                 -10.540
REMARK INTRA:                  -1.443
REMARK UNBOUND:                -1.213
REMARK  Name = 
REMARK  10 active torsions:
REMARK  status: ('A' for Active; 'I' for Inactive)
REMARK    1  A    between atoms: C_1  and  C_2
REMARK    2  A    between atoms: C_2  and  C_3
REMARK    3  A    between atoms: C_3  and  C_4
REMARK    4  A    between atoms: C_3  and  C_15
REMARK    5  A    between atoms: C_4  and  O_5
REMARK    6  A    between atoms: O_5  and  C_6
REMARK    7  A    between atoms: C_9  and  C_10
REMARK    8  A    between atoms: C_19  and  C_20
REMARK    9  A    between atoms: C_25  and  O_26
REMARK   10  A    between atoms: O_26  and  C_27
REMARK                            x       y       z     vdW  Elec       q    Type
REMARK                         _______ _______ _______ _____ _____    ______ ____
ROOT
ATOM      1  C   UNL     1      48.807   8.324  12.596  0.00  0.00    +0.000 C 
ENDROOT
BRANCH   1   2
ATOM      2  C   UNL     1      47.359   8.138  12.163  0.00  0.00    +0.000 A 
ATOM      3  C   UNL     1      46.372   9.094  12.412  0.00  0.00    +0.000 A 
ATOM      4  C   UNL     1      45.051   8.839  12.058  0.00  0.00    +0.000 A 
ATOM      5  C   UNL     1      44.696   7.617  11.476  0.00  0.00    +0.000 A 
ATOM      6  C   UNL     1      45.653   6.631  11.185  0.00  0.00    +0.000 A 
ATOM      7  C   UNL     1      46.990   6.944  11.521  0.00  0.00    +0.000 A 
BRANCH   6   8
ATOM      8  C   UNL     1      45.293   5.287  10.636  0.00  0.00    +0.000 A 
ATOM      9  C   UNL     1      45.496   5.053   9.253  0.00  0.00    +0.000 A 
ATOM     10  C   UNL     1      45.229   3.822   8.650  0.00  0.00    +0.000 A 
ATOM     11  C   UNL     1      44.750   2.777   9.415  0.00  0.00    +0.000 A 
ATOM     12  C   UNL     1      44.528   2.963  10.778  0.00  0.00    +0.000 A 
ATOM     13  C   UNL     1      44.806   4.197  11.401  0.00  0.00    +0.000 A 
BRANCH  13  14
ATOM     14  O   UNL     1      44.568   4.383  12.742  0.00  0.00    +0.000 OA
ATOM     15  C   UNL     1      43.205   4.588  13.116  0.00  0.00    +0.000 C 
ENDBRANCH  13  14
ENDBRANCH   6   8
ENDBRANCH   1   2
BRANCH   1  17
ATOM     16  C   UNL     1      50.770   7.682  11.064  0.00  0.00    +0.000 C 
ATOM     17  C   UNL     1      49.713   8.728  11.409  0.00  0.00    +0.000 C 
ENDBRANCH   1  17
BRANCH   1  18
ATOM     18  C   UNL     1      49.347   7.065  13.302  0.00  0.00    +0.000 C 
BRANCH  18  19
ATOM     19  O   UNL     1      49.548   7.360  14.694  0.00  0.00    +0.000 OA
BRANCH  19  20
ATOM     20  C   UNL     1      49.037   6.389  15.528  0.00  0.00    +0.000 A 
ATOM     21  C   UNL     1      49.581   6.299  16.798  0.00  0.00    +0.000 A 
ATOM     22  C   UNL     1      49.121   5.298  17.653  0.00  0.00    +0.000 A 
ATOM     23  C   UNL     1      48.128   4.423  17.205  0.00  0.00    +0.000 A 
ATOM     24  C   UNL     1      47.641   4.598  15.916  0.00  0.00    +0.000 A 
ATOM     25  N   UNL     1      48.069   5.563  15.070  0.00  0.00    +0.000 NA
BRANCH  23  26
ATOM     26  C   UNL     1      47.606   3.299  18.007  0.00  0.00    +0.000 C 
ATOM     27  N   UNL     1      48.203   3.046  19.209  0.00  0.00    +0.000 N 
ATOM     28  O   UNL     1      46.657   2.630  17.620  0.00  0.00    +0.000 OA
ATOM     29  H   UNL     1      48.848   3.680  19.657  0.00  0.00    +0.000 HD
ATOM     30  H   UNL     1      47.785   2.319  19.777  0.00  0.00    +0.000 HD
ENDBRANCH  23  26
ENDBRANCH  19  20
ENDBRANCH  18  19
ENDBRANCH   1  18
TORSDOF 8
ENDMDL
MODEL 5
REMARK VINA RESULT:    -6.968      3.521      7.944
REMARK INTER + INTRA:         -11.439
REMARK INTER:                 -10.027
REMARK INTRA:                  -1.412
REMARK UNBOUND:                -1.213
REMARK  Name = 
REMARK  10 active torsions:
REMARK  status: ('A' for Active; 'I' for Inactive)
REMARK    1  A    between atoms: C_1  and  C_2
REMARK    2  A    between atoms: C_2  and  C_3
REMARK    3  A    between atoms: C_3  and  C_4
REMARK    4  A    between atoms: C_3  and  C_15
REMARK    5  A    between atoms: C_4  and  O_5
REMARK    6  A    between atoms: O_5  and  C_6
REMARK    7  A    between atoms: C_9  and  C_10
REMARK    8  A    between atoms: C_19  and  C_20
REMARK    9  A    between atoms: C_25  and  O_26
REMARK   10  A    between atoms: O_26  and  C_27
REMARK                            x       y       z     vdW  Elec       q    Type
REMARK                         _______ _______ _______ _____ _____    ______ ____
ROOT
ATOM      1  C   UNL     1      48.982   8.450  12.507  0.00  0.00    +0.000 C 
ENDROOT
BRANCH   1   2
ATOM      2  C   UNL     1      47.499   8.401  12.162  0.00  0.00    +0.000 A 
ATOM      3  C   UNL     1      46.711   9.551  12.073  0.00  0.00    +0.000 A 
ATOM      4  C   UNL     1      45.346   9.441  11.825  0.00  0.00    +0.000 A 
ATOM      5  C   UNL     1      44.749   8.183  11.691  0.00  0.00    +0.000 A 
ATOM      6  C   UNL     1      45.499   6.998  11.752  0.00  0.00    +0.000 A 
ATOM      7  C   UNL     1      46.888   7.151  11.963  0.00  0.00    +0.000 A 
BRANCH   6   8
ATOM      8  C   UNL     1      44.878   5.638  11.690  0.00  0.00    +0.000 A 
ATOM      9  C   UNL     1      44.207   5.156  12.841  0.00  0.00    +0.000 A 
ATOM     10  C   UNL     1      43.561   3.919  12.874  0.00  0.00    +0.000 A 
ATOM     11  C   UNL     1      43.563   3.118  11.750  0.00  0.00    +0.000 A 
ATOM     12  C   UNL     1      44.217   3.547  10.596  0.00  0.00    +0.000 A 
ATOM     13  C   UNL     1      44.861   4.801  10.546  0.00  0.00    +0.000 A 
BRANCH  13  14
ATOM     14  O   UNL     1      45.521   5.213   9.413  0.00  0.00    +0.000 OA
ATOM     15  C   UNL     1      45.690   4.229   8.392  0.00  0.00    +0.000 C 
ENDBRANCH  13  14
ENDBRANCH   6   8
ENDBRANCH   1   2
BRANCH   1  17
ATOM     16  C   UNL     1      51.347   8.336  11.505  0.00  0.00    +0.000 C 
ATOM     17  C   UNL     1      49.861   8.569  11.241  0.00  0.00    +0.000 C 
ENDBRANCH   1  17
BRANCH   1  18
ATOM     18  C   UNL     1      49.399   7.235  13.360  0.00  0.00    +0.000 C 
BRANCH  18  19
ATOM     19  O   UNL     1      49.327   7.594  14.749  0.00  0.00    +0.000 OA
BRANCH  19  20
ATOM     20  C   UNL     1      48.857   6.571  15.545  0.00  0.00    +0.000 A 
ATOM     21  C   UNL     1      49.258   6.569  16.871  0.00  0.00    +0.000 A 
ATOM     22  C   UNL     1      48.840   5.524  17.693  0.00  0.00    +0.000 A 
ATOM     23  C   UNL     1      48.031   4.518  17.158  0.00  0.00    +0.000 A 
ATOM     24  C   UNL     1      47.678   4.612  15.819  0.00  0.00    +0.000 A 
ATOM     25  N   UNL     1      48.069   5.617  15.002  0.00  0.00    +0.000 NA
BRANCH  23  26
ATOM     26  C   UNL     1      47.574   3.341  17.925  0.00  0.00    +0.000 C 
ATOM     27  N   UNL     1      48.263   3.016  19.059  0.00  0.00    +0.000 N 
ATOM     28  O   UNL     1      46.599   2.693  17.570  0.00  0.00    +0.000 OA
ATOM     29  H   UNL     1      48.940   3.625  19.495  0.00  0.00    +0.000 HD
ATOM     30  H   UNL     1      47.891   2.252  19.609  0.00  0.00    +0.000 HD
ENDBRANCH  23  26
ENDBRANCH  19  20
ENDBRANCH  18  19
ENDBRANCH   1  18
TORSDOF 8
ENDMDL
MODEL 6
REMARK VINA RESULT:    -6.265      4.552      6.618
REMARK INTER + INTRA:         -10.409
REMARK INTER:                  -9.686
REMARK INTRA:                  -0.723
REMARK UNBOUND:                -1.213
REMARK  Name = 
REMARK  10 active torsions:
REMARK  status: ('A' for Active; 'I' for Inactive)
REMARK    1  A    between atoms: C_1  and  C_2
REMARK    2  A    between atoms: C_2  and  C_3
REMARK    3  A    between atoms: C_3  and  C_4
REMARK    4  A    between atoms: C_3  and  C_15
REMARK    5  A    between atoms: C_4  and  O_5
REMARK    6  A    between atoms: O_5  and  C_6
REMARK    7  A    between atoms: C_9  and  C_10
REMARK    8  A    between atoms: C_19  and  C_20
REMARK    9  A    between atoms: C_25  and  O_26
REMARK   10  A    between atoms: O_26  and  C_27
REMARK                            x       y       z     vdW  Elec       q    Type
REMARK                         _______ _______ _______ _____ _____    ______ ____
ROOT
ATOM      1  C   UNL     1      47.595   3.606  17.100  0.00  0.00    +0.000 C 
ENDROOT
BRANCH   1   2
ATOM      2  C   UNL     1      48.010   4.519  18.246  0.00  0.00    +0.000 A 
ATOM      3  C   UNL     1      48.472   4.027  19.469  0.00  0.00    +0.000 A 
ATOM      4  C   UNL     1      48.768   4.906  20.506  0.00  0.00    +0.000 A 
ATOM      5  C   UNL     1      48.581   6.283  20.343  0.00  0.00    +0.000 A 
ATOM      6  C   UNL     1      48.138   6.830  19.128  0.00  0.00    +0.000 A 
ATOM      7  C   UNL     1      47.888   5.910  18.086  0.00  0.00    +0.000 A 
BRANCH   6   8
ATOM      8  C   UNL     1      47.855   8.289  18.949  0.00  0.00    +0.000 A 
ATOM      9  C   UNL     1      47.123   8.957  19.962  0.00  0.00    +0.000 A 
ATOM     10  C   UNL     1      46.839  10.323  19.909  0.00  0.00    +0.000 A 
ATOM     11  C   UNL     1      47.282  11.072  18.837  0.00  0.00    +0.000 A 
ATOM     12  C   UNL     1      48.000  10.455  17.814  0.00  0.00    +0.000 A 
ATOM     13  C   UNL     1      48.304   9.079  17.862  0.00  0.00    +0.000 A 
BRANCH  13  14
ATOM     14  O   UNL     1      48.996   8.471  16.841  0.00  0.00    +0.000 OA
ATOM     15  C   UNL     1      48.444   8.620  15.533  0.00  0.00    +0.000 C 
ENDBRANCH  13  14
ENDBRANCH   6   8
ENDBRANCH   1   2
BRANCH   1  17
ATOM     16  C   UNL     1      50.059   2.874  17.031  0.00  0.00    +0.000 C 
ATOM     17  C   UNL     1      48.599   2.446  16.900  0.00  0.00    +0.000 C 
ENDBRANCH   1  17
BRANCH   1  18
ATOM     18  C   UNL     1      47.397   4.400  15.795  0.00  0.00    +0.000 C 
BRANCH  18  19
ATOM     19  O   UNL     1      47.350   3.481  14.691  0.00  0.00    +0.000 OA
BRANCH  19  20
ATOM     20  C   UNL     1      46.501   3.890  13.686  0.00  0.00    +0.000 A 
ATOM     21  C   UNL     1      46.280   5.252  13.562  0.00  0.00    +0.000 A 
ATOM     22  C   UNL     1      45.391   5.699  12.586  0.00  0.00    +0.000 A 
ATOM     23  C   UNL     1      44.755   4.764  11.765  0.00  0.00    +0.000 A 
ATOM     24  C   UNL     1      45.046   3.421  11.963  0.00  0.00    +0.000 A 
ATOM     25  N   UNL     1      45.907   2.963  12.901  0.00  0.00    +0.000 NA
BRANCH  23  26
ATOM     26  C   UNL     1      43.759   5.124  10.736  0.00  0.00    +0.000 C 
ATOM     27  N   UNL     1      43.982   4.695   9.458  0.00  0.00    +0.000 N 
ATOM     28  O   UNL     1      42.756   5.765  11.021  0.00  0.00    +0.000 OA
ATOM     29  H   UNL     1      44.680   4.008   9.214  0.00  0.00    +0.000 HD
ATOM     30  H   UNL     1      43.253   4.889   8.783  0.00  0.00    +0.000 HD
ENDBRANCH  23  26
ENDBRANCH  19  20
ENDBRANCH  18  19
ENDBRANCH   1  18
TORSDOF 8
ENDMDL
MODEL 7
REMARK VINA RESULT:    -6.203      3.365      6.849
REMARK INTER + INTRA:         -10.318
REMARK INTER:                  -8.651
REMARK INTRA:                  -1.667
REMARK UNBOUND:                -1.213
REMARK  Name = 
REMARK  10 active torsions:
REMARK  status: ('A' for Active; 'I' for Inactive)
REMARK    1  A    between atoms: C_1  and  C_2
REMARK    2  A    between atoms: C_2  and  C_3
REMARK    3  A    between atoms: C_3  and  C_4
REMARK    4  A    between atoms: C_3  and  C_15
REMARK    5  A    between atoms: C_4  and  O_5
REMARK    6  A    between atoms: O_5  and  C_6
REMARK    7  A    between atoms: C_9  and  C_10
REMARK    8  A    between atoms: C_19  and  C_20
REMARK    9  A    between atoms: C_25  and  O_26
REMARK   10  A    between atoms: O_26  and  C_27
REMARK                            x       y       z     vdW  Elec       q    Type
REMARK                         _______ _______ _______ _____ _____    ______ ____
ROOT
ATOM      1  C   UNL     1      49.285   8.481  12.986  0.00  0.00    +0.000 C 
ENDROOT
BRANCH   1   2
ATOM      2  C   UNL     1      49.292   8.261  14.493  0.00  0.00    +0.000 A 
ATOM      3  C   UNL     1      49.667   9.259  15.396  0.00  0.00    +0.000 A 
ATOM      4  C   UNL     1      49.725   8.980  16.757  0.00  0.00    +0.000 A 
ATOM      5  C   UNL     1      49.435   7.695  17.231  0.00  0.00    +0.000 A 
ATOM      6  C   UNL     1      49.032   6.663  16.368  0.00  0.00    +0.000 A 
ATOM      7  C   UNL     1      48.945   6.996  14.997  0.00  0.00    +0.000 A 
BRANCH   6   8
ATOM      8  C   UNL     1      48.792   5.262  16.835  0.00  0.00    +0.000 A 
ATOM      9  C   UNL     1      47.452   4.815  16.949  0.00  0.00    +0.000 A 
ATOM     10  C   UNL     1      47.121   3.516  17.337  0.00  0.00    +0.000 A 
ATOM     11  C   UNL     1      48.125   2.613  17.625  0.00  0.00    +0.000 A 
ATOM     12  C   UNL     1      49.458   3.010  17.534  0.00  0.00    +0.000 A 
ATOM     13  C   UNL     1      49.805   4.316  17.130  0.00  0.00    +0.000 A 
BRANCH  13  14
ATOM     14  O   UNL     1      51.120   4.709  17.060  0.00  0.00    +0.000 OA
ATOM     15  C   UNL     1      51.985   4.191  18.070  0.00  0.00    +0.000 C 
ENDBRANCH  13  14
ENDBRANCH   6   8
ENDBRANCH   1   2
BRANCH   1  17
ATOM     16  C   UNL     1      49.176  10.623  11.568  0.00  0.00    +0.000 C 
ATOM     17  C   UNL     1      48.473   9.738  12.594  0.00  0.00    +0.000 C 
ENDBRANCH   1  17
BRANCH   1  18
ATOM     18  C   UNL     1      48.770   7.234  12.241  0.00  0.00    +0.000 C 
BRANCH  18  19
ATOM     19  O   UNL     1      47.469   7.517  11.700  0.00  0.00    +0.000 OA
BRANCH  19  20
ATOM     20  C   UNL     1      46.612   6.440  11.768  0.00  0.00    +0.000 A 
ATOM     21  C   UNL     1      46.572   5.739  12.962  0.00  0.00    +0.000 A 
ATOM     22  C   UNL     1      45.751   4.616  13.050  0.00  0.00    +0.000 A 
ATOM     23  C   UNL     1      44.997   4.234  11.938  0.00  0.00    +0.000 A 
ATOM     24  C   UNL     1      45.101   5.004  10.787  0.00  0.00    +0.000 A 
ATOM     25  N   UNL     1      45.888   6.099  10.678  0.00  0.00    +0.000 NA
BRANCH  23  26
ATOM     26  C   UNL     1      44.137   3.034  11.907  0.00  0.00    +0.000 C 
ATOM     27  N   UNL     1      44.042   2.352  10.727  0.00  0.00    +0.000 N 
ATOM     28  O   UNL     1      43.546   2.651  12.907  0.00  0.00    +0.000 OA
ATOM     29  H   UNL     1      44.654   2.509   9.940  0.00  0.00    +0.000 HD
ATOM     30  H   UNL     1      43.507   1.492  10.745  0.00  0.00    +0.000 HD
ENDBRANCH  23  26
ENDBRANCH  19  20
ENDBRANCH  18  19
ENDBRANCH   1  18
TORSDOF 8
ENDMDL
MODEL 8
REMARK VINA RESULT:    -6.155      3.961      6.207
REMARK INTER + INTRA:         -10.247
REMARK INTER:                  -8.619
REMARK INTRA:                  -1.628
REMARK UNBOUND:                -1.213
REMARK  Name = 
REMARK  10 active torsions:
REMARK  status: ('A' for Active; 'I' for Inactive)
REMARK    1  A    between atoms: C_1  and  C_2
REMARK    2  A    between atoms: C_2  and  C_3
REMARK    3  A    between atoms: C_3  and  C_4
REMARK    4  A    between atoms: C_3  and  C_15
REMARK    5  A    between atoms: C_4  and  O_5
REMARK    6  A    between atoms: O_5  and  C_6
REMARK    7  A    between atoms: C_9  and  C_10
REMARK    8  A    between atoms: C_19  and  C_20
REMARK    9  A    between atoms: C_25  and  O_26
REMARK   10  A    between atoms: O_26  and  C_27
REMARK                            x       y       z     vdW  Elec       q    Type
REMARK                         _______ _______ _______ _____ _____    ______ ____
ROOT
ATOM      1  C   UNL     1      48.500   3.152  17.288  0.00  0.00    +0.000 C 
ENDROOT
BRANCH   1   2
ATOM      2  C   UNL     1      49.305   4.372  17.714  0.00  0.00    +0.000 A 
ATOM      3  C   UNL     1      49.452   4.745  19.053  0.00  0.00    +0.000 A 
ATOM      4  C   UNL     1      50.138   5.911  19.379  0.00  0.00    +0.000 A 
ATOM      5  C   UNL     1      50.662   6.730  18.374  0.00  0.00    +0.000 A 
ATOM      6  C   UNL     1      50.561   6.391  17.015  0.00  0.00    +0.000 A 
ATOM      7  C   UNL     1      49.893   5.179  16.725  0.00  0.00    +0.000 A 
BRANCH   6   8
ATOM      8  C   UNL     1      51.042   7.284  15.916  0.00  0.00    +0.000 A 
ATOM      9  C   UNL     1      52.431   7.318  15.640  0.00  0.00    +0.000 A 
ATOM     10  C   UNL     1      52.977   8.088  14.612  0.00  0.00    +0.000 A 
ATOM     11  C   UNL     1      52.146   8.853  13.817  0.00  0.00    +0.000 A 
ATOM     12  C   UNL     1      50.773   8.857  14.056  0.00  0.00    +0.000 A 
ATOM     13  C   UNL     1      50.209   8.074  15.084  0.00  0.00    +0.000 A 
BRANCH  13  14
ATOM     14  O   UNL     1      48.856   8.095  15.328  0.00  0.00    +0.000 OA
ATOM     15  C   UNL     1      48.354   9.260  15.982  0.00  0.00    +0.000 C 
ENDBRANCH  13  14
ENDBRANCH   6   8
ENDBRANCH   1   2
BRANCH   1  17
ATOM     16  C   UNL     1      50.736   1.882  17.327  0.00  0.00    +0.000 C 
ATOM     17  C   UNL     1      49.394   2.079  16.624  0.00  0.00    +0.000 C 
ENDBRANCH   1  17
BRANCH   1  18
ATOM     18  C   UNL     1      47.331   3.547  16.365  0.00  0.00    +0.000 C 
BRANCH  18  19
ATOM     19  O   UNL     1      47.615   3.095  15.031  0.00  0.00    +0.000 OA
BRANCH  19  20
ATOM     20  C   UNL     1      46.964   3.830  14.064  0.00  0.00    +0.000 A 
ATOM     21  C   UNL     1      47.238   5.186  14.010  0.00  0.00    +0.000 A 
ATOM     22  C   UNL     1      46.562   5.968  13.074  0.00  0.00    +0.000 A 
ATOM     23  C   UNL     1      45.635   5.361  12.223  0.00  0.00    +0.000 A 
ATOM     24  C   UNL     1      45.433   3.994  12.351  0.00  0.00    +0.000 A 
ATOM     25  N   UNL     1      46.078   3.214  13.248  0.00  0.00    +0.000 NA
BRANCH  23  26
ATOM     26  C   UNL     1      44.828   6.102  11.232  0.00  0.00    +0.000 C 
ATOM     27  N   UNL     1      44.185   5.379  10.269  0.00  0.00    +0.000 N 
ATOM     28  O   UNL     1      44.720   7.320  11.286  0.00  0.00    +0.000 OA
ATOM     29  H   UNL     1      44.082   4.376  10.299  0.00  0.00    +0.000 HD
ATOM     30  H   UNL     1      43.578   5.897   9.645  0.00  0.00    +0.000 HD
ENDBRANCH  23  26
ENDBRANCH  19  20
ENDBRANCH  18  19
ENDBRANCH   1  18
TORSDOF 8
ENDMDL
MODEL 9
REMARK VINA RESULT:    -6.074      3.438      6.536
REMARK INTER + INTRA:         -10.128
REMARK INTER:                  -8.996
REMARK INTRA:                  -1.132
REMARK UNBOUND:                -1.213
REMARK  Name = 
REMARK  10 active torsions:
REMARK  status: ('A' for Active; 'I' for Inactive)
REMARK    1  A    between atoms: C_1  and  C_2
REMARK    2  A    between atoms: C_2  and  C_3
REMARK    3  A    between atoms: C_3  and  C_4
REMARK    4  A    between atoms: C_3  and  C_15
REMARK    5  A    between atoms: C_4  and  O_5
REMARK    6  A    between atoms: O_5  and  C_6
REMARK    7  A    between atoms: C_9  and  C_10
REMARK    8  A    between atoms: C_19  and  C_20
REMARK    9  A    between atoms: C_25  and  O_26
REMARK   10  A    between atoms: O_26  and  C_27
REMARK                            x       y       z     vdW  Elec       q    Type
REMARK                         _______ _______ _______ _____ _____    ______ ____
ROOT
ATOM      1  C   UNL     1      48.297   7.420  12.838  0.00  0.00    +0.000 C 
ENDROOT
BRANCH   1   2
ATOM      2  C   UNL     1      49.272   7.430  14.008  0.00  0.00    +0.000 A 
ATOM      3  C   UNL     1      50.590   7.876  13.883  0.00  0.00    +0.000 A 
ATOM      4  C   UNL     1      51.458   7.794  14.968  0.00  0.00    +0.000 A 
ATOM      5  C   UNL     1      51.029   7.242  16.180  0.00  0.00    +0.000 A 
ATOM      6  C   UNL     1      49.709   6.799  16.363  0.00  0.00    +0.000 A 
ATOM      7  C   UNL     1      48.846   6.937  15.253  0.00  0.00    +0.000 A 
BRANCH   6   8
ATOM      8  C   UNL     1      49.243   6.134  17.620  0.00  0.00    +0.000 A 
ATOM      9  C   UNL     1      48.941   6.951  18.737  0.00  0.00    +0.000 A 
ATOM     10  C   UNL     1      48.463   6.433  19.942  0.00  0.00    +0.000 A 
ATOM     11  C   UNL     1      48.267   5.073  20.071  0.00  0.00    +0.000 A 
ATOM     12  C   UNL     1      48.559   4.229  19.001  0.00  0.00    +0.000 A 
ATOM     13  C   UNL     1      49.030   4.741  17.774  0.00  0.00    +0.000 A 
BRANCH  13  14
ATOM     14  O   UNL     1      49.334   3.904  16.727  0.00  0.00    +0.000 OA
ATOM     15  C   UNL     1      48.659   2.646  16.713  0.00  0.00    +0.000 C 
ENDBRANCH  13  14
ENDBRANCH   6   8
ENDBRANCH   1   2
BRANCH   1  17
ATOM     16  C   UNL     1      48.570   9.812  11.934  0.00  0.00    +0.000 C 
ATOM     17  C   UNL     1      48.784   8.322  11.679  0.00  0.00    +0.000 C 
ENDBRANCH   1  17
BRANCH   1  18
ATOM     18  C   UNL     1      46.878   7.815  13.289  0.00  0.00    +0.000 C 
BRANCH  18  19
ATOM     19  O   UNL     1      46.016   7.855  12.140  0.00  0.00    +0.000 OA
BRANCH  19  20
ATOM     20  C   UNL     1      45.451   6.632  11.849  0.00  0.00    +0.000 A 
ATOM     21  C   UNL     1      44.802   5.975  12.881  0.00  0.00    +0.000 A 
ATOM     22  C   UNL     1      44.260   4.715  12.635  0.00  0.00    +0.000 A 
ATOM     23  C   UNL     1      44.384   4.158  11.360  0.00  0.00    +0.000 A 
ATOM     24  C   UNL     1      45.048   4.896  10.389  0.00  0.00    +0.000 A 
ATOM     25  N   UNL     1      45.580   6.121  10.603  0.00  0.00    +0.000 NA
BRANCH  23  26
ATOM     26  C   UNL     1      43.892   2.811  11.004  0.00  0.00    +0.000 C 
ATOM     27  N   UNL     1      44.497   2.169   9.962  0.00  0.00    +0.000 N 
ATOM     28  O   UNL     1      42.989   2.279  11.636  0.00  0.00    +0.000 OA
ATOM     29  H   UNL     1      45.362   2.476   9.542  0.00  0.00    +0.000 HD
ATOM     30  H   UNL     1      44.196   1.219   9.781  0.00  0.00    +0.000 HD
ENDBRANCH  23  26
ENDBRANCH  19  20
ENDBRANCH  18  19
ENDBRANCH   1  18
TORSDOF 8
ENDMDL
