MODEL 1
REMARK VINA RESULT:    -8.318      0.000      0.000
REMARK INTER + INTRA:         -13.460
REMARK INTER:                 -12.452
REMARK INTRA:                  -1.008
REMARK UNBOUND:                -1.008
REMARK  Name = 
REMARK  9 active torsions:
REMARK  status: ('A' for Active; 'I' for Inactive)
REMARK    1  A    between atoms: N_1  and  C_2
REMARK    2  A    between atoms: C_2  and  C_3
REMARK    3  A    between atoms: C_5  and  C_6
REMARK    4  A    between atoms: C_6  and  N_7
REMARK    5  A    between atoms: N_7  and  C_8
REMARK    6  A    between atoms: C_8  and  C_9
REMARK    7  A    between atoms: C_17  and  C_18
REMARK    8  A    between atoms: C_18  and  N_19
REMARK    9  A    between atoms: C_20  and  C_22
REMARK                            x       y       z     vdW  Elec       q    Type
REMARK                         _______ _______ _______ _____ _____    ______ ____
ROOT
ATOM      1  C   UNL     1      45.973   6.142  12.620  0.00  0.00    +0.000 A 
ATOM      2  C   UNL     1      44.929   5.578  11.864  0.00  0.00    +0.000 A 
ATOM      3  C   UNL     1      44.710   4.193  11.811  0.00  0.00    +0.000 A 
ATOM      4  C   UNL     1      45.566   3.353  12.523  0.00  0.00    +0.000 A 
ATOM      5  C   UNL     1      46.573   3.896  13.324  0.00  0.00    +0.000 A 
ATOM      6  C   UNL     1      46.761   5.289  13.417  0.00  0.00    +0.000 A 
ENDROOT
BRANCH   1   7
ATOM      7  C   UNL     1      46.231   7.625  12.472  0.00  0.00    +0.000 C 
BRANCH   7   8
ATOM      8  N   UNL     1      45.073   8.436  12.824  0.00  0.00    +0.000 NA
ATOM      9  H   UNL     1      44.958   9.170  12.128  0.00  0.00    +0.000 HD
ATOM     10  H   UNL     1      45.247   8.900  13.713  0.00  0.00    +0.000 HD
ENDBRANCH   7   8
ENDBRANCH   1   7
BRANCH   3  11
ATOM     11  C   UNL     1      43.578   3.641  10.976  0.00  0.00    +0.000 C 
BRANCH  11  12
ATOM     12  N   UNL     1      44.112   2.810   9.902  0.00  0.00    +0.000 NA
ATOM     13  H   UNL     1      43.373   2.199   9.558  0.00  0.00    +0.000 HD
BRANCH  12  14
ATOM     14  C   UNL     1      44.648   3.600   8.804  0.00  0.00    +0.000 C 
BRANCH  14  15
ATOM     15  C   UNL     1      45.773   2.856   8.124  0.00  0.00    +0.000 A 
ATOM     16  C   UNL     1      46.667   3.517   7.280  0.00  0.00    +0.000 A 
ATOM     17  C   UNL     1      47.669   2.778   6.669  0.00  0.00    +0.000 A 
ATOM     18  N   UNL     1      47.838   1.448   6.837  0.00  0.00    +0.000 NA
ATOM     19  C   UNL     1      46.966   0.826   7.655  0.00  0.00    +0.000 A 
ATOM     20  C   UNL     1      45.933   1.477   8.315  0.00  0.00    +0.000 A 
ENDBRANCH  14  15
ENDBRANCH  12  14
ENDBRANCH  11  12
ENDBRANCH   3  11
BRANCH   6  21
ATOM     21  C   UNL     1      47.714   5.799  14.461  0.00  0.00    +0.000 C 
BRANCH  21  22
ATOM     22  N   UNL     1      47.496   5.315  15.799  0.00  0.00    +0.000 N 
ATOM     23  C   UNL     1      48.596   5.317  16.634  0.00  0.00    +0.000 C 
ATOM     24  O   UNL     1      49.658   5.819  16.264  0.00  0.00    +0.000 OA
ATOM     25  H   UNL     1      46.643   4.834  16.050  0.00  0.00    +0.000 HD
BRANCH  23  26
ATOM     26  C   UNL     1      48.488   4.660  17.929  0.00  0.00    +0.000 A 
ATOM     27  C   UNL     1      48.671   3.324  18.275  0.00  0.00    +0.000 A 
ATOM     28  N   UNL     1      48.568   3.218  19.645  0.00  0.00    +0.000 N 
ATOM     29  C   UNL     1      48.327   4.446  20.195  0.00  0.00    +0.000 A 
ATOM     30  N   UNL     1      48.246   4.701  21.515  0.00  0.00    +0.000 NA
ATOM     31  C   UNL     1      47.993   6.008  21.781  0.00  0.00    +0.000 A 
ATOM     32  C   UNL     1      47.777   7.005  20.841  0.00  0.00    +0.000 A 
ATOM     33  C   UNL     1      47.866   6.677  19.491  0.00  0.00    +0.000 A 
ATOM     34  C   UNL     1      48.192   5.351  19.153  0.00  0.00    +0.000 A 
ATOM     35  H   UNL     1      48.674   2.377  20.197  0.00  0.00    +0.000 HD
ENDBRANCH  23  26
ENDBRANCH  21  22
ENDBRANCH   6  21
TORSDOF 9
ENDMDL
MODEL 2
REMARK VINA RESULT:    -7.769      1.733      2.385
REMARK INTER + INTRA:         -12.637
REMARK INTER:                 -11.459
REMARK INTRA:                  -1.179
REMARK UNBOUND:                -1.008
REMARK  Name = 
REMARK  9 active torsions:
REMARK  status: ('A' for Active; 'I' for Inactive)
REMARK    1  A    between atoms: N_1  and  C_2
REMARK    2  A    between atoms: C_2  and  C_3
REMARK    3  A    between atoms: C_5  and  C_6
REMARK    4  A    between atoms: C_6  and  N_7
REMARK    5  A    between atoms: N_7  and  C_8
REMARK    6  A    between atoms: C_8  and  C_9
REMARK    7  A    between atoms: C_17  and  C_18
REMARK    8  A    between atoms: C_18  and  N_19
REMARK    9  A    between atoms: C_20  and  C_22
REMARK                            x       y       z     vdW  Elec       q    Type
REMARK                         _______ _______ _______ _____ _____    ______ ____
ROOT
ATOM      1  C   UNL     1      45.497   7.800  12.080  0.00  0.00    +0.000 A 
ATOM      2  C   UNL     1      44.489   6.967  11.560  0.00  0.00    +0.000 A 
ATOM      3  C   UNL     1      44.575   5.567  11.618  0.00  0.00    +0.000 A 
ATOM      4  C   UNL     1      45.703   4.990  12.201  0.00  0.00    +0.000 A 
ATOM      5  C   UNL     1      46.686   5.799  12.773  0.00  0.00    +0.000 A 
ATOM      6  C   UNL     1      46.577   7.203  12.759  0.00  0.00    +0.000 A 
ENDROOT
BRANCH   1   7
ATOM      7  C   UNL     1      45.393   9.285  11.813  0.00  0.00    +0.000 C 
BRANCH   7   8
ATOM      8  N   UNL     1      44.331   9.923  12.580  0.00  0.00    +0.000 NA
ATOM      9  H   UNL     1      43.511  10.030  11.986  0.00  0.00    +0.000 HD
ATOM     10  H   UNL     1      44.626  10.860  12.844  0.00  0.00    +0.000 HD
ENDBRANCH   7   8
ENDBRANCH   1   7
BRANCH   3  11
ATOM     11  C   UNL     1      43.467   4.721  11.035  0.00  0.00    +0.000 C 
BRANCH  11  12
ATOM     12  N   UNL     1      44.032   3.679  10.185  0.00  0.00    +0.000 NA
ATOM     13  H   UNL     1      43.333   2.951  10.044  0.00  0.00    +0.000 HD
BRANCH  12  14
ATOM     14  C   UNL     1      44.473   4.192   8.898  0.00  0.00    +0.000 C 
BRANCH  14  15
ATOM     15  C   UNL     1      45.517   3.279   8.299  0.00  0.00    +0.000 A 
ATOM     16  C   UNL     1      46.482   3.770   7.416  0.00  0.00    +0.000 A 
ATOM     17  C   UNL     1      47.403   2.880   6.884  0.00  0.00    +0.000 A 
ATOM     18  N   UNL     1      47.429   1.559   7.165  0.00  0.00    +0.000 NA
ATOM     19  C   UNL     1      46.491   1.103   8.018  0.00  0.00    +0.000 A 
ATOM     20  C   UNL     1      45.528   1.912   8.606  0.00  0.00    +0.000 A 
ENDBRANCH  14  15
ENDBRANCH  12  14
ENDBRANCH  11  12
ENDBRANCH   3  11
BRANCH   6  21
ATOM     21  C   UNL     1      47.557   7.991  13.582  0.00  0.00    +0.000 C 
BRANCH  21  22
ATOM     22  N   UNL     1      47.846   7.461  14.889  0.00  0.00    +0.000 N 
ATOM     23  C   UNL     1      49.166   7.133  15.134  0.00  0.00    +0.000 C 
ATOM     24  O   UNL     1      50.038   7.399  14.307  0.00  0.00    +0.000 OA
ATOM     25  H   UNL     1      47.107   7.176  15.515  0.00  0.00    +0.000 HD
BRANCH  23  26
ATOM     26  C   UNL     1      49.488   6.413  16.359  0.00  0.00    +0.000 A 
ATOM     27  C   UNL     1      50.402   6.715  17.363  0.00  0.00    +0.000 A 
ATOM     28  N   UNL     1      50.257   5.785  18.370  0.00  0.00    +0.000 N 
ATOM     29  C   UNL     1      49.274   4.892  18.046  0.00  0.00    +0.000 A 
ATOM     30  N   UNL     1      48.833   3.902  18.845  0.00  0.00    +0.000 NA
ATOM     31  C   UNL     1      47.852   3.161  18.270  0.00  0.00    +0.000 A 
ATOM     32  C   UNL     1      47.357   3.323  16.984  0.00  0.00    +0.000 A 
ATOM     33  C   UNL     1      47.858   4.360  16.204  0.00  0.00    +0.000 A 
ATOM     34  C   UNL     1      48.830   5.204  16.770  0.00  0.00    +0.000 A 
ATOM     35  H   UNL     1      50.767   5.753  19.242  0.00  0.00    +0.000 HD
ENDBRANCH  23  26
ENDBRANCH  21  22
ENDBRANCH   6  21
TORSDOF 9
ENDMDL
MODEL 3
REMARK VINA RESULT:    -7.629      3.279      5.160
REMARK INTER + INTRA:         -12.428
REMARK INTER:                 -11.379
REMARK INTRA:                  -1.049
REMARK UNBOUND:                -1.008
REMARK  Name = 
REMARK  9 active torsions:
REMARK  status: ('A' for Active; 'I' for Inactive)
REMARK    1  A    between atoms: N_1  and  C_2
REMARK    2  A    between atoms: C_2  and  C_3
REMARK    3  A    between atoms: C_5  and  C_6
REMARK    4  A    between atoms: C_6  and  N_7
REMARK    5  A    between atoms: N_7  and  C_8
REMARK    6  A    between atoms: C_8  and  C_9
REMARK    7  A    between atoms: C_17  and  C_18
REMARK    8  A    between atoms: C_18  and  N_19
REMARK    9  A    between atoms: C_20  and  C_22
REMARK                            x       y       z     vdW  Elec       q    Type
REMARK                         _______ _______ _______ _____ _____    ______ ____
ROOT
ATOM      1  C   UNL     1      44.444   3.732  11.269  0.00  0.00    +0.000 A 
ATOM      2  C   UNL     1      44.601   3.261   9.953  0.00  0.00    +0.000 A 
ATOM      3  C   UNL     1      45.214   4.033   8.953  0.00  0.00    +0.000 A 
ATOM      4  C   UNL     1      45.669   5.310   9.279  0.00  0.00    +0.000 A 
ATOM      5  C   UNL     1      45.574   5.773  10.593  0.00  0.00    +0.000 A 
ATOM      6  C   UNL     1      45.004   4.979  11.607  0.00  0.00    +0.000 A 
ENDROOT
BRANCH   1   7
ATOM      7  C   UNL     1      43.618   2.898  12.223  0.00  0.00    +0.000 C 
BRANCH   7   8
ATOM      8  N   UNL     1      42.900   1.822  11.553  0.00  0.00    +0.000 NA
ATOM      9  H   UNL     1      42.182   2.225  10.955  0.00  0.00    +0.000 HD
ATOM     10  H   UNL     1      42.417   1.257  12.250  0.00  0.00    +0.000 HD
ENDBRANCH   7   8
ENDBRANCH   1   7
BRANCH   3  11
ATOM     11  C   UNL     1      45.348   3.481   7.553  0.00  0.00    +0.000 C 
BRANCH  11  12
ATOM     12  N   UNL     1      46.578   3.971   6.941  0.00  0.00    +0.000 NA
ATOM     13  H   UNL     1      46.901   4.788   7.457  0.00  0.00    +0.000 HD
BRANCH  12  14
ATOM     14  C   UNL     1      47.624   2.962   6.911  0.00  0.00    +0.000 C 
BRANCH  14  15
ATOM     15  C   UNL     1      47.307   1.907   5.877  0.00  0.00    +0.000 A 
ATOM     16  C   UNL     1      46.970   2.261   4.569  0.00  0.00    +0.000 A 
ATOM     17  C   UNL     1      46.671   1.249   3.668  0.00  0.00    +0.000 A 
ATOM     18  N   UNL     1      46.682  -0.066   3.976  0.00  0.00    +0.000 NA
ATOM     19  C   UNL     1      47.009  -0.388   5.243  0.00  0.00    +0.000 A 
ATOM     20  C   UNL     1      47.328   0.548   6.216  0.00  0.00    +0.000 A 
ENDBRANCH  14  15
ENDBRANCH  12  14
ENDBRANCH  11  12
ENDBRANCH   3  11
BRANCH   6  21
ATOM     21  C   UNL     1      45.137   5.455  13.027  0.00  0.00    +0.000 C 
BRANCH  21  22
ATOM     22  N   UNL     1      46.241   6.340  13.291  0.00  0.00    +0.000 N 
ATOM     23  C   UNL     1      47.396   5.748  13.765  0.00  0.00    +0.000 C 
ATOM     24  O   UNL     1      47.484   4.522  13.835  0.00  0.00    +0.000 OA
ATOM     25  H   UNL     1      46.117   7.343  13.306  0.00  0.00    +0.000 HD
BRANCH  23  26
ATOM     26  C   UNL     1      48.475   6.607  14.235  0.00  0.00    +0.000 A 
ATOM     27  C   UNL     1      48.902   6.881  15.530  0.00  0.00    +0.000 A 
ATOM     28  N   UNL     1      50.033   7.666  15.452  0.00  0.00    +0.000 N 
ATOM     29  C   UNL     1      50.350   7.903  14.143  0.00  0.00    +0.000 A 
ATOM     30  N   UNL     1      51.438   8.574  13.719  0.00  0.00    +0.000 NA
ATOM     31  C   UNL     1      51.503   8.666  12.367  0.00  0.00    +0.000 A 
ATOM     32  C   UNL     1      50.556   8.192  11.471  0.00  0.00    +0.000 A 
ATOM     33  C   UNL     1      49.448   7.514  11.971  0.00  0.00    +0.000 A 
ATOM     34  C   UNL     1      49.359   7.327  13.362  0.00  0.00    +0.000 A 
ATOM     35  H   UNL     1      50.585   8.010  16.225  0.00  0.00    +0.000 HD
ENDBRANCH  23  26
ENDBRANCH  21  22
ENDBRANCH   6  21
TORSDOF 9
ENDMDL
MODEL 4
REMARK VINA RESULT:    -7.485      1.844      2.505
REMARK INTER + INTRA:         -12.213
REMARK INTER:                 -11.388
REMARK INTRA:                  -0.825
REMARK UNBOUND:                -1.008
REMARK  Name = 
REMARK  9 active torsions:
REMARK  status: ('A' for Active; 'I' for Inactive)
REMARK    1  A    between atoms: N_1  and  C_2
REMARK    2  A    between atoms: C_2  and  C_3
REMARK    3  A    between atoms: C_5  and  C_6
REMARK    4  A    between atoms: C_6  and  N_7
REMARK    5  A    between atoms: N_7  and  C_8
REMARK    6  A    between atoms: C_8  and  C_9
REMARK    7  A    between atoms: C_17  and  C_18
REMARK    8  A    between atoms: C_18  and  N_19
REMARK    9  A    between atoms: C_20  and  C_22
REMARK                            x       y       z     vdW  Elec       q    Type
REMARK                         _______ _______ _______ _____ _____    ______ ____
ROOT
ATOM      1  C   UNL     1      46.987   5.569  13.142  0.00  0.00    +0.000 A 
ATOM      2  C   UNL     1      46.207   5.898  12.017  0.00  0.00    +0.000 A 
ATOM      3  C   UNL     1      45.342   4.974  11.413  0.00  0.00    +0.000 A 
ATOM      4  C   UNL     1      45.264   3.686  11.942  0.00  0.00    +0.000 A 
ATOM      5  C   UNL     1      45.986   3.356  13.091  0.00  0.00    +0.000 A 
ATOM      6  C   UNL     1      46.817   4.299  13.727  0.00  0.00    +0.000 A 
ENDROOT
BRANCH   1   7
ATOM      7  C   UNL     1      48.013   6.576  13.609  0.00  0.00    +0.000 C 
BRANCH   7   8
ATOM      8  N   UNL     1      49.277   6.466  12.892  0.00  0.00    +0.000 NA
ATOM      9  H   UNL     1      49.159   6.838  11.952  0.00  0.00    +0.000 HD
ATOM     10  H   UNL     1      49.520   5.483  12.790  0.00  0.00    +0.000 HD
ENDBRANCH   7   8
ENDBRANCH   1   7
BRANCH   3  11
ATOM     11  C   UNL     1      44.535   5.379  10.201  0.00  0.00    +0.000 C 
BRANCH  11  12
ATOM     12  N   UNL     1      45.260   5.034   8.983  0.00  0.00    +0.000 NA
ATOM     13  H   UNL     1      46.239   4.872   9.216  0.00  0.00    +0.000 HD
BRANCH  12  14
ATOM     14  C   UNL     1      44.710   3.860   8.324  0.00  0.00    +0.000 C 
BRANCH  14  15
ATOM     15  C   UNL     1      45.823   2.965   7.832  0.00  0.00    +0.000 A 
ATOM     16  C   UNL     1      45.899   1.628   8.227  0.00  0.00    +0.000 A 
ATOM     17  C   UNL     1      46.955   0.860   7.757  0.00  0.00    +0.000 A 
ATOM     18  N   UNL     1      47.923   1.324   6.937  0.00  0.00    +0.000 NA
ATOM     19  C   UNL     1      47.833   2.617   6.567  0.00  0.00    +0.000 A 
ATOM     20  C   UNL     1      46.816   3.466   6.980  0.00  0.00    +0.000 A 
ENDBRANCH  14  15
ENDBRANCH  12  14
ENDBRANCH  11  12
ENDBRANCH   3  11
BRANCH   6  21
ATOM     21  C   UNL     1      47.384   3.940  15.071  0.00  0.00    +0.000 C 
BRANCH  21  22
ATOM     22  N   UNL     1      47.270   4.951  16.090  0.00  0.00    +0.000 N 
ATOM     23  C   UNL     1      48.321   5.037  16.983  0.00  0.00    +0.000 C 
ATOM     24  O   UNL     1      49.334   4.356  16.820  0.00  0.00    +0.000 OA
ATOM     25  H   UNL     1      46.399   5.436  16.252  0.00  0.00    +0.000 HD
BRANCH  23  26
ATOM     26  C   UNL     1      48.176   5.900  18.147  0.00  0.00    +0.000 A 
ATOM     27  C   UNL     1      47.907   5.578  19.473  0.00  0.00    +0.000 A 
ATOM     28  N   UNL     1      47.980   6.736  20.219  0.00  0.00    +0.000 N 
ATOM     29  C   UNL     1      48.292   7.795  19.412  0.00  0.00    +0.000 A 
ATOM     30  N   UNL     1      48.509   9.054  19.837  0.00  0.00    +0.000 NA
ATOM     31  C   UNL     1      48.795   9.908  18.821  0.00  0.00    +0.000 A 
ATOM     32  C   UNL     1      48.820   9.589  17.471  0.00  0.00    +0.000 A 
ATOM     33  C   UNL     1      48.578   8.272  17.094  0.00  0.00    +0.000 A 
ATOM     34  C   UNL     1      48.342   7.326  18.108  0.00  0.00    +0.000 A 
ATOM     35  H   UNL     1      47.854   6.821  21.218  0.00  0.00    +0.000 HD
ENDBRANCH  23  26
ENDBRANCH  21  22
ENDBRANCH   6  21
TORSDOF 9
ENDMDL
MODEL 5
REMARK VINA RESULT:    -7.177      2.438      4.051
REMARK INTER + INTRA:         -11.751
REMARK INTER:                 -10.876
REMARK INTRA:                  -0.875
REMARK UNBOUND:                -1.008
REMARK  Name = 
REMARK  9 active torsions:
REMARK  status: ('A' for Active; 'I' for Inactive)
REMARK    1  A    between atoms: N_1  and  C_2
REMARK    2  A    between atoms: C_2  and  C_3
REMARK    3  A    between atoms: C_5  and  C_6
REMARK    4  A    between atoms: C_6  and  N_7
REMARK    5  A    between atoms: N_7  and  C_8
REMARK    6  A    between atoms: C_8  and  C_9
REMARK    7  A    between atoms: C_17  and  C_18
REMARK    8  A    between atoms: C_18  and  N_19
REMARK    9  A    between atoms: C_20  and  C_22
REMARK                            x       y       z     vdW  Elec       q    Type
REMARK                         _______ _______ _______ _____ _____    ______ ____
ROOT
ATOM      1  C   UNL     1      44.368   3.769  11.336  0.00  0.00    +0.000 A 
ATOM      2  C   UNL     1      44.499   3.393   9.986  0.00  0.00    +0.000 A 
ATOM      3  C   UNL     1      45.144   4.208   9.044  0.00  0.00    +0.000 A 
ATOM      4  C   UNL     1      45.661   5.434   9.463  0.00  0.00    +0.000 A 
ATOM      5  C   UNL     1      45.592   5.800  10.808  0.00  0.00    +0.000 A 
ATOM      6  C   UNL     1      44.988   4.959  11.764  0.00  0.00    +0.000 A 
ENDROOT
BRANCH   1   7
ATOM      7  C   UNL     1      43.506   2.905  12.229  0.00  0.00    +0.000 C 
BRANCH   7   8
ATOM      8  N   UNL     1      42.890   1.794  11.514  0.00  0.00    +0.000 NA
ATOM      9  H   UNL     1      43.612   1.284  11.009  0.00  0.00    +0.000 HD
ATOM     10  H   UNL     1      42.247   2.160  10.816  0.00  0.00    +0.000 HD
ENDBRANCH   7   8
ENDBRANCH   1   7
BRANCH   3  11
ATOM     11  C   UNL     1      45.248   3.758   7.605  0.00  0.00    +0.000 C 
BRANCH  11  12
ATOM     12  N   UNL     1      46.594   4.011   7.101  0.00  0.00    +0.000 NA
ATOM     13  H   UNL     1      46.999   4.791   7.616  0.00  0.00    +0.000 HD
BRANCH  12  14
ATOM     14  C   UNL     1      47.456   2.845   7.215  0.00  0.00    +0.000 C 
BRANCH  14  15
ATOM     15  C   UNL     1      47.202   1.891   6.072  0.00  0.00    +0.000 A 
ATOM     16  C   UNL     1      47.278   0.509   6.258  0.00  0.00    +0.000 A 
ATOM     17  C   UNL     1      47.053  -0.317   5.166  0.00  0.00    +0.000 A 
ATOM     18  N   UNL     1      46.763   0.130   3.925  0.00  0.00    +0.000 NA
ATOM     19  C   UNL     1      46.695   1.467   3.765  0.00  0.00    +0.000 A 
ATOM     20  C   UNL     1      46.901   2.376   4.793  0.00  0.00    +0.000 A 
ENDBRANCH  14  15
ENDBRANCH  12  14
ENDBRANCH  11  12
ENDBRANCH   3  11
BRANCH   6  21
ATOM     21  C   UNL     1      45.147   5.318  13.214  0.00  0.00    +0.000 C 
BRANCH  21  22
ATOM     22  N   UNL     1      46.243   6.198  13.525  0.00  0.00    +0.000 N 
ATOM     23  C   UNL     1      47.396   5.595  13.991  0.00  0.00    +0.000 C 
ATOM     24  O   UNL     1      47.490   4.367  14.015  0.00  0.00    +0.000 OA
ATOM     25  H   UNL     1      46.114   7.199  13.577  0.00  0.00    +0.000 HD
BRANCH  23  26
ATOM     26  C   UNL     1      48.464   6.440  14.507  0.00  0.00    +0.000 A 
ATOM     27  C   UNL     1      49.283   7.351  13.848  0.00  0.00    +0.000 A 
ATOM     28  N   UNL     1      50.064   7.985  14.791  0.00  0.00    +0.000 N 
ATOM     29  C   UNL     1      49.770   7.512  16.039  0.00  0.00    +0.000 A 
ATOM     30  N   UNL     1      50.302   7.973  17.188  0.00  0.00    +0.000 NA
ATOM     31  C   UNL     1      49.836   7.317  18.282  0.00  0.00    +0.000 A 
ATOM     32  C   UNL     1      48.953   6.247  18.276  0.00  0.00    +0.000 A 
ATOM     33  C   UNL     1      48.445   5.811  17.056  0.00  0.00    +0.000 A 
ATOM     34  C   UNL     1      48.839   6.495  15.892  0.00  0.00    +0.000 A 
ATOM     35  H   UNL     1      50.743   8.714  14.623  0.00  0.00    +0.000 HD
ENDBRANCH  23  26
ENDBRANCH  21  22
ENDBRANCH   6  21
TORSDOF 9
ENDMDL
MODEL 6
REMARK VINA RESULT:    -6.937      2.319      2.944
REMARK INTER + INTRA:         -11.393
REMARK INTER:                 -10.480
REMARK INTRA:                  -0.912
REMARK UNBOUND:                -1.008
REMARK  Name = 
REMARK  9 active torsions:
REMARK  status: ('A' for Active; 'I' for Inactive)
REMARK    1  A    between atoms: N_1  and  C_2
REMARK    2  A    between atoms: C_2  and  C_3
REMARK    3  A    between atoms: C_5  and  C_6
REMARK    4  A    between atoms: C_6  and  N_7
REMARK    5  A    between atoms: N_7  and  C_8
REMARK    6  A    between atoms: C_8  and  C_9
REMARK    7  A    between atoms: C_17  and  C_18
REMARK    8  A    between atoms: C_18  and  N_19
REMARK    9  A    between atoms: C_20  and  C_22
REMARK                            x       y       z     vdW  Elec       q    Type
REMARK                         _______ _______ _______ _____ _____    ______ ____
ROOT
ATOM      1  C   UNL     1      47.679   6.816  12.357  0.00  0.00    +0.000 A 
ATOM      2  C   UNL     1      46.644   6.560  11.439  0.00  0.00    +0.000 A 
ATOM      3  C   UNL     1      45.692   5.551  11.650  0.00  0.00    +0.000 A 
ATOM      4  C   UNL     1      45.787   4.773  12.803  0.00  0.00    +0.000 A 
ATOM      5  C   UNL     1      46.772   5.047  13.753  0.00  0.00    +0.000 A 
ATOM      6  C   UNL     1      47.697   6.092  13.565  0.00  0.00    +0.000 A 
ENDROOT
BRANCH   1   7
ATOM      7  C   UNL     1      48.751   7.803  11.955  0.00  0.00    +0.000 C 
BRANCH   7   8
ATOM      8  N   UNL     1      48.600   9.097  12.609  0.00  0.00    +0.000 NA
ATOM      9  H   UNL     1      49.348   9.214  13.288  0.00  0.00    +0.000 HD
ATOM     10  H   UNL     1      47.726   9.108  13.130  0.00  0.00    +0.000 HD
ENDBRANCH   7   8
ENDBRANCH   1   7
BRANCH   3  11
ATOM     11  C   UNL     1      44.606   5.315  10.625  0.00  0.00    +0.000 C 
BRANCH  11  12
ATOM     12  N   UNL     1      45.204   5.037   9.323  0.00  0.00    +0.000 NA
ATOM     13  H   UNL     1      46.212   4.947   9.435  0.00  0.00    +0.000 HD
BRANCH  12  14
ATOM     14  C   UNL     1      44.667   3.831   8.713  0.00  0.00    +0.000 C 
BRANCH  14  15
ATOM     15  C   UNL     1      45.780   3.012   8.103  0.00  0.00    +0.000 A 
ATOM     16  C   UNL     1      46.743   3.603   7.284  0.00  0.00    +0.000 A 
ATOM     17  C   UNL     1      47.731   2.796   6.738  0.00  0.00    +0.000 A 
ATOM     18  N   UNL     1      47.823   1.465   6.947  0.00  0.00    +0.000 NA
ATOM     19  C   UNL     1      46.884   0.912   7.741  0.00  0.00    +0.000 A 
ATOM     20  C   UNL     1      45.859   1.632   8.336  0.00  0.00    +0.000 A 
ENDBRANCH  14  15
ENDBRANCH  12  14
ENDBRANCH  11  12
ENDBRANCH   3  11
BRANCH   6  21
ATOM     21  C   UNL     1      48.580   6.464  14.724  0.00  0.00    +0.000 C 
BRANCH  21  22
ATOM     22  N   UNL     1      48.144   7.590  15.508  0.00  0.00    +0.000 N 
ATOM     23  C   UNL     1      48.825   7.809  16.690  0.00  0.00    +0.000 C 
ATOM     24  O   UNL     1      49.818   7.137  16.970  0.00  0.00    +0.000 OA
ATOM     25  H   UNL     1      47.280   8.071  15.300  0.00  0.00    +0.000 HD
BRANCH  23  26
ATOM     26  C   UNL     1      48.307   8.806  17.617  0.00  0.00    +0.000 A 
ATOM     27  C   UNL     1      47.972  10.139  17.405  0.00  0.00    +0.000 A 
ATOM     28  N   UNL     1      47.418  10.632  18.568  0.00  0.00    +0.000 N 
ATOM     29  C   UNL     1      47.384   9.655  19.523  0.00  0.00    +0.000 A 
ATOM     30  N   UNL     1      46.839   9.787  20.747  0.00  0.00    +0.000 NA
ATOM     31  C   UNL     1      46.949   8.660  21.495  0.00  0.00    +0.000 A 
ATOM     32  C   UNL     1      47.590   7.490  21.115  0.00  0.00    +0.000 A 
ATOM     33  C   UNL     1      48.142   7.417  19.840  0.00  0.00    +0.000 A 
ATOM     34  C   UNL     1      48.001   8.531  18.993  0.00  0.00    +0.000 A 
ATOM     35  H   UNL     1      47.058  11.564  18.718  0.00  0.00    +0.000 HD
ENDBRANCH  23  26
ENDBRANCH  21  22
ENDBRANCH   6  21
TORSDOF 9
ENDMDL
MODEL 7
REMARK VINA RESULT:    -6.789      3.288      8.429
REMARK INTER + INTRA:         -11.170
REMARK INTER:                  -9.097
REMARK INTRA:                  -2.072
REMARK UNBOUND:                -1.008
REMARK  Name = 
REMARK  9 active torsions:
REMARK  status: ('A' for Active; 'I' for Inactive)
REMARK    1  A    between atoms: N_1  and  C_2
REMARK    2  A    between atoms: C_2  and  C_3
REMARK    3  A    between atoms: C_5  and  C_6
REMARK    4  A    between atoms: C_6  and  N_7
REMARK    5  A    between atoms: N_7  and  C_8
REMARK    6  A    between atoms: C_8  and  C_9
REMARK    7  A    between atoms: C_17  and  C_18
REMARK    8  A    between atoms: C_18  and  N_19
REMARK    9  A    between atoms: C_20  and  C_22
REMARK                            x       y       z     vdW  Elec       q    Type
REMARK                         _______ _______ _______ _____ _____    ______ ____
ROOT
ATOM      1  C   UNL     1      49.709   8.232  15.076  0.00  0.00    +0.000 A 
ATOM      2  C   UNL     1      50.206   7.636  16.250  0.00  0.00    +0.000 A 
ATOM      3  C   UNL     1      49.652   7.900  17.512  0.00  0.00    +0.000 A 
ATOM      4  C   UNL     1      48.583   8.792  17.600  0.00  0.00    +0.000 A 
ATOM      5  C   UNL     1      48.040   9.349  16.442  0.00  0.00    +0.000 A 
ATOM      6  C   UNL     1      48.563   9.045  15.170  0.00  0.00    +0.000 A 
ENDROOT
BRANCH   1   7
ATOM      7  C   UNL     1      50.483   8.018  13.794  0.00  0.00    +0.000 C 
BRANCH   7   8
ATOM      8  N   UNL     1      49.949   6.928  12.989  0.00  0.00    +0.000 NA
ATOM      9  H   UNL     1      49.264   6.414  13.539  0.00  0.00    +0.000 HD
ATOM     10  H   UNL     1      50.699   6.275  12.770  0.00  0.00    +0.000 HD
ENDBRANCH   7   8
ENDBRANCH   1   7
BRANCH   3  11
ATOM     11  C   UNL     1      50.232   7.239  18.741  0.00  0.00    +0.000 C 
BRANCH  11  12
ATOM     12  N   UNL     1      50.528   5.839  18.459  0.00  0.00    +0.000 NA
ATOM     13  H   UNL     1      51.393   5.582  18.933  0.00  0.00    +0.000 HD
BRANCH  12  14
ATOM     14  C   UNL     1      49.456   4.949  18.877  0.00  0.00    +0.000 C 
BRANCH  14  15
ATOM     15  C   UNL     1      48.872   4.234  17.682  0.00  0.00    +0.000 A 
ATOM     16  C   UNL     1      49.288   2.946  17.340  0.00  0.00    +0.000 A 
ATOM     17  C   UNL     1      48.728   2.347  16.220  0.00  0.00    +0.000 A 
ATOM     18  N   UNL     1      47.801   2.933  15.432  0.00  0.00    +0.000 NA
ATOM     19  C   UNL     1      47.412   4.176  15.778  0.00  0.00    +0.000 A 
ATOM     20  C   UNL     1      47.908   4.859  16.879  0.00  0.00    +0.000 A 
ENDBRANCH  14  15
ENDBRANCH  12  14
ENDBRANCH  11  12
ENDBRANCH   3  11
BRANCH   6  21
ATOM     21  C   UNL     1      47.792   9.507  13.965  0.00  0.00    +0.000 C 
BRANCH  21  22
ATOM     22  N   UNL     1      46.575   8.790  13.688  0.00  0.00    +0.000 N 
ATOM     23  C   UNL     1      46.545   8.075  12.506  0.00  0.00    +0.000 C 
ATOM     24  O   UNL     1      47.556   7.981  11.809  0.00  0.00    +0.000 OA
ATOM     25  H   UNL     1      45.736   8.951  14.229  0.00  0.00    +0.000 HD
BRANCH  23  26
ATOM     26  C   UNL     1      45.281   7.494  12.076  0.00  0.00    +0.000 A 
ATOM     27  C   UNL     1      44.175   8.093  11.481  0.00  0.00    +0.000 A 
ATOM     28  N   UNL     1      43.271   7.102  11.160  0.00  0.00    +0.000 N 
ATOM     29  C   UNL     1      43.763   5.881  11.528  0.00  0.00    +0.000 A 
ATOM     30  N   UNL     1      43.161   4.700  11.290  0.00  0.00    +0.000 NA
ATOM     31  C   UNL     1      43.868   3.645  11.769  0.00  0.00    +0.000 A 
ATOM     32  C   UNL     1      45.056   3.717  12.482  0.00  0.00    +0.000 A 
ATOM     33  C   UNL     1      45.625   4.967  12.703  0.00  0.00    +0.000 A 
ATOM     34  C   UNL     1      44.972   6.094  12.172  0.00  0.00    +0.000 A 
ATOM     35  H   UNL     1      42.381   7.222  10.697  0.00  0.00    +0.000 HD
ENDBRANCH  23  26
ENDBRANCH  21  22
ENDBRANCH   6  21
TORSDOF 9
ENDMDL
MODEL 8
REMARK VINA RESULT:    -6.742      3.522      8.709
REMARK INTER + INTRA:         -11.100
REMARK INTER:                  -9.289
REMARK INTRA:                  -1.811
REMARK UNBOUND:                -1.008
REMARK  Name = 
REMARK  9 active torsions:
REMARK  status: ('A' for Active; 'I' for Inactive)
REMARK    1  A    between atoms: N_1  and  C_2
REMARK    2  A    between atoms: C_2  and  C_3
REMARK    3  A    between atoms: C_5  and  C_6
REMARK    4  A    between atoms: C_6  and  N_7
REMARK    5  A    between atoms: N_7  and  C_8
REMARK    6  A    between atoms: C_8  and  C_9
REMARK    7  A    between atoms: C_17  and  C_18
REMARK    8  A    between atoms: C_18  and  N_19
REMARK    9  A    between atoms: C_20  and  C_22
REMARK                            x       y       z     vdW  Elec       q    Type
REMARK                         _______ _______ _______ _____ _____    ______ ____
ROOT
ATOM      1  C   UNL     1      48.874   4.675  18.550  0.00  0.00    +0.000 A 
ATOM      2  C   UNL     1      50.197   5.027  18.874  0.00  0.00    +0.000 A 
ATOM      3  C   UNL     1      51.299   4.289  18.418  0.00  0.00    +0.000 A 
ATOM      4  C   UNL     1      51.069   3.163  17.628  0.00  0.00    +0.000 A 
ATOM      5  C   UNL     1      49.768   2.829  17.248  0.00  0.00    +0.000 A 
ATOM      6  C   UNL     1      48.665   3.600  17.664  0.00  0.00    +0.000 A 
ENDROOT
BRANCH   1   7
ATOM      7  C   UNL     1      47.755   5.429  19.232  0.00  0.00    +0.000 C 
BRANCH   7   8
ATOM      8  N   UNL     1      47.274   6.558  18.445  0.00  0.00    +0.000 NA
ATOM      9  H   UNL     1      47.826   7.382  18.676  0.00  0.00    +0.000 HD
ATOM     10  H   UNL     1      46.313   6.765  18.708  0.00  0.00    +0.000 HD
ENDBRANCH   7   8
ENDBRANCH   1   7
BRANCH   3  11
ATOM     11  C   UNL     1      52.699   4.708  18.806  0.00  0.00    +0.000 C 
BRANCH  11  12
ATOM     12  N   UNL     1      53.011   6.004  18.213  0.00  0.00    +0.000 NA
ATOM     13  H   UNL     1      53.683   6.486  18.808  0.00  0.00    +0.000 HD
BRANCH  12  14
ATOM     14  C   UNL     1      53.546   5.883  16.865  0.00  0.00    +0.000 C 
BRANCH  14  15
ATOM     15  C   UNL     1      52.814   6.812  15.926  0.00  0.00    +0.000 A 
ATOM     16  C   UNL     1      51.421   6.905  15.946  0.00  0.00    +0.000 A 
ATOM     17  C   UNL     1      50.804   7.763  15.046  0.00  0.00    +0.000 A 
ATOM     18  N   UNL     1      51.466   8.519  14.145  0.00  0.00    +0.000 NA
ATOM     19  C   UNL     1      52.810   8.416  14.140  0.00  0.00    +0.000 A 
ATOM     20  C   UNL     1      53.521   7.591  15.000  0.00  0.00    +0.000 A 
ENDBRANCH  14  15
ENDBRANCH  12  14
ENDBRANCH  11  12
ENDBRANCH   3  11
BRANCH   6  21
ATOM     21  C   UNL     1      47.329   3.308  17.039  0.00  0.00    +0.000 C 
BRANCH  21  22
ATOM     22  N   UNL     1      46.821   4.318  16.148  0.00  0.00    +0.000 N 
ATOM     23  C   UNL     1      46.997   4.084  14.798  0.00  0.00    +0.000 C 
ATOM     24  O   UNL     1      47.459   3.012  14.407  0.00  0.00    +0.000 OA
ATOM     25  H   UNL     1      46.525   5.221  16.493  0.00  0.00    +0.000 HD
BRANCH  23  26
ATOM     26  C   UNL     1      46.685   5.153  13.859  0.00  0.00    +0.000 A 
ATOM     27  C   UNL     1      47.477   6.198  13.395  0.00  0.00    +0.000 A 
ATOM     28  N   UNL     1      46.765   6.881  12.432  0.00  0.00    +0.000 N 
ATOM     29  C   UNL     1      45.537   6.305  12.259  0.00  0.00    +0.000 A 
ATOM     30  N   UNL     1      44.626   6.684  11.343  0.00  0.00    +0.000 NA
ATOM     31  C   UNL     1      43.490   5.942  11.394  0.00  0.00    +0.000 A 
ATOM     32  C   UNL     1      43.219   4.930  12.304  0.00  0.00    +0.000 A 
ATOM     33  C   UNL     1      44.198   4.590  13.233  0.00  0.00    +0.000 A 
ATOM     34  C   UNL     1      45.423   5.279  13.185  0.00  0.00    +0.000 A 
ATOM     35  H   UNL     1      47.082   7.677  11.895  0.00  0.00    +0.000 HD
ENDBRANCH  23  26
ENDBRANCH  21  22
ENDBRANCH   6  21
TORSDOF 9
ENDMDL
MODEL 9
REMARK VINA RESULT:    -6.525      2.698      8.873
REMARK INTER + INTRA:         -10.776
REMARK INTER:                  -9.293
REMARK INTRA:                  -1.483
REMARK UNBOUND:                -1.008
REMARK  Name = 
REMARK  9 active torsions:
REMARK  status: ('A' for Active; 'I' for Inactive)
REMARK    1  A    between atoms: N_1  and  C_2
REMARK    2  A    between atoms: C_2  and  C_3
REMARK    3  A    between atoms: C_5  and  C_6
REMARK    4  A    between atoms: C_6  and  N_7
REMARK    5  A    between atoms: N_7  and  C_8
REMARK    6  A    between atoms: C_8  and  C_9
REMARK    7  A    between atoms: C_17  and  C_18
REMARK    8  A    between atoms: C_18  and  N_19
REMARK    9  A    between atoms: C_20  and  C_22
REMARK                            x       y       z     vdW  Elec       q    Type
REMARK                         _______ _______ _______ _____ _____    ______ ____
ROOT
ATOM      1  C   UNL     1      49.959   8.112  13.155  0.00  0.00    +0.000 A 
ATOM      2  C   UNL     1      50.755   7.866  14.289  0.00  0.00    +0.000 A 
ATOM      3  C   UNL     1      50.200   7.690  15.566  0.00  0.00    +0.000 A 
ATOM      4  C   UNL     1      48.816   7.775  15.710  0.00  0.00    +0.000 A 
ATOM      5  C   UNL     1      48.004   7.962  14.590  0.00  0.00    +0.000 A 
ATOM      6  C   UNL     1      48.558   8.088  13.301  0.00  0.00    +0.000 A 
ENDROOT
BRANCH   1   7
ATOM      7  C   UNL     1      50.660   8.459  11.861  0.00  0.00    +0.000 C 
BRANCH   7   8
ATOM      8  N   UNL     1      51.189   7.288  11.174  0.00  0.00    +0.000 NA
ATOM      9  H   UNL     1      51.108   7.429  10.169  0.00  0.00    +0.000 HD
ATOM     10  H   UNL     1      50.616   6.479  11.404  0.00  0.00    +0.000 HD
ENDBRANCH   7   8
ENDBRANCH   1   7
BRANCH   3  11
ATOM     11  C   UNL     1      51.104   7.438  16.750  0.00  0.00    +0.000 C 
BRANCH  11  12
ATOM     12  N   UNL     1      50.305   7.078  17.917  0.00  0.00    +0.000 NA
ATOM     13  H   UNL     1      49.321   7.238  17.706  0.00  0.00    +0.000 HD
BRANCH  12  14
ATOM     14  C   UNL     1      50.502   5.694  18.318  0.00  0.00    +0.000 C 
BRANCH  14  15
ATOM     15  C   UNL     1      49.298   4.863  17.945  0.00  0.00    +0.000 A 
ATOM     16  C   UNL     1      49.446   3.594  17.381  0.00  0.00    +0.000 A 
ATOM     17  C   UNL     1      48.302   2.885  17.042  0.00  0.00    +0.000 A 
ATOM     18  N   UNL     1      47.045   3.345  17.221  0.00  0.00    +0.000 NA
ATOM     19  C   UNL     1      46.922   4.572  17.766  0.00  0.00    +0.000 A 
ATOM     20  C   UNL     1      48.002   5.358  18.142  0.00  0.00    +0.000 A 
ENDBRANCH  14  15
ENDBRANCH  12  14
ENDBRANCH  11  12
ENDBRANCH   3  11
BRANCH   6  21
ATOM     21  C   UNL     1      47.617   8.066  12.129  0.00  0.00    +0.000 C 
BRANCH  21  22
ATOM     22  N   UNL     1      47.097   6.773  11.768  0.00  0.00    +0.000 N 
ATOM     23  C   UNL     1      45.784   6.525  12.119  0.00  0.00    +0.000 C 
ATOM     24  O   UNL     1      45.090   7.418  12.606  0.00  0.00    +0.000 OA
ATOM     25  H   UNL     1      47.706   6.033  11.447  0.00  0.00    +0.000 HD
BRANCH  23  26
ATOM     26  C   UNL     1      45.264   5.174  11.960  0.00  0.00    +0.000 A 
ATOM     27  C   UNL     1      44.741   4.297  12.905  0.00  0.00    +0.000 A 
ATOM     28  N   UNL     1      44.279   3.179  12.243  0.00  0.00    +0.000 N 
ATOM     29  C   UNL     1      44.486   3.310  10.899  0.00  0.00    +0.000 A 
ATOM     30  N   UNL     1      44.084   2.428   9.964  0.00  0.00    +0.000 NA
ATOM     31  C   UNL     1      44.426   2.805   8.706  0.00  0.00    +0.000 A 
ATOM     32  C   UNL     1      45.157   3.934   8.363  0.00  0.00    +0.000 A 
ATOM     33  C   UNL     1      45.551   4.803   9.376  0.00  0.00    +0.000 A 
ATOM     34  C   UNL     1      45.168   4.500  10.695  0.00  0.00    +0.000 A 
ATOM     35  H   UNL     1      43.826   2.376  12.657  0.00  0.00    +0.000 HD
ENDBRANCH  23  26
ENDBRANCH  21  22
ENDBRANCH   6  21
TORSDOF 9
ENDMDL
