MODEL 1
REMARK VINA RESULT:    -8.472      0.000      0.000
REMARK INTER + INTRA:         -11.843
REMARK INTER:                 -11.443
REMARK INTRA:                  -0.400
REMARK UNBOUND:                -0.400
REMARK  Name = 
REMARK  8 active torsions:
REMARK  status: ('A' for Active; 'I' for Inactive)
REMARK    1  A    between atoms: C_1  and  C_2
REMARK    2  A    between atoms: C_2  and  N_3
REMARK    3  A    between atoms: C_2  and  C_16
REMARK    4  A    between atoms: C_4  and  C_6
REMARK    5  A    between atoms: C_19  and  C_20
REMARK    6  A    between atoms: C_20  and  N_21
REMARK    7  A    between atoms: N_21  and  C_22
REMARK    8  A    between atoms: C_23  and  C_25
REMARK                            x       y       z     vdW  Elec       q    Type
REMARK                         _______ _______ _______ _____ _____    ______ ____
ROOT
ATOM      1  C   UNL     1      47.264   4.275  15.991  0.00  0.00    +0.000 C 
ATOM      2  C   UNL     1      47.661   5.136  14.788  0.00  0.00    +0.000 C 
ENDROOT
BRANCH   2   3
ATOM      3  C   UNL     1      46.725   5.018  13.593  0.00  0.00    +0.000 A 
ATOM      4  C   UNL     1      46.183   3.759  13.282  0.00  0.00    +0.000 A 
ATOM      5  C   UNL     1      45.356   3.588  12.169  0.00  0.00    +0.000 A 
ATOM      6  C   UNL     1      45.046   4.666  11.328  0.00  0.00    +0.000 A 
ATOM      7  C   UNL     1      45.569   5.925  11.641  0.00  0.00    +0.000 A 
ATOM      8  C   UNL     1      46.409   6.094  12.751  0.00  0.00    +0.000 A 
BRANCH   6   9
ATOM      9  C   UNL     1      44.225   4.451  10.075  0.00  0.00    +0.000 C 
BRANCH   9  10
ATOM     10  N   UNL     1      44.722   3.471   9.104  0.00  0.00    +0.000 N 
ATOM     11  C   UNL     1      44.399   2.063   9.316  0.00  0.00    +0.000 C 
ATOM     12  C   UNL     1      45.764   3.910   8.265  0.00  0.00    +0.000 C 
ATOM     13  O   UNL     1      46.240   5.044   8.347  0.00  0.00    +0.000 OA
BRANCH  12  14
ATOM     14  C   UNL     1      46.358   2.988   7.251  0.00  0.00    +0.000 A 
ATOM     15  C   UNL     1      46.521   3.363   5.912  0.00  0.00    +0.000 A 
ATOM     16  C   UNL     1      46.990   2.439   4.975  0.00  0.00    +0.000 A 
ATOM     17  C   UNL     1      47.370   1.162   5.383  0.00  0.00    +0.000 A 
ATOM     18  C   UNL     1      47.296   0.810   6.731  0.00  0.00    +0.000 A 
ATOM     19  C   UNL     1      46.788   1.719   7.663  0.00  0.00    +0.000 A 
ENDBRANCH  12  14
ENDBRANCH   9  10
ENDBRANCH   6   9
ENDBRANCH   2   3
BRANCH   2  20
ATOM     20  N   UNL     1      47.765   6.532  15.180  0.00  0.00    +0.000 N 
ATOM     21  C   UNL     1      48.963   7.113  15.517  0.00  0.00    +0.000 C 
ATOM     22  O   UNL     1      50.039   6.542  15.365  0.00  0.00    +0.000 OA
ATOM     23  H   UNL     1      46.902   6.982  15.464  0.00  0.00    +0.000 HD
BRANCH  21  24
ATOM     24  C   UNL     1      48.897   8.484  16.039  0.00  0.00    +0.000 A 
ATOM     25  C   UNL     1      49.341   9.545  15.262  0.00  0.00    +0.000 A 
ATOM     26  S   UNL     1      49.212  11.059  16.039  0.00  0.00    +0.000 S 
ATOM     27  C   UNL     1      48.609  10.342  17.459  0.00  0.00    +0.000 A 
ATOM     28  N   UNL     1      48.333  11.091  18.561  0.00  0.00    +0.000 NA
ATOM     29  C   UNL     1      47.924  10.409  19.578  0.00  0.00    +0.000 A 
ATOM     30  N   UNL     1      47.744   9.050  19.591  0.00  0.00    +0.000 N 
ATOM     31  C   UNL     1      47.947   8.263  18.481  0.00  0.00    +0.000 A 
ATOM     32  O   UNL     1      47.678   7.066  18.488  0.00  0.00    +0.000 OA
ATOM     33  C   UNL     1      48.460   8.972  17.325  0.00  0.00    +0.000 A 
ATOM     34  H   UNL     1      47.385   8.584  20.408  0.00  0.00    +0.000 HD
ENDBRANCH  21  24
ENDBRANCH   2  20
TORSDOF 6
ENDMDL
MODEL 2
REMARK VINA RESULT:    -8.408      2.486      3.643
REMARK INTER + INTRA:         -11.757
REMARK INTER:                 -11.659
REMARK INTRA:                  -0.098
REMARK UNBOUND:                -0.400
REMARK  Name = 
REMARK  8 active torsions:
REMARK  status: ('A' for Active; 'I' for Inactive)
REMARK    1  A    between atoms: C_1  and  C_2
REMARK    2  A    between atoms: C_2  and  N_3
REMARK    3  A    between atoms: C_2  and  C_16
REMARK    4  A    between atoms: C_4  and  C_6
REMARK    5  A    between atoms: C_19  and  C_20
REMARK    6  A    between atoms: C_20  and  N_21
REMARK    7  A    between atoms: N_21  and  C_22
REMARK    8  A    between atoms: C_23  and  C_25
REMARK                            x       y       z     vdW  Elec       q    Type
REMARK                         _______ _______ _______ _____ _____    ______ ____
ROOT
ATOM      1  C   UNL     1      48.572   8.655  12.702  0.00  0.00    +0.000 C 
ATOM      2  C   UNL     1      47.576   7.873  13.565  0.00  0.00    +0.000 C 
ENDROOT
BRANCH   2   3
ATOM      3  C   UNL     1      46.537   7.089  12.774  0.00  0.00    +0.000 A 
ATOM      4  C   UNL     1      46.644   5.688  12.722  0.00  0.00    +0.000 A 
ATOM      5  C   UNL     1      45.744   4.927  11.973  0.00  0.00    +0.000 A 
ATOM      6  C   UNL     1      44.710   5.537  11.249  0.00  0.00    +0.000 A 
ATOM      7  C   UNL     1      44.588   6.930  11.310  0.00  0.00    +0.000 A 
ATOM      8  C   UNL     1      45.499   7.695  12.052  0.00  0.00    +0.000 A 
BRANCH   6   9
ATOM      9  C   UNL     1      43.797   4.712  10.368  0.00  0.00    +0.000 C 
BRANCH   9  10
ATOM     10  N   UNL     1      44.411   3.636   9.583  0.00  0.00    +0.000 N 
ATOM     11  C   UNL     1      44.319   2.270  10.093  0.00  0.00    +0.000 C 
ATOM     12  C   UNL     1      45.345   4.040   8.611  0.00  0.00    +0.000 C 
ATOM     13  O   UNL     1      45.640   5.223   8.435  0.00  0.00    +0.000 OA
BRANCH  12  14
ATOM     14  C   UNL     1      46.044   3.025   7.766  0.00  0.00    +0.000 A 
ATOM     15  C   UNL     1      46.223   1.703   8.188  0.00  0.00    +0.000 A 
ATOM     16  C   UNL     1      46.966   0.811   7.413  0.00  0.00    +0.000 A 
ATOM     17  C   UNL     1      47.470   1.211   6.177  0.00  0.00    +0.000 A 
ATOM     18  C   UNL     1      47.219   2.501   5.707  0.00  0.00    +0.000 A 
ATOM     19  C   UNL     1      46.511   3.408   6.501  0.00  0.00    +0.000 A 
ENDBRANCH  12  14
ENDBRANCH   9  10
ENDBRANCH   6   9
ENDBRANCH   2   3
BRANCH   2  20
ATOM     20  N   UNL     1      48.284   6.968  14.456  0.00  0.00    +0.000 N 
ATOM     21  C   UNL     1      48.750   7.364  15.685  0.00  0.00    +0.000 C 
ATOM     22  O   UNL     1      48.471   8.452  16.177  0.00  0.00    +0.000 OA
ATOM     23  H   UNL     1      48.663   6.129  14.031  0.00  0.00    +0.000 HD
BRANCH  21  24
ATOM     24  C   UNL     1      49.578   6.391  16.411  0.00  0.00    +0.000 A 
ATOM     25  C   UNL     1      50.852   6.742  16.833  0.00  0.00    +0.000 A 
ATOM     26  S   UNL     1      51.675   5.480  17.636  0.00  0.00    +0.000 S 
ATOM     27  C   UNL     1      50.376   4.408  17.399  0.00  0.00    +0.000 A 
ATOM     28  N   UNL     1      50.451   3.113  17.811  0.00  0.00    +0.000 NA
ATOM     29  C   UNL     1      49.409   2.404  17.528  0.00  0.00    +0.000 A 
ATOM     30  N   UNL     1      48.291   2.873  16.890  0.00  0.00    +0.000 N 
ATOM     31  C   UNL     1      48.145   4.189  16.515  0.00  0.00    +0.000 A 
ATOM     32  O   UNL     1      47.094   4.606  16.041  0.00  0.00    +0.000 OA
ATOM     33  C   UNL     1      49.310   5.018  16.762  0.00  0.00    +0.000 A 
ATOM     34  H   UNL     1      47.496   2.274  16.732  0.00  0.00    +0.000 HD
ENDBRANCH  21  24
ENDBRANCH   2  20
TORSDOF 6
ENDMDL
MODEL 3
REMARK VINA RESULT:    -8.306      1.476      2.366
REMARK INTER + INTRA:         -11.620
REMARK INTER:                 -11.089
REMARK INTRA:                  -0.531
REMARK UNBOUND:                -0.400
REMARK  Name = 
REMARK  8 active torsions:
REMARK  status: ('A' for Active; 'I' for Inactive)
REMARK    1  A    between atoms: C_1  and  C_2
REMARK    2  A    between atoms: C_2  and  N_3
REMARK    3  A    between atoms: C_2  and  C_16
REMARK    4  A    between atoms: C_4  and  C_6
REMARK    5  A    between atoms: C_19  and  C_20
REMARK    6  A    between atoms: C_20  and  N_21
REMARK    7  A    between atoms: N_21  and  C_22
REMARK    8  A    between atoms: C_23  and  C_25
REMARK                            x       y       z     vdW  Elec       q    Type
REMARK                         _______ _______ _______ _____ _____    ______ ____
ROOT
ATOM      1  C   UNL     1      47.157   4.389  16.072  0.00  0.00    +0.000 C 
ATOM      2  C   UNL     1      47.677   5.119  14.829  0.00  0.00    +0.000 C 
ENDROOT
BRANCH   2   3
ATOM      3  C   UNL     1      46.755   5.038  13.619  0.00  0.00    +0.000 A 
ATOM      4  C   UNL     1      46.089   3.827  13.358  0.00  0.00    +0.000 A 
ATOM      5  C   UNL     1      45.269   3.686  12.237  0.00  0.00    +0.000 A 
ATOM      6  C   UNL     1      45.089   4.746  11.336  0.00  0.00    +0.000 A 
ATOM      7  C   UNL     1      45.737   5.958  11.599  0.00  0.00    +0.000 A 
ATOM      8  C   UNL     1      46.569   6.096  12.718  0.00  0.00    +0.000 A 
BRANCH   6   9
ATOM      9  C   UNL     1      44.273   4.554  10.076  0.00  0.00    +0.000 C 
BRANCH   9  10
ATOM     10  N   UNL     1      44.732   3.536   9.125  0.00  0.00    +0.000 N 
ATOM     11  C   UNL     1      44.355   2.146   9.366  0.00  0.00    +0.000 C 
ATOM     12  C   UNL     1      45.790   3.918   8.279  0.00  0.00    +0.000 C 
ATOM     13  O   UNL     1      46.309   5.034   8.338  0.00  0.00    +0.000 OA
BRANCH  12  14
ATOM     14  C   UNL     1      46.348   2.954   7.283  0.00  0.00    +0.000 A 
ATOM     15  C   UNL     1      46.740   1.660   7.642  0.00  0.00    +0.000 A 
ATOM     16  C   UNL     1      47.347   0.822   6.704  0.00  0.00    +0.000 A 
ATOM     17  C   UNL     1      47.496   1.243   5.384  0.00  0.00    +0.000 A 
ATOM     18  C   UNL     1      47.025   2.498   4.997  0.00  0.00    +0.000 A 
ATOM     19  C   UNL     1      46.455   3.353   5.944  0.00  0.00    +0.000 A 
ENDBRANCH  12  14
ENDBRANCH   9  10
ENDBRANCH   6   9
ENDBRANCH   2   3
BRANCH   2  20
ATOM     20  N   UNL     1      47.942   6.514  15.138  0.00  0.00    +0.000 N 
ATOM     21  C   UNL     1      49.122   6.930  15.703  0.00  0.00    +0.000 C 
ATOM     22  O   UNL     1      50.085   6.183  15.843  0.00  0.00    +0.000 OA
ATOM     23  H   UNL     1      47.132   7.123  15.182  0.00  0.00    +0.000 HD
BRANCH  21  24
ATOM     24  C   UNL     1      49.191   8.342  16.100  0.00  0.00    +0.000 A 
ATOM     25  C   UNL     1      49.392   8.681  17.430  0.00  0.00    +0.000 A 
ATOM     26  S   UNL     1      49.419  10.365  17.708  0.00  0.00    +0.000 S 
ATOM     27  C   UNL     1      49.111  10.697  16.068  0.00  0.00    +0.000 A 
ATOM     28  N   UNL     1      48.960  11.975  15.627  0.00  0.00    +0.000 NA
ATOM     29  C   UNL     1      48.688  12.074  14.369  0.00  0.00    +0.000 A 
ATOM     30  N   UNL     1      48.573  11.017  13.505  0.00  0.00    +0.000 N 
ATOM     31  C   UNL     1      48.783   9.713  13.893  0.00  0.00    +0.000 A 
ATOM     32  O   UNL     1      48.778   8.795  13.080  0.00  0.00    +0.000 OA
ATOM     33  C   UNL     1      49.039   9.541  15.310  0.00  0.00    +0.000 A 
ATOM     34  H   UNL     1      48.395  11.166  12.525  0.00  0.00    +0.000 HD
ENDBRANCH  21  24
ENDBRANCH   2  20
TORSDOF 6
ENDMDL
MODEL 4
REMARK VINA RESULT:    -7.898      2.078      2.990
REMARK INTER + INTRA:         -11.068
REMARK INTER:                 -11.065
REMARK INTRA:                  -0.003
REMARK UNBOUND:                -0.400
REMARK  Name = 
REMARK  8 active torsions:
REMARK  status: ('A' for Active; 'I' for Inactive)
REMARK    1  A    between atoms: C_1  and  C_2
REMARK    2  A    between atoms: C_2  and  N_3
REMARK    3  A    between atoms: C_2  and  C_16
REMARK    4  A    between atoms: C_4  and  C_6
REMARK    5  A    between atoms: C_19  and  C_20
REMARK    6  A    between atoms: C_20  and  N_21
REMARK    7  A    between atoms: N_21  and  C_22
REMARK    8  A    between atoms: C_23  and  C_25
REMARK                            x       y       z     vdW  Elec       q    Type
REMARK                         _______ _______ _______ _____ _____    ______ ____
ROOT
ATOM      1  C   UNL     1      49.620   7.496  13.197  0.00  0.00    +0.000 C 
ATOM      2  C   UNL     1      48.227   7.876  13.708  0.00  0.00    +0.000 C 
ENDROOT
BRANCH   2   3
ATOM      3  C   UNL     1      47.078   7.224  12.949  0.00  0.00    +0.000 A 
ATOM      4  C   UNL     1      46.936   5.826  13.011  0.00  0.00    +0.000 A 
ATOM      5  C   UNL     1      45.928   5.175  12.297  0.00  0.00    +0.000 A 
ATOM      6  C   UNL     1      45.031   5.895  11.495  0.00  0.00    +0.000 A 
ATOM      7  C   UNL     1      45.158   7.287  11.442  0.00  0.00    +0.000 A 
ATOM      8  C   UNL     1      46.177   7.940  12.149  0.00  0.00    +0.000 A 
BRANCH   6   9
ATOM      9  C   UNL     1      44.001   5.172  10.654  0.00  0.00    +0.000 C 
BRANCH   9  10
ATOM     10  N   UNL     1      44.461   4.023   9.867  0.00  0.00    +0.000 N 
ATOM     11  C   UNL     1      44.184   2.682  10.376  0.00  0.00    +0.000 C 
ATOM     12  C   UNL     1      45.440   4.297   8.893  0.00  0.00    +0.000 C 
ATOM     13  O   UNL     1      45.893   5.428   8.717  0.00  0.00    +0.000 OA
BRANCH  12  14
ATOM     14  C   UNL     1      45.992   3.197   8.046  0.00  0.00    +0.000 A 
ATOM     15  C   UNL     1      46.020   1.867   8.481  0.00  0.00    +0.000 A 
ATOM     16  C   UNL     1      46.633   0.884   7.702  0.00  0.00    +0.000 A 
ATOM     17  C   UNL     1      47.152   1.208   6.449  0.00  0.00    +0.000 A 
ATOM     18  C   UNL     1      47.047   2.513   5.969  0.00  0.00    +0.000 A 
ATOM     19  C   UNL     1      46.472   3.507   6.766  0.00  0.00    +0.000 A 
ENDBRANCH  12  14
ENDBRANCH   9  10
ENDBRANCH   6   9
ENDBRANCH   2   3
BRANCH   2  20
ATOM     20  N   UNL     1      48.106   7.565  15.122  0.00  0.00    +0.000 N 
ATOM     21  C   UNL     1      48.478   8.450  16.103  0.00  0.00    +0.000 C 
ATOM     22  O   UNL     1      48.791   9.611  15.860  0.00  0.00    +0.000 OA
ATOM     23  H   UNL     1      48.004   6.583  15.356  0.00  0.00    +0.000 HD
BRANCH  21  24
ATOM     24  C   UNL     1      48.445   7.946  17.482  0.00  0.00    +0.000 A 
ATOM     25  C   UNL     1      47.732   8.631  18.455  0.00  0.00    +0.000 A 
ATOM     26  S   UNL     1      47.826   7.914  20.002  0.00  0.00    +0.000 S 
ATOM     27  C   UNL     1      48.865   6.693  19.433  0.00  0.00    +0.000 A 
ATOM     28  N   UNL     1      49.375   5.755  20.277  0.00  0.00    +0.000 NA
ATOM     29  C   UNL     1      50.182   4.918  19.716  0.00  0.00    +0.000 A 
ATOM     30  N   UNL     1      50.511   4.916  18.386  0.00  0.00    +0.000 N 
ATOM     31  C   UNL     1      49.969   5.803  17.485  0.00  0.00    +0.000 A 
ATOM     32  O   UNL     1      50.199   5.714  16.283  0.00  0.00    +0.000 OA
ATOM     33  C   UNL     1      49.097   6.801  18.072  0.00  0.00    +0.000 A 
ATOM     34  H   UNL     1      51.120   4.210  18.004  0.00  0.00    +0.000 HD
ENDBRANCH  21  24
ENDBRANCH   2  20
TORSDOF 6
ENDMDL
MODEL 5
REMARK VINA RESULT:    -7.533      5.122      7.291
REMARK INTER + INTRA:         -10.575
REMARK INTER:                  -9.519
REMARK INTRA:                  -1.056
REMARK UNBOUND:                -0.400
REMARK  Name = 
REMARK  8 active torsions:
REMARK  status: ('A' for Active; 'I' for Inactive)
REMARK    1  A    between atoms: C_1  and  C_2
REMARK    2  A    between atoms: C_2  and  N_3
REMARK    3  A    between atoms: C_2  and  C_16
REMARK    4  A    between atoms: C_4  and  C_6
REMARK    5  A    between atoms: C_19  and  C_20
REMARK    6  A    between atoms: C_20  and  N_21
REMARK    7  A    between atoms: N_21  and  C_22
REMARK    8  A    between atoms: C_23  and  C_25
REMARK                            x       y       z     vdW  Elec       q    Type
REMARK                         _______ _______ _______ _____ _____    ______ ____
ROOT
ATOM      1  C   UNL     1      44.421   4.195  13.126  0.00  0.00    +0.000 C 
ATOM      2  C   UNL     1      45.643   5.099  12.931  0.00  0.00    +0.000 C 
ENDROOT
BRANCH   2   3
ATOM      3  C   UNL     1      45.319   6.490  12.400  0.00  0.00    +0.000 A 
ATOM      4  C   UNL     1      46.032   7.589  12.910  0.00  0.00    +0.000 A 
ATOM      5  C   UNL     1      45.743   8.889  12.490  0.00  0.00    +0.000 A 
ATOM      6  C   UNL     1      44.729   9.137  11.553  0.00  0.00    +0.000 A 
ATOM      7  C   UNL     1      44.027   8.045  11.031  0.00  0.00    +0.000 A 
ATOM      8  C   UNL     1      44.310   6.741  11.461  0.00  0.00    +0.000 A 
BRANCH   6   9
ATOM      9  C   UNL     1      44.362  10.555  11.175  0.00  0.00    +0.000 C 
BRANCH   9  10
ATOM     10  N   UNL     1      43.103  10.754  10.449  0.00  0.00    +0.000 N 
ATOM     11  C   UNL     1      43.154  10.858   8.994  0.00  0.00    +0.000 C 
ATOM     12  C   UNL     1      42.011  11.194  11.221  0.00  0.00    +0.000 C 
ATOM     13  O   UNL     1      42.106  11.412  12.430  0.00  0.00    +0.000 OA
BRANCH  12  14
ATOM     14  C   UNL     1      40.685  11.446  10.581  0.00  0.00    +0.000 A 
ATOM     15  C   UNL     1      40.411  12.624   9.878  0.00  0.00    +0.000 A 
ATOM     16  C   UNL     1      39.130  12.864   9.378  0.00  0.00    +0.000 A 
ATOM     17  C   UNL     1      38.136  11.896   9.510  0.00  0.00    +0.000 A 
ATOM     18  C   UNL     1      38.426  10.681  10.130  0.00  0.00    +0.000 A 
ATOM     19  C   UNL     1      39.696  10.456  10.667  0.00  0.00    +0.000 A 
ENDBRANCH  12  14
ENDBRANCH   9  10
ENDBRANCH   6   9
ENDBRANCH   2   3
BRANCH   2  20
ATOM     20  N   UNL     1      46.384   5.220  14.175  0.00  0.00    +0.000 N 
ATOM     21  C   UNL     1      47.129   4.188  14.690  0.00  0.00    +0.000 C 
ATOM     22  O   UNL     1      47.343   3.154  14.066  0.00  0.00    +0.000 OA
ATOM     23  H   UNL     1      46.111   5.984  14.784  0.00  0.00    +0.000 HD
BRANCH  21  24
ATOM     24  C   UNL     1      47.698   4.401  16.027  0.00  0.00    +0.000 A 
ATOM     25  C   UNL     1      47.344   3.563  17.074  0.00  0.00    +0.000 A 
ATOM     26  S   UNL     1      48.083   3.975  18.557  0.00  0.00    +0.000 S 
ATOM     27  C   UNL     1      48.859   5.318  17.860  0.00  0.00    +0.000 A 
ATOM     28  N   UNL     1      49.628   6.153  18.612  0.00  0.00    +0.000 NA
ATOM     29  C   UNL     1      50.119   7.154  17.960  0.00  0.00    +0.000 A 
ATOM     30  N   UNL     1      49.933   7.387  16.623  0.00  0.00    +0.000 N 
ATOM     31  C   UNL     1      49.220   6.535  15.811  0.00  0.00    +0.000 A 
ATOM     32  O   UNL     1      49.156   6.710  14.599  0.00  0.00    +0.000 OA
ATOM     33  C   UNL     1      48.599   5.422  16.504  0.00  0.00    +0.000 A 
ATOM     34  H   UNL     1      50.376   8.169  16.167  0.00  0.00    +0.000 HD
ENDBRANCH  21  24
ENDBRANCH   2  20
TORSDOF 6
ENDMDL
MODEL 6
REMARK VINA RESULT:    -7.402      1.924      2.903
REMARK INTER + INTRA:         -10.398
REMARK INTER:                 -11.532
REMARK INTRA:                   1.134
REMARK UNBOUND:                -0.400
REMARK  Name = 
REMARK  8 active torsions:
REMARK  status: ('A' for Active; 'I' for Inactive)
REMARK    1  A    between atoms: C_1  and  C_2
REMARK    2  A    between atoms: C_2  and  N_3
REMARK    3  A    between atoms: C_2  and  C_16
REMARK    4  A    between atoms: C_4  and  C_6
REMARK    5  A    between atoms: C_19  and  C_20
REMARK    6  A    between atoms: C_20  and  N_21
REMARK    7  A    between atoms: N_21  and  C_22
REMARK    8  A    between atoms: C_23  and  C_25
REMARK                            x       y       z     vdW  Elec       q    Type
REMARK                         _______ _______ _______ _____ _____    ______ ____
ROOT
ATOM      1  C   UNL     1      49.099   8.373  13.162  0.00  0.00    +0.000 C 
ATOM      2  C   UNL     1      47.690   8.136  13.716  0.00  0.00    +0.000 C 
ENDROOT
BRANCH   2   3
ATOM      3  C   UNL     1      46.805   7.265  12.835  0.00  0.00    +0.000 A 
ATOM      4  C   UNL     1      45.872   7.890  11.989  0.00  0.00    +0.000 A 
ATOM      5  C   UNL     1      45.005   7.136  11.195  0.00  0.00    +0.000 A 
ATOM      6  C   UNL     1      45.037   5.735  11.221  0.00  0.00    +0.000 A 
ATOM      7  C   UNL     1      45.974   5.107  12.049  0.00  0.00    +0.000 A 
ATOM      8  C   UNL     1      46.835   5.864  12.855  0.00  0.00    +0.000 A 
BRANCH   6   9
ATOM      9  C   UNL     1      44.032   4.928  10.427  0.00  0.00    +0.000 C 
BRANCH   9  10
ATOM     10  N   UNL     1      44.546   3.810   9.629  0.00  0.00    +0.000 N 
ATOM     11  C   UNL     1      44.370   2.455  10.144  0.00  0.00    +0.000 C 
ATOM     12  C   UNL     1      45.480   4.146   8.630  0.00  0.00    +0.000 C 
ATOM     13  O   UNL     1      45.854   5.305   8.443  0.00  0.00    +0.000 OA
BRANCH  12  14
ATOM     14  C   UNL     1      46.081   3.083   7.770  0.00  0.00    +0.000 A 
ATOM     15  C   UNL     1      46.240   1.767   8.217  0.00  0.00    +0.000 A 
ATOM     16  C   UNL     1      46.895   0.826   7.420  0.00  0.00    +0.000 A 
ATOM     17  C   UNL     1      47.327   1.174   6.141  0.00  0.00    +0.000 A 
ATOM     18  C   UNL     1      47.091   2.459   5.652  0.00  0.00    +0.000 A 
ATOM     19  C   UNL     1      46.473   3.413   6.465  0.00  0.00    +0.000 A 
ENDBRANCH  12  14
ENDBRANCH   9  10
ENDBRANCH   6   9
ENDBRANCH   2   3
BRANCH   2  20
ATOM     20  N   UNL     1      47.763   7.556  15.046  0.00  0.00    +0.000 N 
ATOM     21  C   UNL     1      48.831   6.797  15.460  0.00  0.00    +0.000 C 
ATOM     22  O   UNL     1      49.857   6.686  14.796  0.00  0.00    +0.000 OA
ATOM     23  H   UNL     1      46.888   7.493  15.555  0.00  0.00    +0.000 HD
BRANCH  21  24
ATOM     24  C   UNL     1      48.700   6.149  16.771  0.00  0.00    +0.000 A 
ATOM     25  C   UNL     1      48.864   4.777  16.887  0.00  0.00    +0.000 A 
ATOM     26  S   UNL     1      48.652   4.196  18.478  0.00  0.00    +0.000 S 
ATOM     27  C   UNL     1      48.281   5.753  19.055  0.00  0.00    +0.000 A 
ATOM     28  N   UNL     1      47.942   5.957  20.358  0.00  0.00    +0.000 NA
ATOM     29  C   UNL     1      47.645   7.181  20.644  0.00  0.00    +0.000 A 
ATOM     30  N   UNL     1      47.675   8.224  19.756  0.00  0.00    +0.000 N 
ATOM     31  C   UNL     1      48.074   8.076  18.448  0.00  0.00    +0.000 A 
ATOM     32  O   UNL     1      48.193   9.043  17.702  0.00  0.00    +0.000 OA
ATOM     33  C   UNL     1      48.368   6.710  18.059  0.00  0.00    +0.000 A 
ATOM     34  H   UNL     1      47.466   9.163  20.054  0.00  0.00    +0.000 HD
ENDBRANCH  21  24
ENDBRANCH   2  20
TORSDOF 6
ENDMDL
MODEL 7
REMARK VINA RESULT:    -6.953      3.622      5.106
REMARK INTER + INTRA:          -9.792
REMARK INTER:                  -9.844
REMARK INTRA:                   0.052
REMARK UNBOUND:                -0.400
REMARK  Name = 
REMARK  8 active torsions:
REMARK  status: ('A' for Active; 'I' for Inactive)
REMARK    1  A    between atoms: C_1  and  C_2
REMARK    2  A    between atoms: C_2  and  N_3
REMARK    3  A    between atoms: C_2  and  C_16
REMARK    4  A    between atoms: C_4  and  C_6
REMARK    5  A    between atoms: C_19  and  C_20
REMARK    6  A    between atoms: C_20  and  N_21
REMARK    7  A    between atoms: N_21  and  C_22
REMARK    8  A    between atoms: C_23  and  C_25
REMARK                            x       y       z     vdW  Elec       q    Type
REMARK                         _______ _______ _______ _____ _____    ______ ____
ROOT
ATOM      1  C   UNL     1      47.438   8.455  14.720  0.00  0.00    +0.000 C 
ATOM      2  C   UNL     1      47.952   7.594  13.563  0.00  0.00    +0.000 C 
ENDROOT
BRANCH   2   3
ATOM      3  C   UNL     1      46.859   6.916  12.747  0.00  0.00    +0.000 A 
ATOM      4  C   UNL     1      46.705   5.522  12.852  0.00  0.00    +0.000 A 
ATOM      5  C   UNL     1      45.749   4.847  12.091  0.00  0.00    +0.000 A 
ATOM      6  C   UNL     1      44.917   5.538  11.198  0.00  0.00    +0.000 A 
ATOM      7  C   UNL     1      45.054   6.927  11.101  0.00  0.00    +0.000 A 
ATOM      8  C   UNL     1      46.023   7.603  11.856  0.00  0.00    +0.000 A 
BRANCH   6   9
ATOM      9  C   UNL     1      43.948   4.786  10.312  0.00  0.00    +0.000 C 
BRANCH   9  10
ATOM     10  N   UNL     1      44.490   3.696   9.493  0.00  0.00    +0.000 N 
ATOM     11  C   UNL     1      44.305   2.325   9.959  0.00  0.00    +0.000 C 
ATOM     12  C   UNL     1      45.451   4.067   8.534  0.00  0.00    +0.000 C 
ATOM     13  O   UNL     1      45.825   5.233   8.395  0.00  0.00    +0.000 OA
BRANCH  12  14
ATOM     14  C   UNL     1      46.083   3.035   7.658  0.00  0.00    +0.000 A 
ATOM     15  C   UNL     1      46.345   1.737   8.110  0.00  0.00    +0.000 A 
ATOM     16  C   UNL     1      47.024   0.831   7.293  0.00  0.00    +0.000 A 
ATOM     17  C   UNL     1      47.377   1.190   5.993  0.00  0.00    +0.000 A 
ATOM     18  C   UNL     1      47.039   2.452   5.504  0.00  0.00    +0.000 A 
ATOM     19  C   UNL     1      46.396   3.374   6.334  0.00  0.00    +0.000 A 
ENDBRANCH  12  14
ENDBRANCH   9  10
ENDBRANCH   6   9
ENDBRANCH   2   3
BRANCH   2  20
ATOM     20  N   UNL     1      48.789   8.386  12.678  0.00  0.00    +0.000 N 
ATOM     21  C   UNL     1      50.129   8.578  12.911  0.00  0.00    +0.000 C 
ATOM     22  O   UNL     1      50.739   7.974  13.787  0.00  0.00    +0.000 OA
ATOM     23  H   UNL     1      48.303   9.016  12.048  0.00  0.00    +0.000 HD
BRANCH  21  24
ATOM     24  C   UNL     1      50.815   9.524  12.021  0.00  0.00    +0.000 A 
ATOM     25  C   UNL     1      50.724  10.889  12.255  0.00  0.00    +0.000 A 
ATOM     26  S   UNL     1      51.562  11.835  11.107  0.00  0.00    +0.000 S 
ATOM     27  C   UNL     1      52.031  10.454  10.231  0.00  0.00    +0.000 A 
ATOM     28  N   UNL     1      52.745  10.564   9.077  0.00  0.00    +0.000 NA
ATOM     29  C   UNL     1      52.993   9.438   8.497  0.00  0.00    +0.000 A 
ATOM     30  N   UNL     1      52.614   8.210   8.971  0.00  0.00    +0.000 N 
ATOM     31  C   UNL     1      51.950   8.047  10.165  0.00  0.00    +0.000 A 
ATOM     32  O   UNL     1      51.715   6.932  10.619  0.00  0.00    +0.000 OA
ATOM     33  C   UNL     1      51.598   9.285  10.832  0.00  0.00    +0.000 A 
ATOM     34  H   UNL     1      52.873   7.365   8.487  0.00  0.00    +0.000 HD
ENDBRANCH  21  24
ENDBRANCH   2  20
TORSDOF 6
ENDMDL
MODEL 8
REMARK VINA RESULT:    -6.864      3.794      9.736
REMARK INTER + INTRA:          -9.672
REMARK INTER:                  -9.536
REMARK INTRA:                  -0.136
REMARK UNBOUND:                -0.400
REMARK  Name = 
REMARK  8 active torsions:
REMARK  status: ('A' for Active; 'I' for Inactive)
REMARK    1  A    between atoms: C_1  and  C_2
REMARK    2  A    between atoms: C_2  and  N_3
REMARK    3  A    between atoms: C_2  and  C_16
REMARK    4  A    between atoms: C_4  and  C_6
REMARK    5  A    between atoms: C_19  and  C_20
REMARK    6  A    between atoms: C_20  and  N_21
REMARK    7  A    between atoms: N_21  and  C_22
REMARK    8  A    between atoms: C_23  and  C_25
REMARK                            x       y       z     vdW  Elec       q    Type
REMARK                         _______ _______ _______ _____ _____    ______ ____
ROOT
ATOM      1  C   UNL     1      46.476   9.049  12.094  0.00  0.00    +0.000 C 
ATOM      2  C   UNL     1      47.357   7.799  12.186  0.00  0.00    +0.000 C 
ENDROOT
BRANCH   2   3
ATOM      3  C   UNL     1      47.930   7.532  13.572  0.00  0.00    +0.000 A 
ATOM      4  C   UNL     1      48.459   8.611  14.302  0.00  0.00    +0.000 A 
ATOM      5  C   UNL     1      49.038   8.412  15.557  0.00  0.00    +0.000 A 
ATOM      6  C   UNL     1      49.111   7.131  16.124  0.00  0.00    +0.000 A 
ATOM      7  C   UNL     1      48.572   6.057  15.409  0.00  0.00    +0.000 A 
ATOM      8  C   UNL     1      48.002   6.254  14.144  0.00  0.00    +0.000 A 
BRANCH   6   9
ATOM      9  C   UNL     1      49.822   6.914  17.442  0.00  0.00    +0.000 C 
BRANCH   9  10
ATOM     10  N   UNL     1      50.844   5.863  17.491  0.00  0.00    +0.000 N 
ATOM     11  C   UNL     1      52.045   6.029  16.678  0.00  0.00    +0.000 C 
ATOM     12  C   UNL     1      50.429   4.626  18.019  0.00  0.00    +0.000 C 
ATOM     13  O   UNL     1      49.275   4.430  18.406  0.00  0.00    +0.000 OA
BRANCH  12  14
ATOM     14  C   UNL     1      51.384   3.480  18.100  0.00  0.00    +0.000 A 
ATOM     15  C   UNL     1      52.560   3.545  18.856  0.00  0.00    +0.000 A 
ATOM     16  C   UNL     1      53.474   2.490  18.828  0.00  0.00    +0.000 A 
ATOM     17  C   UNL     1      53.183   1.333  18.107  0.00  0.00    +0.000 A 
ATOM     18  C   UNL     1      51.971   1.223  17.425  0.00  0.00    +0.000 A 
ATOM     19  C   UNL     1      51.074   2.295  17.418  0.00  0.00    +0.000 A 
ENDBRANCH  12  14
ENDBRANCH   9  10
ENDBRANCH   6   9
ENDBRANCH   2   3
BRANCH   2  20
ATOM     20  N   UNL     1      46.621   6.629  11.737  0.00  0.00    +0.000 N 
ATOM     21  C   UNL     1      45.321   6.391  12.111  0.00  0.00    +0.000 C 
ATOM     22  O   UNL     1      44.647   7.218  12.718  0.00  0.00    +0.000 OA
ATOM     23  H   UNL     1      47.178   5.863  11.374  0.00  0.00    +0.000 HD
BRANCH  21  24
ATOM     24  C   UNL     1      44.754   5.098  11.708  0.00  0.00    +0.000 A 
ATOM     25  C   UNL     1      43.999   4.360  12.608  0.00  0.00    +0.000 A 
ATOM     26  S   UNL     1      43.444   2.874  11.976  0.00  0.00    +0.000 S 
ATOM     27  C   UNL     1      44.240   3.144  10.496  0.00  0.00    +0.000 A 
ATOM     28  N   UNL     1      44.213   2.212   9.505  0.00  0.00    +0.000 NA
ATOM     29  C   UNL     1      44.894   2.533   8.456  0.00  0.00    +0.000 A 
ATOM     30  N   UNL     1      45.583   3.706   8.296  0.00  0.00    +0.000 N 
ATOM     31  C   UNL     1      45.583   4.703   9.244  0.00  0.00    +0.000 A 
ATOM     32  O   UNL     1      46.120   5.786   9.033  0.00  0.00    +0.000 OA
ATOM     33  C   UNL     1      44.877   4.372  10.467  0.00  0.00    +0.000 A 
ATOM     34  H   UNL     1      46.065   3.910   7.435  0.00  0.00    +0.000 HD
ENDBRANCH  21  24
ENDBRANCH   2  20
TORSDOF 6
ENDMDL
MODEL 9
REMARK VINA RESULT:    -6.765      6.178      9.181
REMARK INTER + INTRA:          -9.538
REMARK INTER:                  -8.277
REMARK INTRA:                  -1.261
REMARK UNBOUND:                -0.400
REMARK  Name = 
REMARK  8 active torsions:
REMARK  status: ('A' for Active; 'I' for Inactive)
REMARK    1  A    between atoms: C_1  and  C_2
REMARK    2  A    between atoms: C_2  and  N_3
REMARK    3  A    between atoms: C_2  and  C_16
REMARK    4  A    between atoms: C_4  and  C_6
REMARK    5  A    between atoms: C_19  and  C_20
REMARK    6  A    between atoms: C_20  and  N_21
REMARK    7  A    between atoms: N_21  and  C_22
REMARK    8  A    between atoms: C_23  and  C_25
REMARK                            x       y       z     vdW  Elec       q    Type
REMARK                         _______ _______ _______ _____ _____    ______ ____
ROOT
ATOM      1  C   UNL     1      51.752  11.433   9.500  0.00  0.00    +0.000 C 
ATOM      2  C   UNL     1      52.124  10.073  10.098  0.00  0.00    +0.000 C 
ENDROOT
BRANCH   2   3
ATOM      3  C   UNL     1      51.025   9.431  10.935  0.00  0.00    +0.000 A 
ATOM      4  C   UNL     1      49.959  10.233  11.378  0.00  0.00    +0.000 A 
ATOM      5  C   UNL     1      48.950   9.703  12.186  0.00  0.00    +0.000 A 
ATOM      6  C   UNL     1      48.974   8.358  12.582  0.00  0.00    +0.000 A 
ATOM      7  C   UNL     1      50.024   7.551  12.131  0.00  0.00    +0.000 A 
ATOM      8  C   UNL     1      51.043   8.086  11.330  0.00  0.00    +0.000 A 
BRANCH   6   9
ATOM      9  C   UNL     1      47.927   7.818  13.532  0.00  0.00    +0.000 C 
BRANCH   9  10
ATOM     10  N   UNL     1      46.721   7.229  12.940  0.00  0.00    +0.000 N 
ATOM     11  C   UNL     1      45.530   8.065  12.821  0.00  0.00    +0.000 C 
ATOM     12  C   UNL     1      46.691   5.823  12.877  0.00  0.00    +0.000 C 
ATOM     13  O   UNL     1      47.614   5.126  13.303  0.00  0.00    +0.000 OA
BRANCH  12  14
ATOM     14  C   UNL     1      45.504   5.116  12.309  0.00  0.00    +0.000 A 
ATOM     15  C   UNL     1      44.559   4.481  13.122  0.00  0.00    +0.000 A 
ATOM     16  C   UNL     1      43.516   3.749  12.549  0.00  0.00    +0.000 A 
ATOM     17  C   UNL     1      43.368   3.711  11.164  0.00  0.00    +0.000 A 
ATOM     18  C   UNL     1      44.253   4.416  10.349  0.00  0.00    +0.000 A 
ATOM     19  C   UNL     1      45.321   5.115  10.919  0.00  0.00    +0.000 A 
ENDBRANCH  12  14
ENDBRANCH   9  10
ENDBRANCH   6   9
ENDBRANCH   2   3
BRANCH   2  20
ATOM     20  N   UNL     1      52.527   9.154   9.048  0.00  0.00    +0.000 N 
ATOM     21  C   UNL     1      53.823   9.072   8.600  0.00  0.00    +0.000 C 
ATOM     22  O   UNL     1      54.750   9.652   9.156  0.00  0.00    +0.000 OA
ATOM     23  H   UNL     1      51.781   8.781   8.470  0.00  0.00    +0.000 HD
BRANCH  21  24
ATOM     24  C   UNL     1      54.055   8.211   7.433  0.00  0.00    +0.000 A 
ATOM     25  C   UNL     1      54.411   8.773   6.215  0.00  0.00    +0.000 A 
ATOM     26  S   UNL     1      54.615   7.625   4.968  0.00  0.00    +0.000 S 
ATOM     27  C   UNL     1      54.182   6.345   6.001  0.00  0.00    +0.000 A 
ATOM     28  N   UNL     1      54.103   5.067   5.540  0.00  0.00    +0.000 NA
ATOM     29  C   UNL     1      53.722   4.206   6.423  0.00  0.00    +0.000 A 
ATOM     30  N   UNL     1      53.432   4.497   7.730  0.00  0.00    +0.000 N 
ATOM     31  C   UNL     1      53.561   5.762   8.255  0.00  0.00    +0.000 A 
ATOM     32  O   UNL     1      53.397   5.978   9.452  0.00  0.00    +0.000 OA
ATOM     33  C   UNL     1      53.935   6.780   7.291  0.00  0.00    +0.000 A 
ATOM     34  H   UNL     1      53.175   3.770   8.378  0.00  0.00    +0.000 HD
ENDBRANCH  21  24
ENDBRANCH   2  20
TORSDOF 6
ENDMDL
