MODEL 1
REMARK VINA RESULT:    -7.716      0.000      0.000
REMARK INTER + INTRA:         -11.665
REMARK INTER:                 -10.422
REMARK INTRA:                  -1.243
REMARK UNBOUND:                -1.243
REMARK  Name = 
REMARK  6 active torsions:
REMARK  status: ('A' for Active; 'I' for Inactive)
REMARK    1  A    between atoms: C_2  and  C_3
REMARK    2  A    between atoms: C_2  and  C_19
REMARK    3  A    between atoms: C_3  and  N_4
REMARK    4  A    between atoms: N_4  and  C_5
REMARK    5  A    between atoms: C_8  and  C_9
REMARK    6  A    between atoms: C_9  and  N_10
REMARK                            x       y       z     vdW  Elec       q    Type
REMARK                         _______ _______ _______ _____ _____    ______ ____
ROOT
ATOM      1  N   UNL     1      47.686   5.697  14.576  0.00  0.00    +0.000 N 
ATOM      2  H   UNL     1      47.238   5.590  15.484  0.00  0.00    +0.000 HD
ENDROOT
BRANCH   1   3
ATOM      3  C   UNL     1      46.745   5.441  13.573  0.00  0.00    +0.000 A 
ATOM      4  C   UNL     1      46.285   4.125  13.434  0.00  0.00    +0.000 A 
ATOM      5  C   UNL     1      45.308   3.797  12.494  0.00  0.00    +0.000 A 
ATOM      6  C   UNL     1      44.754   4.794  11.678  0.00  0.00    +0.000 A 
ATOM      7  C   UNL     1      45.178   6.114  11.843  0.00  0.00    +0.000 A 
ATOM      8  C   UNL     1      46.163   6.433  12.783  0.00  0.00    +0.000 A 
BRANCH   6   9
ATOM      9  C   UNL     1      43.667   4.457  10.686  0.00  0.00    +0.000 C 
BRANCH   9  10
ATOM     10  N   UNL     1      44.163   4.694   9.350  0.00  0.00    +0.000 N 
ATOM     11  C   UNL     1      45.070   3.829   8.771  0.00  0.00    +0.000 A 
ATOM     12  C   UNL     1      45.058   2.464   8.983  0.00  0.00    +0.000 A 
ATOM     13  C   UNL     1      45.980   1.718   8.283  0.00  0.00    +0.000 A 
ATOM     14  N   UNL     1      46.861   2.249   7.418  0.00  0.00    +0.000 NA
ATOM     15  C   UNL     1      46.778   3.577   7.270  0.00  0.00    +0.000 A 
ATOM     16  N   UNL     1      45.934   4.396   7.915  0.00  0.00    +0.000 NA
ATOM     17  H   UNL     1      44.454   5.647   9.157  0.00  0.00    +0.000 HD
ENDBRANCH   9  10
ENDBRANCH   6   9
ENDBRANCH   1   3
BRANCH   1  18
ATOM     18  C   UNL     1      48.439   6.953  14.535  0.00  0.00    +0.000 C 
BRANCH  18  20
ATOM     19  C   UNL     1      50.719   7.065  15.670  0.00  0.00    +0.000 C 
ATOM     20  C   UNL     1      49.371   7.024  15.725  0.00  0.00    +0.000 C 
BRANCH  20  21
ATOM     21  C   UNL     1      48.728   7.073  17.005  0.00  0.00    +0.000 A 
ATOM     22  C   UNL     1      48.256   8.248  17.552  0.00  0.00    +0.000 A 
ATOM     23  S   UNL     1      47.975   8.093  19.237  0.00  0.00    +0.000 S 
ATOM     24  C   UNL     1      48.446   6.452  19.225  0.00  0.00    +0.000 A 
ATOM     25  N   UNL     1      48.583   5.733  20.371  0.00  0.00    +0.000 NA
ATOM     26  C   UNL     1      48.920   4.499  20.184  0.00  0.00    +0.000 A 
ATOM     27  N   UNL     1      49.081   3.903  18.956  0.00  0.00    +0.000 N 
ATOM     28  C   UNL     1      48.917   4.580  17.769  0.00  0.00    +0.000 A 
ATOM     29  O   UNL     1      48.935   4.006  16.685  0.00  0.00    +0.000 OA
ATOM     30  C   UNL     1      48.667   5.996  17.939  0.00  0.00    +0.000 A 
ATOM     31  H   UNL     1      49.251   2.912  18.879  0.00  0.00    +0.000 HD
ENDBRANCH  20  21
ENDBRANCH  18  20
ENDBRANCH   1  18
TORSDOF 6
ENDMDL
MODEL 2
REMARK VINA RESULT:    -7.581      3.573      5.338
REMARK INTER + INTRA:         -11.483
REMARK INTER:                 -10.350
REMARK INTRA:                  -1.133
REMARK UNBOUND:                -1.243
REMARK  Name = 
REMARK  6 active torsions:
REMARK  status: ('A' for Active; 'I' for Inactive)
REMARK    1  A    between atoms: C_2  and  C_3
REMARK    2  A    between atoms: C_2  and  C_19
REMARK    3  A    between atoms: C_3  and  N_4
REMARK    4  A    between atoms: N_4  and  C_5
REMARK    5  A    between atoms: C_8  and  C_9
REMARK    6  A    between atoms: C_9  and  N_10
REMARK                            x       y       z     vdW  Elec       q    Type
REMARK                         _______ _______ _______ _____ _____    ______ ____
ROOT
ATOM      1  N   UNL     1      47.466   6.246  13.913  0.00  0.00    +0.000 N 
ATOM      2  H   UNL     1      46.916   6.823  14.547  0.00  0.00    +0.000 HD
ENDROOT
BRANCH   1   3
ATOM      3  C   UNL     1      46.625   5.735  12.920  0.00  0.00    +0.000 A 
ATOM      4  C   UNL     1      45.756   4.695  13.277  0.00  0.00    +0.000 A 
ATOM      5  C   UNL     1      44.848   4.166  12.359  0.00  0.00    +0.000 A 
ATOM      6  C   UNL     1      44.780   4.684  11.058  0.00  0.00    +0.000 A 
ATOM      7  C   UNL     1      45.614   5.749  10.711  0.00  0.00    +0.000 A 
ATOM      8  C   UNL     1      46.526   6.269  11.635  0.00  0.00    +0.000 A 
BRANCH   6   9
ATOM      9  C   UNL     1      43.774   4.147  10.070  0.00  0.00    +0.000 C 
BRANCH   9  10
ATOM     10  N   UNL     1      44.307   4.290   8.734  0.00  0.00    +0.000 N 
ATOM     11  C   UNL     1      45.303   3.450   8.279  0.00  0.00    +0.000 A 
ATOM     12  C   UNL     1      45.389   2.116   8.629  0.00  0.00    +0.000 A 
ATOM     13  C   UNL     1      46.396   1.384   8.041  0.00  0.00    +0.000 A 
ATOM     14  N   UNL     1      47.269   1.897   7.157  0.00  0.00    +0.000 NA
ATOM     15  C   UNL     1      47.087   3.193   6.871  0.00  0.00    +0.000 A 
ATOM     16  N   UNL     1      46.155   3.999   7.400  0.00  0.00    +0.000 NA
ATOM     17  H   UNL     1      44.530   5.240   8.455  0.00  0.00    +0.000 HD
ENDBRANCH   9  10
ENDBRANCH   6   9
ENDBRANCH   1   3
BRANCH   1  18
ATOM     18  C   UNL     1      48.681   6.962  13.512  0.00  0.00    +0.000 C 
BRANCH  18  20
ATOM     19  C   UNL     1      48.452   9.021  14.998  0.00  0.00    +0.000 C 
ATOM     20  C   UNL     1      48.509   8.441  13.780  0.00  0.00    +0.000 C 
BRANCH  20  21
ATOM     21  C   UNL     1      48.425   9.270  12.614  0.00  0.00    +0.000 A 
ATOM     22  C   UNL     1      49.537   9.641  11.888  0.00  0.00    +0.000 A 
ATOM     23  S   UNL     1      49.208  10.976  10.863  0.00  0.00    +0.000 S 
ATOM     24  C   UNL     1      47.575  11.030  11.360  0.00  0.00    +0.000 A 
ATOM     25  N   UNL     1      46.739  12.034  10.980  0.00  0.00    +0.000 NA
ATOM     26  C   UNL     1      45.530  11.910  11.422  0.00  0.00    +0.000 A 
ATOM     27  N   UNL     1      45.066  10.849  12.163  0.00  0.00    +0.000 N 
ATOM     28  C   UNL     1      45.865   9.794  12.540  0.00  0.00    +0.000 A 
ATOM     29  O   UNL     1      45.408   8.795  13.087  0.00  0.00    +0.000 OA
ATOM     30  C   UNL     1      47.256   9.961  12.174  0.00  0.00    +0.000 A 
ATOM     31  H   UNL     1      44.088  10.768  12.395  0.00  0.00    +0.000 HD
ENDBRANCH  20  21
ENDBRANCH  18  20
ENDBRANCH   1  18
TORSDOF 6
ENDMDL
MODEL 3
REMARK VINA RESULT:    -7.388      1.752      2.222
REMARK INTER + INTRA:         -11.223
REMARK INTER:                 -10.159
REMARK INTRA:                  -1.063
REMARK UNBOUND:                -1.243
REMARK  Name = 
REMARK  6 active torsions:
REMARK  status: ('A' for Active; 'I' for Inactive)
REMARK    1  A    between atoms: C_2  and  C_3
REMARK    2  A    between atoms: C_2  and  C_19
REMARK    3  A    between atoms: C_3  and  N_4
REMARK    4  A    between atoms: N_4  and  C_5
REMARK    5  A    between atoms: C_8  and  C_9
REMARK    6  A    between atoms: C_9  and  N_10
REMARK                            x       y       z     vdW  Elec       q    Type
REMARK                         _______ _______ _______ _____ _____    ______ ____
ROOT
ATOM      1  N   UNL     1      47.546   7.449  13.939  0.00  0.00    +0.000 N 
ATOM      2  H   UNL     1      47.836   8.237  13.362  0.00  0.00    +0.000 HD
ENDROOT
BRANCH   1   3
ATOM      3  C   UNL     1      46.606   6.691  13.233  0.00  0.00    +0.000 A 
ATOM      4  C   UNL     1      45.782   7.363  12.321  0.00  0.00    +0.000 A 
ATOM      5  C   UNL     1      44.857   6.672  11.538  0.00  0.00    +0.000 A 
ATOM      6  C   UNL     1      44.748   5.278  11.643  0.00  0.00    +0.000 A 
ATOM      7  C   UNL     1      45.597   4.599  12.519  0.00  0.00    +0.000 A 
ATOM      8  C   UNL     1      46.518   5.301  13.305  0.00  0.00    +0.000 A 
BRANCH   6   9
ATOM      9  C   UNL     1      43.778   4.517  10.773  0.00  0.00    +0.000 C 
BRANCH   9  10
ATOM     10  N   UNL     1      44.149   4.701   9.388  0.00  0.00    +0.000 N 
ATOM     11  C   UNL     1      45.049   3.850   8.780  0.00  0.00    +0.000 A 
ATOM     12  C   UNL     1      45.128   2.500   9.064  0.00  0.00    +0.000 A 
ATOM     13  C   UNL     1      46.027   1.761   8.328  0.00  0.00    +0.000 A 
ATOM     14  N   UNL     1      46.804   2.284   7.363  0.00  0.00    +0.000 NA
ATOM     15  C   UNL     1      46.637   3.596   7.153  0.00  0.00    +0.000 A 
ATOM     16  N   UNL     1      45.807   4.409   7.824  0.00  0.00    +0.000 NA
ATOM     17  H   UNL     1      44.371   5.654   9.121  0.00  0.00    +0.000 HD
ENDBRANCH   9  10
ENDBRANCH   6   9
ENDBRANCH   1   3
BRANCH   1  18
ATOM     18  C   UNL     1      48.724   6.776  14.494  0.00  0.00    +0.000 C 
BRANCH  18  20
ATOM     19  C   UNL     1      48.358   8.306  16.500  0.00  0.00    +0.000 C 
ATOM     20  C   UNL     1      48.953   7.245  15.914  0.00  0.00    +0.000 C 
BRANCH  20  21
ATOM     21  C   UNL     1      49.873   6.456  16.680  0.00  0.00    +0.000 A 
ATOM     22  C   UNL     1      51.147   6.889  16.982  0.00  0.00    +0.000 A 
ATOM     23  S   UNL     1      52.154   5.593  17.479  0.00  0.00    +0.000 S 
ATOM     24  C   UNL     1      50.880   4.466  17.327  0.00  0.00    +0.000 A 
ATOM     25  N   UNL     1      51.082   3.128  17.461  0.00  0.00    +0.000 NA
ATOM     26  C   UNL     1      50.008   2.417  17.343  0.00  0.00    +0.000 A 
ATOM     27  N   UNL     1      48.744   2.924  17.157  0.00  0.00    +0.000 N 
ATOM     28  C   UNL     1      48.486   4.271  17.052  0.00  0.00    +0.000 A 
ATOM     29  O   UNL     1      47.342   4.714  17.018  0.00  0.00    +0.000 OA
ATOM     30  C   UNL     1      49.679   5.091  17.050  0.00  0.00    +0.000 A 
ATOM     31  H   UNL     1      47.937   2.319  17.168  0.00  0.00    +0.000 HD
ENDBRANCH  20  21
ENDBRANCH  18  20
ENDBRANCH   1  18
TORSDOF 6
ENDMDL
MODEL 4
REMARK VINA RESULT:    -7.334      1.705      2.390
REMARK INTER + INTRA:         -11.149
REMARK INTER:                  -9.802
REMARK INTRA:                  -1.347
REMARK UNBOUND:                -1.243
REMARK  Name = 
REMARK  6 active torsions:
REMARK  status: ('A' for Active; 'I' for Inactive)
REMARK    1  A    between atoms: C_2  and  C_3
REMARK    2  A    between atoms: C_2  and  C_19
REMARK    3  A    between atoms: C_3  and  N_4
REMARK    4  A    between atoms: N_4  and  C_5
REMARK    5  A    between atoms: C_8  and  C_9
REMARK    6  A    between atoms: C_9  and  N_10
REMARK                            x       y       z     vdW  Elec       q    Type
REMARK                         _______ _______ _______ _____ _____    ______ ____
ROOT
ATOM      1  N   UNL     1      46.321   7.152  13.402  0.00  0.00    +0.000 N 
ATOM      2  H   UNL     1      45.576   7.665  13.870  0.00  0.00    +0.000 HD
ENDROOT
BRANCH   1   3
ATOM      3  C   UNL     1      45.753   6.182  12.571  0.00  0.00    +0.000 A 
ATOM      4  C   UNL     1      45.972   6.298  11.192  0.00  0.00    +0.000 A 
ATOM      5  C   UNL     1      45.485   5.342  10.300  0.00  0.00    +0.000 A 
ATOM      6  C   UNL     1      44.776   4.230  10.778  0.00  0.00    +0.000 A 
ATOM      7  C   UNL     1      44.593   4.088  12.155  0.00  0.00    +0.000 A 
ATOM      8  C   UNL     1      45.079   5.055  13.042  0.00  0.00    +0.000 A 
BRANCH   6   9
ATOM      9  C   UNL     1      44.280   3.169   9.826  0.00  0.00    +0.000 C 
BRANCH   9  10
ATOM     10  N   UNL     1      45.324   2.189   9.634  0.00  0.00    +0.000 N 
ATOM     11  C   UNL     1      45.952   2.059   8.412  0.00  0.00    +0.000 A 
ATOM     12  C   UNL     1      46.215   3.127   7.577  0.00  0.00    +0.000 A 
ATOM     13  C   UNL     1      46.912   2.855   6.420  0.00  0.00    +0.000 A 
ATOM     14  N   UNL     1      47.344   1.627   6.086  0.00  0.00    +0.000 NA
ATOM     15  C   UNL     1      47.054   0.665   6.971  0.00  0.00    +0.000 A 
ATOM     16  N   UNL     1      46.367   0.818   8.112  0.00  0.00    +0.000 NA
ATOM     17  H   UNL     1      45.122   1.262   9.996  0.00  0.00    +0.000 HD
ENDBRANCH   9  10
ENDBRANCH   6   9
ENDBRANCH   1   3
BRANCH   1  18
ATOM     18  C   UNL     1      47.292   8.091  12.833  0.00  0.00    +0.000 C 
BRANCH  18  20
ATOM     19  C   UNL     1      49.800   7.688  13.043  0.00  0.00    +0.000 C 
ATOM     20  C   UNL     1      48.600   7.986  13.585  0.00  0.00    +0.000 C 
BRANCH  20  21
ATOM     21  C   UNL     1      48.522   8.254  14.991  0.00  0.00    +0.000 A 
ATOM     22  C   UNL     1      48.508   9.535  15.501  0.00  0.00    +0.000 A 
ATOM     23  S   UNL     1      48.880   9.555  17.174  0.00  0.00    +0.000 S 
ATOM     24  C   UNL     1      49.020   7.854  17.223  0.00  0.00    +0.000 A 
ATOM     25  N   UNL     1      49.465   7.199  18.330  0.00  0.00    +0.000 NA
ATOM     26  C   UNL     1      49.486   5.912  18.209  0.00  0.00    +0.000 A 
ATOM     27  N   UNL     1      49.053   5.216  17.105  0.00  0.00    +0.000 N 
ATOM     28  C   UNL     1      48.562   5.833  15.977  0.00  0.00    +0.000 A 
ATOM     29  O   UNL     1      48.059   5.199  15.056  0.00  0.00    +0.000 OA
ATOM     30  C   UNL     1      48.644   7.278  16.026  0.00  0.00    +0.000 A 
ATOM     31  H   UNL     1      49.007   4.209  17.113  0.00  0.00    +0.000 HD
ENDBRANCH  20  21
ENDBRANCH  18  20
ENDBRANCH   1  18
TORSDOF 6
ENDMDL
MODEL 5
REMARK VINA RESULT:    -7.160      1.620      1.999
REMARK INTER + INTRA:         -10.914
REMARK INTER:                  -9.864
REMARK INTRA:                  -1.050
REMARK UNBOUND:                -1.243
REMARK  Name = 
REMARK  6 active torsions:
REMARK  status: ('A' for Active; 'I' for Inactive)
REMARK    1  A    between atoms: C_2  and  C_3
REMARK    2  A    between atoms: C_2  and  C_19
REMARK    3  A    between atoms: C_3  and  N_4
REMARK    4  A    between atoms: N_4  and  C_5
REMARK    5  A    between atoms: C_8  and  C_9
REMARK    6  A    between atoms: C_9  and  N_10
REMARK                            x       y       z     vdW  Elec       q    Type
REMARK                         _______ _______ _______ _____ _____    ______ ____
ROOT
ATOM      1  N   UNL     1      47.138   6.141  14.424  0.00  0.00    +0.000 N 
ATOM      2  H   UNL     1      47.533   7.046  14.176  0.00  0.00    +0.000 HD
ENDROOT
BRANCH   1   3
ATOM      3  C   UNL     1      46.309   5.708  13.385  0.00  0.00    +0.000 A 
ATOM      4  C   UNL     1      46.088   4.330  13.261  0.00  0.00    +0.000 A 
ATOM      5  C   UNL     1      45.231   3.820  12.285  0.00  0.00    +0.000 A 
ATOM      6  C   UNL     1      44.559   4.690  11.414  0.00  0.00    +0.000 A 
ATOM      7  C   UNL     1      44.743   6.067  11.562  0.00  0.00    +0.000 A 
ATOM      8  C   UNL     1      45.608   6.568  12.539  0.00  0.00    +0.000 A 
BRANCH   6   9
ATOM      9  C   UNL     1      43.600   4.152  10.381  0.00  0.00    +0.000 C 
BRANCH   9  10
ATOM     10  N   UNL     1      44.133   4.417   9.064  0.00  0.00    +0.000 N 
ATOM     11  C   UNL     1      45.137   3.630   8.539  0.00  0.00    +0.000 A 
ATOM     12  C   UNL     1      45.236   2.272   8.770  0.00  0.00    +0.000 A 
ATOM     13  C   UNL     1      46.251   1.604   8.122  0.00  0.00    +0.000 A 
ATOM     14  N   UNL     1      47.119   2.201   7.288  0.00  0.00    +0.000 NA
ATOM     15  C   UNL     1      46.925   3.515   7.117  0.00  0.00    +0.000 A 
ATOM     16  N   UNL     1      45.985   4.263   7.713  0.00  0.00    +0.000 NA
ATOM     17  H   UNL     1      44.347   5.390   8.870  0.00  0.00    +0.000 HD
ENDBRANCH   9  10
ENDBRANCH   6   9
ENDBRANCH   1   3
BRANCH   1  18
ATOM     18  C   UNL     1      48.196   5.248  14.904  0.00  0.00    +0.000 C 
BRANCH  18  20
ATOM     19  C   UNL     1      46.977   3.998  16.762  0.00  0.00    +0.000 C 
ATOM     20  C   UNL     1      47.922   4.866  16.342  0.00  0.00    +0.000 C 
BRANCH  20  21
ATOM     21  C   UNL     1      48.776   5.484  17.314  0.00  0.00    +0.000 A 
ATOM     22  C   UNL     1      48.483   6.702  17.889  0.00  0.00    +0.000 A 
ATOM     23  S   UNL     1      49.862   7.401  18.630  0.00  0.00    +0.000 S 
ATOM     24  C   UNL     1      50.837   6.061  18.216  0.00  0.00    +0.000 A 
ATOM     25  N   UNL     1      52.181   6.057  18.421  0.00  0.00    +0.000 NA
ATOM     26  C   UNL     1      52.764   4.955  18.076  0.00  0.00    +0.000 A 
ATOM     27  N   UNL     1      52.122   3.839  17.596  0.00  0.00    +0.000 N 
ATOM     28  C   UNL     1      50.760   3.784  17.407  0.00  0.00    +0.000 A 
ATOM     29  O   UNL     1      50.187   2.742  17.104  0.00  0.00    +0.000 OA
ATOM     30  C   UNL     1      50.088   5.041  17.659  0.00  0.00    +0.000 A 
ATOM     31  H   UNL     1      52.625   2.980  17.437  0.00  0.00    +0.000 HD
ENDBRANCH  20  21
ENDBRANCH  18  20
ENDBRANCH   1  18
TORSDOF 6
ENDMDL
MODEL 6
REMARK VINA RESULT:    -7.082      1.867      2.388
REMARK INTER + INTRA:         -10.809
REMARK INTER:                  -9.737
REMARK INTRA:                  -1.072
REMARK UNBOUND:                -1.243
REMARK  Name = 
REMARK  6 active torsions:
REMARK  status: ('A' for Active; 'I' for Inactive)
REMARK    1  A    between atoms: C_2  and  C_3
REMARK    2  A    between atoms: C_2  and  C_19
REMARK    3  A    between atoms: C_3  and  N_4
REMARK    4  A    between atoms: N_4  and  C_5
REMARK    5  A    between atoms: C_8  and  C_9
REMARK    6  A    between atoms: C_9  and  N_10
REMARK                            x       y       z     vdW  Elec       q    Type
REMARK                         _______ _______ _______ _____ _____    ______ ____
ROOT
ATOM      1  N   UNL     1      47.337   7.626  13.903  0.00  0.00    +0.000 N 
ATOM      2  H   UNL     1      47.438   8.517  13.420  0.00  0.00    +0.000 HD
ENDROOT
BRANCH   1   3
ATOM      3  C   UNL     1      46.454   6.816  13.181  0.00  0.00    +0.000 A 
ATOM      4  C   UNL     1      45.654   7.432  12.209  0.00  0.00    +0.000 A 
ATOM      5  C   UNL     1      44.787   6.688  11.409  0.00  0.00    +0.000 A 
ATOM      6  C   UNL     1      44.715   5.295  11.556  0.00  0.00    +0.000 A 
ATOM      7  C   UNL     1      45.542   4.672  12.493  0.00  0.00    +0.000 A 
ATOM      8  C   UNL     1      46.404   5.427  13.296  0.00  0.00    +0.000 A 
BRANCH   6   9
ATOM      9  C   UNL     1      43.811   4.475  10.668  0.00  0.00    +0.000 C 
BRANCH   9  10
ATOM     10  N   UNL     1      44.217   4.655   9.293  0.00  0.00    +0.000 N 
ATOM     11  C   UNL     1      45.121   3.792   8.707  0.00  0.00    +0.000 A 
ATOM     12  C   UNL     1      45.174   2.441   8.992  0.00  0.00    +0.000 A 
ATOM     13  C   UNL     1      46.081   1.691   8.277  0.00  0.00    +0.000 A 
ATOM     14  N   UNL     1      46.887   2.204   7.331  0.00  0.00    +0.000 NA
ATOM     15  C   UNL     1      46.744   3.518   7.119  0.00  0.00    +0.000 A 
ATOM     16  N   UNL     1      45.909   4.341   7.770  0.00  0.00    +0.000 NA
ATOM     17  H   UNL     1      44.459   5.605   9.032  0.00  0.00    +0.000 HD
ENDBRANCH   9  10
ENDBRANCH   6   9
ENDBRANCH   1   3
BRANCH   1  18
ATOM     18  C   UNL     1      48.656   7.094  14.255  0.00  0.00    +0.000 C 
BRANCH  18  20
ATOM     19  C   UNL     1      48.773   8.359  16.465  0.00  0.00    +0.000 C 
ATOM     20  C   UNL     1      48.871   7.220  15.748  0.00  0.00    +0.000 C 
BRANCH  20  21
ATOM     21  C   UNL     1      49.182   5.997  16.427  0.00  0.00    +0.000 A 
ATOM     22  C   UNL     1      48.214   5.082  16.784  0.00  0.00    +0.000 A 
ATOM     23  S   UNL     1      48.790   3.980  17.965  0.00  0.00    +0.000 S 
ATOM     24  C   UNL     1      50.338   4.701  17.968  0.00  0.00    +0.000 A 
ATOM     25  N   UNL     1      51.298   4.342  18.863  0.00  0.00    +0.000 NA
ATOM     26  C   UNL     1      52.421   4.966  18.711  0.00  0.00    +0.000 A 
ATOM     27  N   UNL     1      52.690   5.875  17.715  0.00  0.00    +0.000 N 
ATOM     28  C   UNL     1      51.762   6.241  16.767  0.00  0.00    +0.000 A 
ATOM     29  O   UNL     1      52.057   6.951  15.810  0.00  0.00    +0.000 OA
ATOM     30  C   UNL     1      50.453   5.661  16.982  0.00  0.00    +0.000 A 
ATOM     31  H   UNL     1      53.616   6.253  17.597  0.00  0.00    +0.000 HD
ENDBRANCH  20  21
ENDBRANCH  18  20
ENDBRANCH   1  18
TORSDOF 6
ENDMDL
MODEL 7
REMARK VINA RESULT:    -7.004      2.687      3.630
REMARK INTER + INTRA:         -10.703
REMARK INTER:                  -9.665
REMARK INTRA:                  -1.038
REMARK UNBOUND:                -1.243
REMARK  Name = 
REMARK  6 active torsions:
REMARK  status: ('A' for Active; 'I' for Inactive)
REMARK    1  A    between atoms: C_2  and  C_3
REMARK    2  A    between atoms: C_2  and  C_19
REMARK    3  A    between atoms: C_3  and  N_4
REMARK    4  A    between atoms: N_4  and  C_5
REMARK    5  A    between atoms: C_8  and  C_9
REMARK    6  A    between atoms: C_9  and  N_10
REMARK                            x       y       z     vdW  Elec       q    Type
REMARK                         _______ _______ _______ _____ _____    ______ ____
ROOT
ATOM      1  N   UNL     1      46.389   6.723  13.605  0.00  0.00    +0.000 N 
ATOM      2  H   UNL     1      45.659   7.025  14.247  0.00  0.00    +0.000 HD
ENDROOT
BRANCH   1   3
ATOM      3  C   UNL     1      45.831   5.860  12.657  0.00  0.00    +0.000 A 
ATOM      4  C   UNL     1      45.993   6.187  11.304  0.00  0.00    +0.000 A 
ATOM      5  C   UNL     1      45.513   5.351  10.296  0.00  0.00    +0.000 A 
ATOM      6  C   UNL     1      44.869   4.149  10.625  0.00  0.00    +0.000 A 
ATOM      7  C   UNL     1      44.744   3.798  11.971  0.00  0.00    +0.000 A 
ATOM      8  C   UNL     1      45.222   4.645  12.976  0.00  0.00    +0.000 A 
BRANCH   6   9
ATOM      9  C   UNL     1      44.382   3.218   9.542  0.00  0.00    +0.000 C 
BRANCH   9  10
ATOM     10  N   UNL     1      45.281   2.090   9.456  0.00  0.00    +0.000 N 
ATOM     11  C   UNL     1      46.085   1.912   8.349  0.00  0.00    +0.000 A 
ATOM     12  C   UNL     1      46.651   2.959   7.647  0.00  0.00    +0.000 A 
ATOM     13  C   UNL     1      47.489   2.627   6.606  0.00  0.00    +0.000 A 
ATOM     14  N   UNL     1      47.780   1.361   6.261  0.00  0.00    +0.000 NA
ATOM     15  C   UNL     1      47.196   0.422   7.016  0.00  0.00    +0.000 A 
ATOM     16  N   UNL     1      46.352   0.635   8.036  0.00  0.00    +0.000 NA
ATOM     17  H   UNL     1      44.879   1.193   9.714  0.00  0.00    +0.000 HD
ENDBRANCH   9  10
ENDBRANCH   6   9
ENDBRANCH   1   3
BRANCH   1  18
ATOM     18  C   UNL     1      47.158   7.881  13.140  0.00  0.00    +0.000 C 
BRANCH  18  20
ATOM     19  C   UNL     1      49.619   7.483  12.607  0.00  0.00    +0.000 C 
ATOM     20  C   UNL     1      48.618   7.693  13.489  0.00  0.00    +0.000 C 
BRANCH  20  21
ATOM     21  C   UNL     1      48.930   7.773  14.886  0.00  0.00    +0.000 A 
ATOM     22  C   UNL     1      49.127   6.652  15.666  0.00  0.00    +0.000 A 
ATOM     23  S   UNL     1      49.015   7.018  17.337  0.00  0.00    +0.000 S 
ATOM     24  C   UNL     1      48.745   8.674  17.018  0.00  0.00    +0.000 A 
ATOM     25  N   UNL     1      48.420   9.554  18.003  0.00  0.00    +0.000 NA
ATOM     26  C   UNL     1      48.276  10.772  17.595  0.00  0.00    +0.000 A 
ATOM     27  N   UNL     1      48.477  11.202  16.305  0.00  0.00    +0.000 N 
ATOM     28  C   UNL     1      48.842  10.355  15.283  0.00  0.00    +0.000 A 
ATOM     29  O   UNL     1      49.145  10.772  14.170  0.00  0.00    +0.000 OA
ATOM     30  C   UNL     1      48.887   8.961  15.674  0.00  0.00    +0.000 A 
ATOM     31  H   UNL     1      48.440  12.182  16.074  0.00  0.00    +0.000 HD
ENDBRANCH  20  21
ENDBRANCH  18  20
ENDBRANCH   1  18
TORSDOF 6
ENDMDL
MODEL 8
REMARK VINA RESULT:    -6.839      1.878      2.432
REMARK INTER + INTRA:         -10.482
REMARK INTER:                  -9.581
REMARK INTRA:                  -0.901
REMARK UNBOUND:                -1.243
REMARK  Name = 
REMARK  6 active torsions:
REMARK  status: ('A' for Active; 'I' for Inactive)
REMARK    1  A    between atoms: C_2  and  C_3
REMARK    2  A    between atoms: C_2  and  C_19
REMARK    3  A    between atoms: C_3  and  N_4
REMARK    4  A    between atoms: N_4  and  C_5
REMARK    5  A    between atoms: C_8  and  C_9
REMARK    6  A    between atoms: C_9  and  N_10
REMARK                            x       y       z     vdW  Elec       q    Type
REMARK                         _______ _______ _______ _____ _____    ______ ____
ROOT
ATOM      1  N   UNL     1      47.953   5.969  14.019  0.00  0.00    +0.000 N 
ATOM      2  H   UNL     1      47.820   5.420  14.866  0.00  0.00    +0.000 HD
ENDROOT
BRANCH   1   3
ATOM      3  C   UNL     1      46.956   5.632  13.098  0.00  0.00    +0.000 A 
ATOM      4  C   UNL     1      46.195   4.484  13.355  0.00  0.00    +0.000 A 
ATOM      5  C   UNL     1      45.146   4.110  12.515  0.00  0.00    +0.000 A 
ATOM      6  C   UNL     1      44.826   4.894  11.397  0.00  0.00    +0.000 A 
ATOM      7  C   UNL     1      45.554   6.062  11.161  0.00  0.00    +0.000 A 
ATOM      8  C   UNL     1      46.608   6.426  12.005  0.00  0.00    +0.000 A 
BRANCH   6   9
ATOM      9  C   UNL     1      43.668   4.520  10.504  0.00  0.00    +0.000 C 
BRANCH   9  10
ATOM     10  N   UNL     1      44.097   4.594   9.126  0.00  0.00    +0.000 N 
ATOM     11  C   UNL     1      45.008   3.689   8.622  0.00  0.00    +0.000 A 
ATOM     12  C   UNL     1      45.056   2.364   9.010  0.00  0.00    +0.000 A 
ATOM     13  C   UNL     1      45.973   1.562   8.370  0.00  0.00    +0.000 A 
ATOM     14  N   UNL     1      46.796   2.001   7.401  0.00  0.00    +0.000 NA
ATOM     15  C   UNL     1      46.657   3.295   7.086  0.00  0.00    +0.000 A 
ATOM     16  N   UNL     1      45.813   4.165   7.659  0.00  0.00    +0.000 NA
ATOM     17  H   UNL     1      44.344   5.522   8.797  0.00  0.00    +0.000 HD
ENDBRANCH   9  10
ENDBRANCH   6   9
ENDBRANCH   1   3
BRANCH   1  18
ATOM     18  C   UNL     1      48.152   7.380  14.362  0.00  0.00    +0.000 C 
BRANCH  18  20
ATOM     19  C   UNL     1      50.643   7.881  14.558  0.00  0.00    +0.000 C 
ATOM     20  C   UNL     1      49.458   7.541  15.108  0.00  0.00    +0.000 C 
BRANCH  20  21
ATOM     21  C   UNL     1      49.387   7.327  16.523  0.00  0.00    +0.000 A 
ATOM     22  C   UNL     1      49.738   6.128  17.109  0.00  0.00    +0.000 A 
ATOM     23  S   UNL     1      49.122   6.000  18.704  0.00  0.00    +0.000 S 
ATOM     24  C   UNL     1      48.423   7.556  18.623  0.00  0.00    +0.000 A 
ATOM     25  N   UNL     1      47.612   8.033  19.605  0.00  0.00    +0.000 NA
ATOM     26  C   UNL     1      47.188   9.238  19.401  0.00  0.00    +0.000 A 
ATOM     27  N   UNL     1      47.544  10.029  18.334  0.00  0.00    +0.000 N 
ATOM     28  C   UNL     1      48.391   9.602  17.336  0.00  0.00    +0.000 A 
ATOM     29  O   UNL     1      48.801  10.361  16.464  0.00  0.00    +0.000 OA
ATOM     30  C   UNL     1      48.782   8.214  17.463  0.00  0.00    +0.000 A 
ATOM     31  H   UNL     1      47.253  10.993  18.285  0.00  0.00    +0.000 HD
ENDBRANCH  20  21
ENDBRANCH  18  20
ENDBRANCH   1  18
TORSDOF 6
ENDMDL
MODEL 9
REMARK VINA RESULT:    -6.701      3.554      4.961
REMARK INTER + INTRA:         -10.295
REMARK INTER:                  -8.867
REMARK INTRA:                  -1.427
REMARK UNBOUND:                -1.243
REMARK  Name = 
REMARK  6 active torsions:
REMARK  status: ('A' for Active; 'I' for Inactive)
REMARK    1  A    between atoms: C_2  and  C_3
REMARK    2  A    between atoms: C_2  and  C_19
REMARK    3  A    between atoms: C_3  and  N_4
REMARK    4  A    between atoms: N_4  and  C_5
REMARK    5  A    between atoms: C_8  and  C_9
REMARK    6  A    between atoms: C_9  and  N_10
REMARK                            x       y       z     vdW  Elec       q    Type
REMARK                         _______ _______ _______ _____ _____    ______ ____
ROOT
ATOM      1  N   UNL     1      48.121   6.747  13.313  0.00  0.00    +0.000 N 
ATOM      2  H   UNL     1      48.592   6.056  13.894  0.00  0.00    +0.000 HD
ENDROOT
BRANCH   1   3
ATOM      3  C   UNL     1      47.032   6.141  12.680  0.00  0.00    +0.000 A 
ATOM      4  C   UNL     1      46.596   6.690  11.468  0.00  0.00    +0.000 A 
ATOM      5  C   UNL     1      45.551   6.113  10.746  0.00  0.00    +0.000 A 
ATOM      6  C   UNL     1      44.925   4.951  11.222  0.00  0.00    +0.000 A 
ATOM      7  C   UNL     1      45.385   4.375  12.408  0.00  0.00    +0.000 A 
ATOM      8  C   UNL     1      46.429   4.965  13.128  0.00  0.00    +0.000 A 
BRANCH   6   9
ATOM      9  C   UNL     1      43.821   4.295  10.430  0.00  0.00    +0.000 C 
BRANCH   9  10
ATOM     10  N   UNL     1      44.145   4.372   9.024  0.00  0.00    +0.000 N 
ATOM     11  C   UNL     1      45.089   3.531   8.471  0.00  0.00    +0.000 A 
ATOM     12  C   UNL     1      45.270   2.222   8.877  0.00  0.00    +0.000 A 
ATOM     13  C   UNL     1      46.202   1.480   8.186  0.00  0.00    +0.000 A 
ATOM     14  N   UNL     1      46.916   1.961   7.154  0.00  0.00    +0.000 NA
ATOM     15  C   UNL     1      46.652   3.233   6.828  0.00  0.00    +0.000 A 
ATOM     16  N   UNL     1      45.783   4.047   7.445  0.00  0.00    +0.000 NA
ATOM     17  H   UNL     1      44.293   5.309   8.662  0.00  0.00    +0.000 HD
ENDBRANCH   9  10
ENDBRANCH   6   9
ENDBRANCH   1   3
BRANCH   1  18
ATOM     18  C   UNL     1      47.900   7.977  14.079  0.00  0.00    +0.000 C 
BRANCH  18  20
ATOM     19  C   UNL     1      47.869  10.009  12.541  0.00  0.00    +0.000 C 
ATOM     20  C   UNL     1      48.522   9.147  13.349  0.00  0.00    +0.000 C 
BRANCH  20  21
ATOM     21  C   UNL     1      49.924   9.337  13.578  0.00  0.00    +0.000 A 
ATOM     22  C   UNL     1      50.409  10.007  14.682  0.00  0.00    +0.000 A 
ATOM     23  S   UNL     1      52.041  10.486  14.464  0.00  0.00    +0.000 S 
ATOM     24  C   UNL     1      52.108   9.767  12.917  0.00  0.00    +0.000 A 
ATOM     25  N   UNL     1      53.180   9.924  12.095  0.00  0.00    +0.000 NA
ATOM     26  C   UNL     1      53.081   9.292  10.971  0.00  0.00    +0.000 A 
ATOM     27  N   UNL     1      52.034   8.475  10.615  0.00  0.00    +0.000 N 
ATOM     28  C   UNL     1      50.946   8.257  11.429  0.00  0.00    +0.000 A 
ATOM     29  O   UNL     1      50.086   7.426  11.155  0.00  0.00    +0.000 OA
ATOM     30  C   UNL     1      50.960   9.049  12.640  0.00  0.00    +0.000 A 
ATOM     31  H   UNL     1      52.064   7.937   9.763  0.00  0.00    +0.000 HD
ENDBRANCH  20  21
ENDBRANCH  18  20
ENDBRANCH   1  18
TORSDOF 6
ENDMDL
