MODEL 1
REMARK VINA RESULT:    -7.466      0.000      0.000
REMARK INTER + INTRA:         -11.218
REMARK INTER:                 -10.521
REMARK INTRA:                  -0.697
REMARK UNBOUND:                -0.697
REMARK  Name = 
REMARK  8 active torsions:
REMARK  status: ('A' for Active; 'I' for Inactive)
REMARK    1  A    between atoms: C_1  and  N_2
REMARK    2  A    between atoms: C_6  and  C_7
REMARK    3  A    between atoms: N_9  and  C_10
REMARK    4  A    between atoms: C_10  and  C_11
REMARK    5  A    between atoms: C_14  and  C_15
REMARK    6  A    between atoms: C_15  and  S_16
REMARK    7  A    between atoms: S_16  and  C_17
REMARK    8  A    between atoms: C_17  and  C_18
REMARK                            x       y       z     vdW  Elec       q    Type
REMARK                         _______ _______ _______ _____ _____    ______ ____
ROOT
ATOM      1  C   UNL     1      47.231   6.109  13.119  0.00  0.00    +0.000 A 
ATOM      2  C   UNL     1      46.590   4.972  13.629  0.00  0.00    +0.000 A 
ATOM      3  C   UNL     1      45.573   4.333  12.906  0.00  0.00    +0.000 A 
ATOM      4  C   UNL     1      45.163   4.816  11.655  0.00  0.00    +0.000 A 
ATOM      5  C   UNL     1      45.846   5.919  11.120  0.00  0.00    +0.000 A 
ATOM      6  C   UNL     1      46.865   6.558  11.843  0.00  0.00    +0.000 A 
ENDROOT
BRANCH   1   7
ATOM      7  C   UNL     1      48.291   6.824  13.929  0.00  0.00    +0.000 C 
BRANCH   7  10
ATOM      8  C   UNL     1      49.235   6.446  16.179  0.00  0.00    +0.000 C 
ATOM      9  O   UNL     1      50.391   6.497  15.776  0.00  0.00    +0.000 OA
ATOM     10  N   UNL     1      48.146   6.597  15.351  0.00  0.00    +0.000 N 
ATOM     11  H   UNL     1      47.239   6.770  15.769  0.00  0.00    +0.000 HD
BRANCH   8  17
ATOM     12  C   UNL     1      47.321   7.520  21.962  0.00  0.00    +0.000 C 
ATOM     13  N   UNL     1      47.660   7.639  20.565  0.00  0.00    +0.000 N 
ATOM     14  C   UNL     1      47.491   8.768  19.781  0.00  0.00    +0.000 A 
ATOM     15  C   UNL     1      47.922   8.480  18.489  0.00  0.00    +0.000 A 
ATOM     16  C   UNL     1      48.367   7.162  18.537  0.00  0.00    +0.000 A 
ATOM     17  C   UNL     1      48.912   6.262  17.595  0.00  0.00    +0.000 A 
ATOM     18  C   UNL     1      49.097   5.044  18.264  0.00  0.00    +0.000 A 
ATOM     19  S   UNL     1      48.645   5.085  19.948  0.00  0.00    +0.000 S 
ATOM     20  C   UNL     1      48.189   6.673  19.776  0.00  0.00    +0.000 A 
ENDBRANCH   8  17
ENDBRANCH   7  10
ENDBRANCH   1   7
BRANCH   4  21
ATOM     21  C   UNL     1      44.054   4.145  10.878  0.00  0.00    +0.000 C 
BRANCH  21  22
ATOM     22  S   UNL     1      44.382   3.917   9.095  0.00  0.00    +0.000 S 
BRANCH  22  23
ATOM     23  C   UNL     1      45.379   2.388   9.103  0.00  0.00    +0.000 C 
BRANCH  23  24
ATOM     24  C   UNL     1      46.182   2.257   7.831  0.00  0.00    +0.000 A 
ATOM     25  C   UNL     1      46.172   3.250   6.843  0.00  0.00    +0.000 A 
ATOM     26  C   UNL     1      46.917   3.082   5.677  0.00  0.00    +0.000 A 
ATOM     27  C   UNL     1      47.652   1.918   5.528  0.00  0.00    +0.000 A 
ATOM     28  N   UNL     1      47.688   0.934   6.452  0.00  0.00    +0.000 NA
ATOM     29  C   UNL     1      46.949   1.123   7.572  0.00  0.00    +0.000 A 
ENDBRANCH  23  24
ENDBRANCH  22  23
ENDBRANCH  21  22
ENDBRANCH   4  21
TORSDOF 7
ENDMDL
MODEL 2
REMARK VINA RESULT:    -7.373      0.956      1.789
REMARK INTER + INTRA:         -11.087
REMARK INTER:                 -10.389
REMARK INTRA:                  -0.698
REMARK UNBOUND:                -0.697
REMARK  Name = 
REMARK  8 active torsions:
REMARK  status: ('A' for Active; 'I' for Inactive)
REMARK    1  A    between atoms: C_1  and  N_2
REMARK    2  A    between atoms: C_6  and  C_7
REMARK    3  A    between atoms: N_9  and  C_10
REMARK    4  A    between atoms: C_10  and  C_11
REMARK    5  A    between atoms: C_14  and  C_15
REMARK    6  A    between atoms: C_15  and  S_16
REMARK    7  A    between atoms: S_16  and  C_17
REMARK    8  A    between atoms: C_17  and  C_18
REMARK                            x       y       z     vdW  Elec       q    Type
REMARK                         _______ _______ _______ _____ _____    ______ ____
ROOT
ATOM      1  C   UNL     1      47.233   6.134  13.068  0.00  0.00    +0.000 A 
ATOM      2  C   UNL     1      46.776   6.660  11.851  0.00  0.00    +0.000 A 
ATOM      3  C   UNL     1      45.731   6.044  11.148  0.00  0.00    +0.000 A 
ATOM      4  C   UNL     1      45.119   4.882  11.636  0.00  0.00    +0.000 A 
ATOM      5  C   UNL     1      45.537   4.390  12.882  0.00  0.00    +0.000 A 
ATOM      6  C   UNL     1      46.583   5.007  13.587  0.00  0.00    +0.000 A 
ENDROOT
BRANCH   1   7
ATOM      7  C   UNL     1      48.396   6.775  13.795  0.00  0.00    +0.000 C 
BRANCH   7  10
ATOM      8  C   UNL     1      49.075   6.591  16.162  0.00  0.00    +0.000 C 
ATOM      9  O   UNL     1      50.176   6.131  15.880  0.00  0.00    +0.000 OA
ATOM     10  N   UNL     1      48.142   6.936  15.211  0.00  0.00    +0.000 N 
ATOM     11  H   UNL     1      47.355   7.511  15.489  0.00  0.00    +0.000 HD
BRANCH   8  17
ATOM     12  C   UNL     1      47.818   5.819  22.169  0.00  0.00    +0.000 C 
ATOM     13  N   UNL     1      48.202   5.622  20.792  0.00  0.00    +0.000 N 
ATOM     14  C   UNL     1      48.653   4.438  20.234  0.00  0.00    +0.000 A 
ATOM     15  C   UNL     1      48.935   4.658  18.889  0.00  0.00    +0.000 A 
ATOM     16  C   UNL     1      48.618   5.995  18.664  0.00  0.00    +0.000 A 
ATOM     17  C   UNL     1      48.672   6.853  17.544  0.00  0.00    +0.000 A 
ATOM     18  C   UNL     1      48.270   8.120  17.990  0.00  0.00    +0.000 A 
ATOM     19  S   UNL     1      47.831   8.171  19.677  0.00  0.00    +0.000 S 
ATOM     20  C   UNL     1      48.199   6.556  19.810  0.00  0.00    +0.000 A 
ENDBRANCH   8  17
ENDBRANCH   7  10
ENDBRANCH   1   7
BRANCH   4  21
ATOM     21  C   UNL     1      44.005   4.201  10.874  0.00  0.00    +0.000 C 
BRANCH  21  22
ATOM     22  S   UNL     1      44.332   3.928   9.098  0.00  0.00    +0.000 S 
BRANCH  22  23
ATOM     23  C   UNL     1      45.360   2.419   9.148  0.00  0.00    +0.000 C 
BRANCH  23  24
ATOM     24  C   UNL     1      46.164   2.269   7.878  0.00  0.00    +0.000 A 
ATOM     25  C   UNL     1      46.187   3.264   6.894  0.00  0.00    +0.000 A 
ATOM     26  C   UNL     1      46.931   3.077   5.730  0.00  0.00    +0.000 A 
ATOM     27  C   UNL     1      47.632   1.892   5.580  0.00  0.00    +0.000 A 
ATOM     28  N   UNL     1      47.634   0.905   6.501  0.00  0.00    +0.000 NA
ATOM     29  C   UNL     1      46.897   1.112   7.619  0.00  0.00    +0.000 A 
ENDBRANCH  23  24
ENDBRANCH  22  23
ENDBRANCH  21  22
ENDBRANCH   4  21
TORSDOF 7
ENDMDL
MODEL 3
REMARK VINA RESULT:    -7.080      5.140      6.390
REMARK INTER + INTRA:         -10.674
REMARK INTER:                 -10.087
REMARK INTRA:                  -0.587
REMARK UNBOUND:                -0.697
REMARK  Name = 
REMARK  8 active torsions:
REMARK  status: ('A' for Active; 'I' for Inactive)
REMARK    1  A    between atoms: C_1  and  N_2
REMARK    2  A    between atoms: C_6  and  C_7
REMARK    3  A    between atoms: N_9  and  C_10
REMARK    4  A    between atoms: C_10  and  C_11
REMARK    5  A    between atoms: C_14  and  C_15
REMARK    6  A    between atoms: C_15  and  S_16
REMARK    7  A    between atoms: S_16  and  C_17
REMARK    8  A    between atoms: C_17  and  C_18
REMARK                            x       y       z     vdW  Elec       q    Type
REMARK                         _______ _______ _______ _____ _____    ______ ____
ROOT
ATOM      1  C   UNL     1      44.520   4.007   9.675  0.00  0.00    +0.000 A 
ATOM      2  C   UNL     1      45.356   4.440   8.636  0.00  0.00    +0.000 A 
ATOM      3  C   UNL     1      46.063   3.520   7.849  0.00  0.00    +0.000 A 
ATOM      4  C   UNL     1      45.961   2.142   8.083  0.00  0.00    +0.000 A 
ATOM      5  C   UNL     1      45.080   1.707   9.085  0.00  0.00    +0.000 A 
ATOM      6  C   UNL     1      44.371   2.628   9.872  0.00  0.00    +0.000 A 
ENDROOT
BRANCH   1   7
ATOM      7  C   UNL     1      43.801   5.009  10.553  0.00  0.00    +0.000 C 
BRANCH   7  10
ATOM      8  C   UNL     1      44.866   6.720  11.979  0.00  0.00    +0.000 C 
ATOM      9  O   UNL     1      44.532   6.160  13.017  0.00  0.00    +0.000 OA
ATOM     10  N   UNL     1      44.557   6.231  10.731  0.00  0.00    +0.000 N 
ATOM     11  H   UNL     1      45.046   6.607   9.926  0.00  0.00    +0.000 HD
BRANCH   8  17
ATOM     12  C   UNL     1      49.690  10.592  11.953  0.00  0.00    +0.000 C 
ATOM     13  N   UNL     1      48.846   9.421  11.954  0.00  0.00    +0.000 N 
ATOM     14  C   UNL     1      49.280   8.106  11.927  0.00  0.00    +0.000 A 
ATOM     15  C   UNL     1      48.166   7.272  11.922  0.00  0.00    +0.000 A 
ATOM     16  C   UNL     1      47.068   8.126  11.968  0.00  0.00    +0.000 A 
ATOM     17  C   UNL     1      45.668   7.945  11.979  0.00  0.00    +0.000 A 
ATOM     18  C   UNL     1      45.098   9.225  11.967  0.00  0.00    +0.000 A 
ATOM     19  S   UNL     1      46.265  10.522  11.980  0.00  0.00    +0.000 S 
ATOM     20  C   UNL     1      47.492   9.402  11.971  0.00  0.00    +0.000 A 
ENDBRANCH   8  17
ENDBRANCH   7  10
ENDBRANCH   1   7
BRANCH   4  21
ATOM     21  C   UNL     1      46.736   1.144   7.253  0.00  0.00    +0.000 C 
BRANCH  21  22
ATOM     22  S   UNL     1      47.906   1.873   6.054  0.00  0.00    +0.000 S 
BRANCH  22  23
ATOM     23  C   UNL     1      46.811   2.194   4.629  0.00  0.00    +0.000 C 
BRANCH  23  24
ATOM     24  C   UNL     1      46.514   0.920   3.875  0.00  0.00    +0.000 A 
ATOM     25  C   UNL     1      47.121  -0.296   4.209  0.00  0.00    +0.000 A 
ATOM     26  C   UNL     1      46.830  -1.446   3.476  0.00  0.00    +0.000 A 
ATOM     27  C   UNL     1      45.938  -1.346   2.422  0.00  0.00    +0.000 A 
ATOM     28  N   UNL     1      45.333  -0.194   2.063  0.00  0.00    +0.000 NA
ATOM     29  C   UNL     1      45.640   0.908   2.789  0.00  0.00    +0.000 A 
ENDBRANCH  23  24
ENDBRANCH  22  23
ENDBRANCH  21  22
ENDBRANCH   4  21
TORSDOF 7
ENDMDL
MODEL 4
REMARK VINA RESULT:    -6.984      2.568      3.047
REMARK INTER + INTRA:         -10.539
REMARK INTER:                  -9.717
REMARK INTRA:                  -0.823
REMARK UNBOUND:                -0.697
REMARK  Name = 
REMARK  8 active torsions:
REMARK  status: ('A' for Active; 'I' for Inactive)
REMARK    1  A    between atoms: C_1  and  N_2
REMARK    2  A    between atoms: C_6  and  C_7
REMARK    3  A    between atoms: N_9  and  C_10
REMARK    4  A    between atoms: C_10  and  C_11
REMARK    5  A    between atoms: C_14  and  C_15
REMARK    6  A    between atoms: C_15  and  S_16
REMARK    7  A    between atoms: S_16  and  C_17
REMARK    8  A    between atoms: C_17  and  C_18
REMARK                            x       y       z     vdW  Elec       q    Type
REMARK                         _______ _______ _______ _____ _____    ______ ____
ROOT
ATOM      1  C   UNL     1      47.353   6.721  12.967  0.00  0.00    +0.000 A 
ATOM      2  C   UNL     1      47.021   5.605  13.748  0.00  0.00    +0.000 A 
ATOM      3  C   UNL     1      46.070   4.674  13.308  0.00  0.00    +0.000 A 
ATOM      4  C   UNL     1      45.418   4.836  12.078  0.00  0.00    +0.000 A 
ATOM      5  C   UNL     1      45.792   5.921  11.271  0.00  0.00    +0.000 A 
ATOM      6  C   UNL     1      46.745   6.853  11.711  0.00  0.00    +0.000 A 
ENDROOT
BRANCH   1   7
ATOM      7  C   UNL     1      48.342   7.749  13.473  0.00  0.00    +0.000 C 
BRANCH   7  10
ATOM      8  C   UNL     1      49.642   7.435  15.549  0.00  0.00    +0.000 C 
ATOM      9  O   UNL     1      48.932   8.205  16.189  0.00  0.00    +0.000 OA
ATOM     10  N   UNL     1      49.428   7.150  14.220  0.00  0.00    +0.000 N 
ATOM     11  H   UNL     1      49.897   6.349  13.814  0.00  0.00    +0.000 HD
BRANCH   8  17
ATOM     12  C   UNL     1      52.906   3.259  18.737  0.00  0.00    +0.000 C 
ATOM     13  N   UNL     1      51.847   4.012  18.108  0.00  0.00    +0.000 N 
ATOM     14  C   UNL     1      50.498   3.704  18.147  0.00  0.00    +0.000 A 
ATOM     15  C   UNL     1      49.804   4.659  17.410  0.00  0.00    +0.000 A 
ATOM     16  C   UNL     1      50.775   5.547  16.955  0.00  0.00    +0.000 A 
ATOM     17  C   UNL     1      50.759   6.716  16.163  0.00  0.00    +0.000 A 
ATOM     18  C   UNL     1      52.094   7.116  16.011  0.00  0.00    +0.000 A 
ATOM     19  S   UNL     1      53.238   6.099  16.847  0.00  0.00    +0.000 S 
ATOM     20  C   UNL     1      51.986   5.138  17.368  0.00  0.00    +0.000 A 
ENDBRANCH   8  17
ENDBRANCH   7  10
ENDBRANCH   1   7
BRANCH   4  21
ATOM     21  C   UNL     1      44.377   3.847  11.604  0.00  0.00    +0.000 C 
BRANCH  21  22
ATOM     22  S   UNL     1      44.110   3.804   9.797  0.00  0.00    +0.000 S 
BRANCH  22  23
ATOM     23  C   UNL     1      44.769   2.155   9.374  0.00  0.00    +0.000 C 
BRANCH  23  24
ATOM     24  C   UNL     1      45.774   2.245   8.251  0.00  0.00    +0.000 A 
ATOM     25  C   UNL     1      45.963   3.422   7.518  0.00  0.00    +0.000 A 
ATOM     26  C   UNL     1      46.892   3.457   6.479  0.00  0.00    +0.000 A 
ATOM     27  C   UNL     1      47.607   2.305   6.198  0.00  0.00    +0.000 A 
ATOM     28  N   UNL     1      47.455   1.148   6.875  0.00  0.00    +0.000 NA
ATOM     29  C   UNL     1      46.541   1.143   7.875  0.00  0.00    +0.000 A 
ENDBRANCH  23  24
ENDBRANCH  22  23
ENDBRANCH  21  22
ENDBRANCH   4  21
TORSDOF 7
ENDMDL
MODEL 5
REMARK VINA RESULT:    -6.772      2.636      3.722
REMARK INTER + INTRA:         -10.240
REMARK INTER:                  -9.565
REMARK INTRA:                  -0.675
REMARK UNBOUND:                -0.697
REMARK  Name = 
REMARK  8 active torsions:
REMARK  status: ('A' for Active; 'I' for Inactive)
REMARK    1  A    between atoms: C_1  and  N_2
REMARK    2  A    between atoms: C_6  and  C_7
REMARK    3  A    between atoms: N_9  and  C_10
REMARK    4  A    between atoms: C_10  and  C_11
REMARK    5  A    between atoms: C_14  and  C_15
REMARK    6  A    between atoms: C_15  and  S_16
REMARK    7  A    between atoms: S_16  and  C_17
REMARK    8  A    between atoms: C_17  and  C_18
REMARK                            x       y       z     vdW  Elec       q    Type
REMARK                         _______ _______ _______ _____ _____    ______ ____
ROOT
ATOM      1  C   UNL     1      44.658   4.410  11.590  0.00  0.00    +0.000 A 
ATOM      2  C   UNL     1      44.280   3.159  11.082  0.00  0.00    +0.000 A 
ATOM      3  C   UNL     1      44.502   2.830   9.738  0.00  0.00    +0.000 A 
ATOM      4  C   UNL     1      45.102   3.744   8.860  0.00  0.00    +0.000 A 
ATOM      5  C   UNL     1      45.533   4.973   9.382  0.00  0.00    +0.000 A 
ATOM      6  C   UNL     1      45.312   5.302  10.729  0.00  0.00    +0.000 A 
ENDROOT
BRANCH   1   7
ATOM      7  C   UNL     1      44.367   4.777  13.029  0.00  0.00    +0.000 C 
BRANCH   7  10
ATOM      8  C   UNL     1      46.543   4.669  14.192  0.00  0.00    +0.000 C 
ATOM      9  O   UNL     1      46.590   3.445  14.131  0.00  0.00    +0.000 OA
ATOM     10  N   UNL     1      45.499   5.404  13.679  0.00  0.00    +0.000 N 
ATOM     11  H   UNL     1      45.622   6.403  13.558  0.00  0.00    +0.000 HD
BRANCH   8  17
ATOM     12  C   UNL     1      50.842   6.743  18.126  0.00  0.00    +0.000 C 
ATOM     13  N   UNL     1      49.779   6.001  17.492  0.00  0.00    +0.000 N 
ATOM     14  C   UNL     1      49.125   4.902  18.023  0.00  0.00    +0.000 A 
ATOM     15  C   UNL     1      48.178   4.461  17.104  0.00  0.00    +0.000 A 
ATOM     16  C   UNL     1      48.275   5.340  16.028  0.00  0.00    +0.000 A 
ATOM     17  C   UNL     1      47.623   5.461  14.782  0.00  0.00    +0.000 A 
ATOM     18  C   UNL     1      48.229   6.534  14.114  0.00  0.00    +0.000 A 
ATOM     19  S   UNL     1      49.486   7.322  15.033  0.00  0.00    +0.000 S 
ATOM     20  C   UNL     1      49.243   6.240  16.270  0.00  0.00    +0.000 A 
ENDBRANCH   8  17
ENDBRANCH   7  10
ENDBRANCH   1   7
BRANCH   4  21
ATOM     21  C   UNL     1      45.327   3.404   7.404  0.00  0.00    +0.000 C 
BRANCH  21  22
ATOM     22  S   UNL     1      47.064   3.496   6.844  0.00  0.00    +0.000 S 
BRANCH  22  23
ATOM     23  C   UNL     1      47.533   1.732   6.828  0.00  0.00    +0.000 C 
BRANCH  23  24
ATOM     24  C   UNL     1      47.145   1.080   5.522  0.00  0.00    +0.000 A 
ATOM     25  C   UNL     1      46.693   1.826   4.427  0.00  0.00    +0.000 A 
ATOM     26  C   UNL     1      46.332   1.182   3.245  0.00  0.00    +0.000 A 
ATOM     27  C   UNL     1      46.428  -0.198   3.191  0.00  0.00    +0.000 A 
ATOM     28  N   UNL     1      46.854  -0.957   4.224  0.00  0.00    +0.000 NA
ATOM     29  C   UNL     1      47.193  -0.304   5.361  0.00  0.00    +0.000 A 
ENDBRANCH  23  24
ENDBRANCH  22  23
ENDBRANCH  21  22
ENDBRANCH   4  21
TORSDOF 7
ENDMDL
MODEL 6
REMARK VINA RESULT:    -6.720      3.123      9.089
REMARK INTER + INTRA:         -10.167
REMARK INTER:                  -8.826
REMARK INTRA:                  -1.341
REMARK UNBOUND:                -0.697
REMARK  Name = 
REMARK  8 active torsions:
REMARK  status: ('A' for Active; 'I' for Inactive)
REMARK    1  A    between atoms: C_1  and  N_2
REMARK    2  A    between atoms: C_6  and  C_7
REMARK    3  A    between atoms: N_9  and  C_10
REMARK    4  A    between atoms: C_10  and  C_11
REMARK    5  A    between atoms: C_14  and  C_15
REMARK    6  A    between atoms: C_15  and  S_16
REMARK    7  A    between atoms: S_16  and  C_17
REMARK    8  A    between atoms: C_17  and  C_18
REMARK                            x       y       z     vdW  Elec       q    Type
REMARK                         _______ _______ _______ _____ _____    ______ ____
ROOT
ATOM      1  C   UNL     1      48.422   8.075  14.975  0.00  0.00    +0.000 A 
ATOM      2  C   UNL     1      48.366   8.700  16.229  0.00  0.00    +0.000 A 
ATOM      3  C   UNL     1      49.313   8.411  17.222  0.00  0.00    +0.000 A 
ATOM      4  C   UNL     1      50.339   7.483  16.992  0.00  0.00    +0.000 A 
ATOM      5  C   UNL     1      50.429   6.902  15.718  0.00  0.00    +0.000 A 
ATOM      6  C   UNL     1      49.481   7.193  14.724  0.00  0.00    +0.000 A 
ENDROOT
BRANCH   1   7
ATOM      7  C   UNL     1      47.366   8.354  13.928  0.00  0.00    +0.000 C 
BRANCH   7  10
ATOM      8  C   UNL     1      45.821   7.158  12.417  0.00  0.00    +0.000 C 
ATOM      9  O   UNL     1      45.506   8.182  11.821  0.00  0.00    +0.000 OA
ATOM     10  N   UNL     1      46.723   7.145  13.457  0.00  0.00    +0.000 N 
ATOM     11  H   UNL     1      47.108   6.256  13.754  0.00  0.00    +0.000 HD
BRANCH   8  17
ATOM     12  C   UNL     1      44.342   2.138   9.121  0.00  0.00    +0.000 C 
ATOM     13  N   UNL     1      44.840   3.422   9.551  0.00  0.00    +0.000 N 
ATOM     14  C   UNL     1      45.523   4.335   8.765  0.00  0.00    +0.000 A 
ATOM     15  C   UNL     1      45.846   5.440   9.546  0.00  0.00    +0.000 A 
ATOM     16  C   UNL     1      45.318   5.165  10.805  0.00  0.00    +0.000 A 
ATOM     17  C   UNL     1      45.294   5.846  12.042  0.00  0.00    +0.000 A 
ATOM     18  C   UNL     1      44.652   4.997  12.954  0.00  0.00    +0.000 A 
ATOM     19  S   UNL     1      44.105   3.493  12.259  0.00  0.00    +0.000 S 
ATOM     20  C   UNL     1      44.737   3.954  10.793  0.00  0.00    +0.000 A 
ENDBRANCH   8  17
ENDBRANCH   7  10
ENDBRANCH   1   7
BRANCH   4  21
ATOM     21  C   UNL     1      51.352   7.151  18.064  0.00  0.00    +0.000 C 
BRANCH  21  22
ATOM     22  S   UNL     1      50.783   5.964  19.331  0.00  0.00    +0.000 S 
BRANCH  22  23
ATOM     23  C   UNL     1      51.364   4.381  18.631  0.00  0.00    +0.000 C 
BRANCH  23  24
ATOM     24  C   UNL     1      50.279   3.718  17.817  0.00  0.00    +0.000 A 
ATOM     25  C   UNL     1      48.975   4.223  17.770  0.00  0.00    +0.000 A 
ATOM     26  C   UNL     1      48.000   3.570  17.017  0.00  0.00    +0.000 A 
ATOM     27  C   UNL     1      48.357   2.422  16.331  0.00  0.00    +0.000 A 
ATOM     28  N   UNL     1      49.601   1.898  16.351  0.00  0.00    +0.000 NA
ATOM     29  C   UNL     1      50.526   2.550  17.096  0.00  0.00    +0.000 A 
ENDBRANCH  23  24
ENDBRANCH  22  23
ENDBRANCH  21  22
ENDBRANCH   4  21
TORSDOF 7
ENDMDL
MODEL 7
REMARK VINA RESULT:    -6.540      4.599      5.834
REMARK INTER + INTRA:          -9.913
REMARK INTER:                  -9.166
REMARK INTRA:                  -0.747
REMARK UNBOUND:                -0.697
REMARK  Name = 
REMARK  8 active torsions:
REMARK  status: ('A' for Active; 'I' for Inactive)
REMARK    1  A    between atoms: C_1  and  N_2
REMARK    2  A    between atoms: C_6  and  C_7
REMARK    3  A    between atoms: N_9  and  C_10
REMARK    4  A    between atoms: C_10  and  C_11
REMARK    5  A    between atoms: C_14  and  C_15
REMARK    6  A    between atoms: C_15  and  S_16
REMARK    7  A    between atoms: S_16  and  C_17
REMARK    8  A    between atoms: C_17  and  C_18
REMARK                            x       y       z     vdW  Elec       q    Type
REMARK                         _______ _______ _______ _____ _____    ______ ____
ROOT
ATOM      1  C   UNL     1      45.342   7.329  12.353  0.00  0.00    +0.000 A 
ATOM      2  C   UNL     1      44.225   6.896  11.624  0.00  0.00    +0.000 A 
ATOM      3  C   UNL     1      44.069   5.547  11.280  0.00  0.00    +0.000 A 
ATOM      4  C   UNL     1      45.027   4.592  11.647  0.00  0.00    +0.000 A 
ATOM      5  C   UNL     1      46.114   5.015  12.426  0.00  0.00    +0.000 A 
ATOM      6  C   UNL     1      46.271   6.367  12.773  0.00  0.00    +0.000 A 
ENDROOT
BRANCH   1   7
ATOM      7  C   UNL     1      45.530   8.795  12.676  0.00  0.00    +0.000 C 
BRANCH   7  10
ATOM      8  C   UNL     1      47.888   9.447  13.011  0.00  0.00    +0.000 C 
ATOM      9  O   UNL     1      47.874   9.139  14.198  0.00  0.00    +0.000 OA
ATOM     10  N   UNL     1      46.792   9.311  12.190  0.00  0.00    +0.000 N 
ATOM     11  H   UNL     1      46.927   9.366  11.187  0.00  0.00    +0.000 HD
BRANCH   8  17
ATOM     12  C   UNL     1      53.256   9.661   9.945  0.00  0.00    +0.000 C 
ATOM     13  N   UNL     1      52.050   9.229  10.609  0.00  0.00    +0.000 N 
ATOM     14  C   UNL     1      51.626   7.918  10.755  0.00  0.00    +0.000 A 
ATOM     15  C   UNL     1      50.413   7.917  11.437  0.00  0.00    +0.000 A 
ATOM     16  C   UNL     1      50.144   9.255  11.708  0.00  0.00    +0.000 A 
ATOM     17  C   UNL     1      49.095   9.947  12.351  0.00  0.00    +0.000 A 
ATOM     18  C   UNL     1      49.387  11.313  12.238  0.00  0.00    +0.000 A 
ATOM     19  S   UNL     1      50.888  11.652  11.417  0.00  0.00    +0.000 S 
ATOM     20  C   UNL     1      51.121  10.022  11.195  0.00  0.00    +0.000 A 
ENDBRANCH   8  17
ENDBRANCH   7  10
ENDBRANCH   1   7
BRANCH   4  21
ATOM     21  C   UNL     1      44.875   3.138  11.262  0.00  0.00    +0.000 C 
BRANCH  21  22
ATOM     22  S   UNL     1      44.339   2.841   9.540  0.00  0.00    +0.000 S 
BRANCH  22  23
ATOM     23  C   UNL     1      45.614   3.752   8.603  0.00  0.00    +0.000 C 
BRANCH  23  24
ATOM     24  C   UNL     1      46.283   2.856   7.587  0.00  0.00    +0.000 A 
ATOM     25  C   UNL     1      46.616   3.310   6.306  0.00  0.00    +0.000 A 
ATOM     26  C   UNL     1      47.219   2.445   5.395  0.00  0.00    +0.000 A 
ATOM     27  C   UNL     1      47.471   1.142   5.791  0.00  0.00    +0.000 A 
ATOM     28  N   UNL     1      47.163   0.662   7.014  0.00  0.00    +0.000 NA
ATOM     29  C   UNL     1      46.572   1.524   7.876  0.00  0.00    +0.000 A 
ENDBRANCH  23  24
ENDBRANCH  22  23
ENDBRANCH  21  22
ENDBRANCH   4  21
TORSDOF 7
ENDMDL
MODEL 8
REMARK VINA RESULT:    -6.488      4.106      9.888
REMARK INTER + INTRA:          -9.841
REMARK INTER:                  -8.061
REMARK INTRA:                  -1.780
REMARK UNBOUND:                -0.697
REMARK  Name = 
REMARK  8 active torsions:
REMARK  status: ('A' for Active; 'I' for Inactive)
REMARK    1  A    between atoms: C_1  and  N_2
REMARK    2  A    between atoms: C_6  and  C_7
REMARK    3  A    between atoms: N_9  and  C_10
REMARK    4  A    between atoms: C_10  and  C_11
REMARK    5  A    between atoms: C_14  and  C_15
REMARK    6  A    between atoms: C_15  and  S_16
REMARK    7  A    between atoms: S_16  and  C_17
REMARK    8  A    between atoms: C_17  and  C_18
REMARK                            x       y       z     vdW  Elec       q    Type
REMARK                         _______ _______ _______ _____ _____    ______ ____
ROOT
ATOM      1  C   UNL     1      48.747   4.027  17.029  0.00  0.00    +0.000 A 
ATOM      2  C   UNL     1      49.063   5.382  16.857  0.00  0.00    +0.000 A 
ATOM      3  C   UNL     1      50.344   5.866  17.153  0.00  0.00    +0.000 A 
ATOM      4  C   UNL     1      51.345   5.012  17.638  0.00  0.00    +0.000 A 
ATOM      5  C   UNL     1      51.045   3.647  17.755  0.00  0.00    +0.000 A 
ATOM      6  C   UNL     1      49.763   3.161  17.456  0.00  0.00    +0.000 A 
ENDROOT
BRANCH   1   7
ATOM      7  C   UNL     1      47.347   3.522  16.756  0.00  0.00    +0.000 C 
BRANCH   7  10
ATOM      8  C   UNL     1      46.708   4.081  14.437  0.00  0.00    +0.000 C 
ATOM      9  O   UNL     1      47.354   3.152  13.964  0.00  0.00    +0.000 OA
ATOM     10  N   UNL     1      46.644   4.337  15.788  0.00  0.00    +0.000 N 
ATOM     11  H   UNL     1      45.927   4.966  16.130  0.00  0.00    +0.000 HD
BRANCH   8  17
ATOM     12  C   UNL     1      44.767   9.088  11.367  0.00  0.00    +0.000 C 
ATOM     13  N   UNL     1      45.511   8.157  12.181  0.00  0.00    +0.000 N 
ATOM     14  C   UNL     1      46.707   8.419  12.829  0.00  0.00    +0.000 A 
ATOM     15  C   UNL     1      47.113   7.266  13.495  0.00  0.00    +0.000 A 
ATOM     16  C   UNL     1      46.116   6.327  13.241  0.00  0.00    +0.000 A 
ATOM     17  C   UNL     1      45.908   4.978  13.601  0.00  0.00    +0.000 A 
ATOM     18  C   UNL     1      44.727   4.571  12.966  0.00  0.00    +0.000 A 
ATOM     19  S   UNL     1      43.954   5.827  12.035  0.00  0.00    +0.000 S 
ATOM     20  C   UNL     1      45.180   6.870  12.446  0.00  0.00    +0.000 A 
ENDBRANCH   8  17
ENDBRANCH   7  10
ENDBRANCH   1   7
BRANCH   4  21
ATOM     21  C   UNL     1      52.723   5.531  17.979  0.00  0.00    +0.000 C 
BRANCH  21  22
ATOM     22  S   UNL     1      52.782   6.745  19.344  0.00  0.00    +0.000 S 
BRANCH  22  23
ATOM     23  C   UNL     1      51.978   5.812  20.692  0.00  0.00    +0.000 C 
BRANCH  23  24
ATOM     24  C   UNL     1      50.488   6.058  20.708  0.00  0.00    +0.000 A 
ATOM     25  C   UNL     1      49.567   5.016  20.863  0.00  0.00    +0.000 A 
ATOM     26  C   UNL     1      48.199   5.287  20.857  0.00  0.00    +0.000 A 
ATOM     27  C   UNL     1      47.789   6.599  20.692  0.00  0.00    +0.000 A 
ATOM     28  N   UNL     1      48.642   7.633  20.536  0.00  0.00    +0.000 NA
ATOM     29  C   UNL     1      49.964   7.339  20.539  0.00  0.00    +0.000 A 
ENDBRANCH  23  24
ENDBRANCH  22  23
ENDBRANCH  21  22
ENDBRANCH   4  21
TORSDOF 7
ENDMDL
MODEL 9
REMARK VINA RESULT:    -6.457      3.548      8.732
REMARK INTER + INTRA:          -9.797
REMARK INTER:                  -8.123
REMARK INTRA:                  -1.674
REMARK UNBOUND:                -0.697
REMARK  Name = 
REMARK  8 active torsions:
REMARK  status: ('A' for Active; 'I' for Inactive)
REMARK    1  A    between atoms: C_1  and  N_2
REMARK    2  A    between atoms: C_6  and  C_7
REMARK    3  A    between atoms: N_9  and  C_10
REMARK    4  A    between atoms: C_10  and  C_11
REMARK    5  A    between atoms: C_14  and  C_15
REMARK    6  A    between atoms: C_15  and  S_16
REMARK    7  A    between atoms: S_16  and  C_17
REMARK    8  A    between atoms: C_17  and  C_18
REMARK                            x       y       z     vdW  Elec       q    Type
REMARK                         _______ _______ _______ _____ _____    ______ ____
ROOT
ATOM      1  C   UNL     1      48.459   8.894  16.233  0.00  0.00    +0.000 A 
ATOM      2  C   UNL     1      47.877   9.467  17.373  0.00  0.00    +0.000 A 
ATOM      3  C   UNL     1      48.126   8.945  18.650  0.00  0.00    +0.000 A 
ATOM      4  C   UNL     1      48.958   7.830  18.824  0.00  0.00    +0.000 A 
ATOM      5  C   UNL     1      49.586   7.294  17.690  0.00  0.00    +0.000 A 
ATOM      6  C   UNL     1      49.338   7.817  16.411  0.00  0.00    +0.000 A 
ENDROOT
BRANCH   1   7
ATOM      7  C   UNL     1      48.144   9.431  14.854  0.00  0.00    +0.000 C 
BRANCH   7  10
ATOM      8  C   UNL     1      47.422   7.717  13.230  0.00  0.00    +0.000 C 
ATOM      9  O   UNL     1      48.572   7.460  12.890  0.00  0.00    +0.000 OA
ATOM     10  N   UNL     1      47.117   8.662  14.183  0.00  0.00    +0.000 N 
ATOM     11  H   UNL     1      46.184   8.669  14.578  0.00  0.00    +0.000 HD
BRANCH   8  17
ATOM     12  C   UNL     1      43.519   3.191  11.635  0.00  0.00    +0.000 C 
ATOM     13  N   UNL     1      44.630   3.950  12.158  0.00  0.00    +0.000 N 
ATOM     14  C   UNL     1      45.716   3.434  12.845  0.00  0.00    +0.000 A 
ATOM     15  C   UNL     1      46.560   4.484  13.194  0.00  0.00    +0.000 A 
ATOM     16  C   UNL     1      45.956   5.627  12.677  0.00  0.00    +0.000 A 
ATOM     17  C   UNL     1      46.270   7.003  12.678  0.00  0.00    +0.000 A 
ATOM     18  C   UNL     1      45.210   7.657  12.034  0.00  0.00    +0.000 A 
ATOM     19  S   UNL     1      43.962   6.584  11.456  0.00  0.00    +0.000 S 
ATOM     20  C   UNL     1      44.801   5.292  12.077  0.00  0.00    +0.000 A 
ENDBRANCH   8  17
ENDBRANCH   7  10
ENDBRANCH   1   7
BRANCH   4  21
ATOM     21  C   UNL     1      49.216   7.249  20.195  0.00  0.00    +0.000 C 
BRANCH  21  22
ATOM     22  S   UNL     1      50.174   5.693  20.213  0.00  0.00    +0.000 S 
BRANCH  22  23
ATOM     23  C   UNL     1      48.840   4.447  20.184  0.00  0.00    +0.000 C 
BRANCH  23  24
ATOM     24  C   UNL     1      48.523   4.024  18.769  0.00  0.00    +0.000 A 
ATOM     25  C   UNL     1      47.378   4.473  18.101  0.00  0.00    +0.000 A 
ATOM     26  C   UNL     1      47.117   4.046  16.800  0.00  0.00    +0.000 A 
ATOM     27  C   UNL     1      48.011   3.174  16.202  0.00  0.00    +0.000 A 
ATOM     28  N   UNL     1      49.124   2.714  16.810  0.00  0.00    +0.000 NA
ATOM     29  C   UNL     1      49.349   3.141  18.076  0.00  0.00    +0.000 A 
ENDBRANCH  23  24
ENDBRANCH  22  23
ENDBRANCH  21  22
ENDBRANCH   4  21
TORSDOF 7
ENDMDL
