MODEL 1
REMARK VINA RESULT:    -8.413      0.000      0.000
REMARK INTER + INTRA:         -11.771
REMARK INTER:                 -10.872
REMARK INTRA:                  -0.899
REMARK UNBOUND:                -0.899
REMARK  Name = 
REMARK  5 active torsions:
REMARK  status: ('A' for Active; 'I' for Inactive)
REMARK    1  A    between atoms: C_2  and  C_4
REMARK    2  A    between atoms: C_7  and  O_8
REMARK    3  A    between atoms: O_8  and  C_9
REMARK    4  A    between atoms: C_9  and  C_10
REMARK    5  A    between atoms: C_15  and  C_16
REMARK                            x       y       z     vdW  Elec       q    Type
REMARK                         _______ _______ _______ _____ _____    ______ ____
ROOT
ATOM      1  C   UNL     1      43.681   3.977  11.232  0.00  0.00    +0.000 C 
ENDROOT
BRANCH   1   2
ATOM      2  C   UNL     1      44.932   4.452  11.923  0.00  0.00    +0.000 A 
ATOM      3  C   UNL     1      45.597   3.640  12.845  0.00  0.00    +0.000 A 
ATOM      4  C   UNL     1      46.720   4.117  13.502  0.00  0.00    +0.000 A 
ATOM      5  F   UNL     1      47.346   3.338  14.394  0.00  0.00    +0.000 F 
ATOM      6  C   UNL     1      47.202   5.398  13.267  0.00  0.00    +0.000 A 
ATOM      7  C   UNL     1      46.561   6.243  12.348  0.00  0.00    +0.000 A 
ATOM      8  C   UNL     1      45.428   5.741  11.677  0.00  0.00    +0.000 A 
BRANCH   7   9
ATOM      9  C   UNL     1      47.035   7.620  12.123  0.00  0.00    +0.000 A 
ATOM     10  C   UNL     1      46.162   8.717  12.222  0.00  0.00    +0.000 A 
ATOM     11  C   UNL     1      46.625  10.025  12.061  0.00  0.00    +0.000 A 
ATOM     12  C   UNL     1      47.967  10.257  11.795  0.00  0.00    +0.000 A 
ATOM     13  C   UNL     1      48.851   9.190  11.675  0.00  0.00    +0.000 A 
ATOM     14  C   UNL     1      48.387   7.886  11.835  0.00  0.00    +0.000 A 
ENDBRANCH   7   9
ENDBRANCH   1   2
BRANCH   1  15
ATOM     15  O   UNL     1      43.764   4.298   9.843  0.00  0.00    +0.000 OA
BRANCH  15  19
ATOM     16  C   UNL     1      46.555   2.445   7.466  0.00  0.00    +0.000 A 
ATOM     17  C   UNL     1      45.876   1.637   8.369  0.00  0.00    +0.000 A 
ATOM     18  C   UNL     1      44.919   2.223   9.202  0.00  0.00    +0.000 A 
ATOM     19  C   UNL     1      44.671   3.589   9.108  0.00  0.00    +0.000 A 
ATOM     20  C   UNL     1      45.417   4.315   8.184  0.00  0.00    +0.000 A 
ATOM     21  N   UNL     1      46.358   3.786   7.361  0.00  0.00    +0.000 NA
BRANCH  16  23
ATOM     22  N   UNL     1      48.725   2.543   6.347  0.00  0.00    +0.000 N 
ATOM     23  C   UNL     1      47.565   1.845   6.542  0.00  0.00    +0.000 C 
ATOM     24  O   UNL     1      47.385   0.759   5.991  0.00  0.00    +0.000 OA
ATOM     25  H   UNL     1      49.454   2.085   5.821  0.00  0.00    +0.000 HD
ATOM     26  H   UNL     1      48.962   3.306   6.974  0.00  0.00    +0.000 HD
ENDBRANCH  16  23
ENDBRANCH  15  19
ENDBRANCH   1  15
TORSDOF 5
ENDMDL
MODEL 2
REMARK VINA RESULT:    -7.926      3.697      7.319
REMARK INTER + INTRA:         -11.142
REMARK INTER:                 -10.473
REMARK INTRA:                  -0.668
REMARK UNBOUND:                -0.899
REMARK  Name = 
REMARK  5 active torsions:
REMARK  status: ('A' for Active; 'I' for Inactive)
REMARK    1  A    between atoms: C_2  and  C_4
REMARK    2  A    between atoms: C_7  and  O_8
REMARK    3  A    between atoms: O_8  and  C_9
REMARK    4  A    between atoms: C_9  and  C_10
REMARK    5  A    between atoms: C_15  and  C_16
REMARK                            x       y       z     vdW  Elec       q    Type
REMARK                         _______ _______ _______ _____ _____    ______ ____
ROOT
ATOM      1  C   UNL     1      45.077   6.500  11.186  0.00  0.00    +0.000 C 
ENDROOT
BRANCH   1   2
ATOM      2  C   UNL     1      44.789   5.096  10.722  0.00  0.00    +0.000 A 
ATOM      3  C   UNL     1      43.913   4.270  11.431  0.00  0.00    +0.000 A 
ATOM      4  C   UNL     1      43.699   2.968  11.010  0.00  0.00    +0.000 A 
ATOM      5  F   UNL     1      42.867   2.177  11.701  0.00  0.00    +0.000 F 
ATOM      6  C   UNL     1      44.346   2.456   9.892  0.00  0.00    +0.000 A 
ATOM      7  C   UNL     1      45.233   3.255   9.156  0.00  0.00    +0.000 A 
ATOM      8  C   UNL     1      45.431   4.582   9.586  0.00  0.00    +0.000 A 
BRANCH   7   9
ATOM      9  C   UNL     1      45.961   2.712   7.994  0.00  0.00    +0.000 A 
ATOM     10  C   UNL     1      46.234   3.507   6.868  0.00  0.00    +0.000 A 
ATOM     11  C   UNL     1      46.970   3.006   5.792  0.00  0.00    +0.000 A 
ATOM     12  C   UNL     1      47.443   1.701   5.824  0.00  0.00    +0.000 A 
ATOM     13  C   UNL     1      47.174   0.886   6.918  0.00  0.00    +0.000 A 
ATOM     14  C   UNL     1      46.438   1.388   7.990  0.00  0.00    +0.000 A 
ENDBRANCH   7   9
ENDBRANCH   1   2
BRANCH   1  15
ATOM     15  O   UNL     1      46.489   6.711  11.187  0.00  0.00    +0.000 OA
BRANCH  15  19
ATOM     16  C   UNL     1      48.247   6.433  14.889  0.00  0.00    +0.000 A 
ATOM     17  C   UNL     1      48.255   7.688  14.292  0.00  0.00    +0.000 A 
ATOM     18  C   UNL     1      47.672   7.831  13.030  0.00  0.00    +0.000 A 
ATOM     19  C   UNL     1      47.102   6.724  12.408  0.00  0.00    +0.000 A 
ATOM     20  C   UNL     1      47.161   5.507  13.081  0.00  0.00    +0.000 A 
ATOM     21  N   UNL     1      47.722   5.325  14.304  0.00  0.00    +0.000 NA
BRANCH  16  23
ATOM     22  N   UNL     1      48.382   7.073  17.243  0.00  0.00    +0.000 N 
ATOM     23  C   UNL     1      48.839   6.253  16.250  0.00  0.00    +0.000 C 
ATOM     24  O   UNL     1      49.686   5.390  16.487  0.00  0.00    +0.000 OA
ATOM     25  H   UNL     1      48.691   6.875  18.183  0.00  0.00    +0.000 HD
ATOM     26  H   UNL     1      47.534   7.612  17.097  0.00  0.00    +0.000 HD
ENDBRANCH  16  23
ENDBRANCH  15  19
ENDBRANCH   1  15
TORSDOF 5
ENDMDL
MODEL 3
REMARK VINA RESULT:    -7.897      1.257      1.909
REMARK INTER + INTRA:         -11.104
REMARK INTER:                 -10.139
REMARK INTRA:                  -0.965
REMARK UNBOUND:                -0.899
REMARK  Name = 
REMARK  5 active torsions:
REMARK  status: ('A' for Active; 'I' for Inactive)
REMARK    1  A    between atoms: C_2  and  C_4
REMARK    2  A    between atoms: C_7  and  O_8
REMARK    3  A    between atoms: O_8  and  C_9
REMARK    4  A    between atoms: C_9  and  C_10
REMARK    5  A    between atoms: C_15  and  C_16
REMARK                            x       y       z     vdW  Elec       q    Type
REMARK                         _______ _______ _______ _____ _____    ______ ____
ROOT
ATOM      1  C   UNL     1      43.748   4.045  11.365  0.00  0.00    +0.000 C 
ENDROOT
BRANCH   1   2
ATOM      2  C   UNL     1      44.705   5.083  11.892  0.00  0.00    +0.000 A 
ATOM      3  C   UNL     1      45.744   4.728  12.757  0.00  0.00    +0.000 A 
ATOM      4  C   UNL     1      46.583   5.707  13.264  0.00  0.00    +0.000 A 
ATOM      5  F   UNL     1      47.571   5.362  14.103  0.00  0.00    +0.000 F 
ATOM      6  C   UNL     1      46.412   7.045  12.936  0.00  0.00    +0.000 A 
ATOM      7  C   UNL     1      45.379   7.439  12.072  0.00  0.00    +0.000 A 
ATOM      8  C   UNL     1      44.541   6.433  11.552  0.00  0.00    +0.000 A 
BRANCH   7   9
ATOM      9  C   UNL     1      45.156   8.861  11.751  0.00  0.00    +0.000 A 
ATOM     10  C   UNL     1      46.111   9.840  12.078  0.00  0.00    +0.000 A 
ATOM     11  C   UNL     1      45.922  11.177  11.724  0.00  0.00    +0.000 A 
ATOM     12  C   UNL     1      44.775  11.559  11.042  0.00  0.00    +0.000 A 
ATOM     13  C   UNL     1      43.806  10.615  10.720  0.00  0.00    +0.000 A 
ATOM     14  C   UNL     1      43.996   9.280  11.075  0.00  0.00    +0.000 A 
ENDBRANCH   7   9
ENDBRANCH   1   2
BRANCH   1  15
ATOM     15  O   UNL     1      43.636   4.191   9.949  0.00  0.00    +0.000 OA
BRANCH  15  19
ATOM     16  C   UNL     1      46.486   2.507   7.516  0.00  0.00    +0.000 A 
ATOM     17  C   UNL     1      45.862   1.656   8.420  0.00  0.00    +0.000 A 
ATOM     18  C   UNL     1      44.888   2.184   9.272  0.00  0.00    +0.000 A 
ATOM     19  C   UNL     1      44.568   3.537   9.195  0.00  0.00    +0.000 A 
ATOM     20  C   UNL     1      45.263   4.309   8.269  0.00  0.00    +0.000 A 
ATOM     21  N   UNL     1      46.219   3.837   7.427  0.00  0.00    +0.000 NA
BRANCH  16  23
ATOM     22  N   UNL     1      48.642   2.717   6.386  0.00  0.00    +0.000 N 
ATOM     23  C   UNL     1      47.513   1.969   6.573  0.00  0.00    +0.000 C 
ATOM     24  O   UNL     1      47.373   0.888   5.999  0.00  0.00    +0.000 OA
ATOM     25  H   UNL     1      49.386   2.300   5.845  0.00  0.00    +0.000 HD
ATOM     26  H   UNL     1      48.853   3.475   7.028  0.00  0.00    +0.000 HD
ENDBRANCH  16  23
ENDBRANCH  15  19
ENDBRANCH   1  15
TORSDOF 5
ENDMDL
MODEL 4
REMARK VINA RESULT:    -7.853      2.019      2.752
REMARK INTER + INTRA:         -11.047
REMARK INTER:                 -10.097
REMARK INTRA:                  -0.950
REMARK UNBOUND:                -0.899
REMARK  Name = 
REMARK  5 active torsions:
REMARK  status: ('A' for Active; 'I' for Inactive)
REMARK    1  A    between atoms: C_2  and  C_4
REMARK    2  A    between atoms: C_7  and  O_8
REMARK    3  A    between atoms: O_8  and  C_9
REMARK    4  A    between atoms: C_9  and  C_10
REMARK    5  A    between atoms: C_15  and  C_16
REMARK                            x       y       z     vdW  Elec       q    Type
REMARK                         _______ _______ _______ _____ _____    ______ ____
ROOT
ATOM      1  C   UNL     1      44.164   3.815  11.583  0.00  0.00    +0.000 C 
ENDROOT
BRANCH   1   2
ATOM      2  C   UNL     1      44.603   5.252  11.686  0.00  0.00    +0.000 A 
ATOM      3  C   UNL     1      43.748   6.293  11.316  0.00  0.00    +0.000 A 
ATOM      4  C   UNL     1      44.191   7.605  11.376  0.00  0.00    +0.000 A 
ATOM      5  F   UNL     1      43.369   8.598  11.008  0.00  0.00    +0.000 F 
ATOM      6  C   UNL     1      45.478   7.912  11.795  0.00  0.00    +0.000 A 
ATOM      7  C   UNL     1      46.366   6.894  12.174  0.00  0.00    +0.000 A 
ATOM      8  C   UNL     1      45.899   5.565  12.121  0.00  0.00    +0.000 A 
BRANCH   7   9
ATOM      9  C   UNL     1      47.750   7.202  12.577  0.00  0.00    +0.000 A 
ATOM     10  C   UNL     1      48.674   7.736  11.662  0.00  0.00    +0.000 A 
ATOM     11  C   UNL     1      49.968   8.077  12.060  0.00  0.00    +0.000 A 
ATOM     12  C   UNL     1      50.360   7.888  13.378  0.00  0.00    +0.000 A 
ATOM     13  C   UNL     1      49.472   7.347  14.301  0.00  0.00    +0.000 A 
ATOM     14  C   UNL     1      48.182   7.006  13.902  0.00  0.00    +0.000 A 
ENDBRANCH   7   9
ENDBRANCH   1   2
BRANCH   1  15
ATOM     15  O   UNL     1      43.683   3.568  10.261  0.00  0.00    +0.000 OA
BRANCH  15  19
ATOM     16  C   UNL     1      46.502   2.287   7.561  0.00  0.00    +0.000 A 
ATOM     17  C   UNL     1      46.175   3.638   7.523  0.00  0.00    +0.000 A 
ATOM     18  C   UNL     1      45.218   4.120   8.420  0.00  0.00    +0.000 A 
ATOM     19  C   UNL     1      44.621   3.244   9.323  0.00  0.00    +0.000 A 
ATOM     20  C   UNL     1      45.004   1.907   9.270  0.00  0.00    +0.000 A 
ATOM     21  N   UNL     1      45.925   1.398   8.412  0.00  0.00    +0.000 NA
BRANCH  16  23
ATOM     22  N   UNL     1      48.612   2.550   6.357  0.00  0.00    +0.000 N 
ATOM     23  C   UNL     1      47.541   1.746   6.634  0.00  0.00    +0.000 C 
ATOM     24  O   UNL     1      47.462   0.616   6.149  0.00  0.00    +0.000 OA
ATOM     25  H   UNL     1      49.369   2.143   5.829  0.00  0.00    +0.000 HD
ATOM     26  H   UNL     1      48.784   3.370   6.932  0.00  0.00    +0.000 HD
ENDBRANCH  16  23
ENDBRANCH  15  19
ENDBRANCH   1  15
TORSDOF 5
ENDMDL
MODEL 5
REMARK VINA RESULT:    -7.797      3.478      7.094
REMARK INTER + INTRA:         -10.975
REMARK INTER:                 -10.127
REMARK INTRA:                  -0.848
REMARK UNBOUND:                -0.899
REMARK  Name = 
REMARK  5 active torsions:
REMARK  status: ('A' for Active; 'I' for Inactive)
REMARK    1  A    between atoms: C_2  and  C_4
REMARK    2  A    between atoms: C_7  and  O_8
REMARK    3  A    between atoms: O_8  and  C_9
REMARK    4  A    between atoms: C_9  and  C_10
REMARK    5  A    between atoms: C_15  and  C_16
REMARK                            x       y       z     vdW  Elec       q    Type
REMARK                         _______ _______ _______ _____ _____    ______ ____
ROOT
ATOM      1  C   UNL     1      44.654   6.552  11.039  0.00  0.00    +0.000 C 
ENDROOT
BRANCH   1   2
ATOM      2  C   UNL     1      44.524   5.104  10.647  0.00  0.00    +0.000 A 
ATOM      3  C   UNL     1      43.737   4.224  11.396  0.00  0.00    +0.000 A 
ATOM      4  C   UNL     1      43.670   2.886  11.042  0.00  0.00    +0.000 A 
ATOM      5  F   UNL     1      42.923   2.046  11.771  0.00  0.00    +0.000 F 
ATOM      6  C   UNL     1      44.378   2.392   9.954  0.00  0.00    +0.000 A 
ATOM      7  C   UNL     1      45.179   3.244   9.179  0.00  0.00    +0.000 A 
ATOM      8  C   UNL     1      45.228   4.605   9.542  0.00  0.00    +0.000 A 
BRANCH   7   9
ATOM      9  C   UNL     1      45.971   2.725   8.050  0.00  0.00    +0.000 A 
ATOM     10  C   UNL     1      46.458   1.406   8.046  0.00  0.00    +0.000 A 
ATOM     11  C   UNL     1      47.162   0.901   6.951  0.00  0.00    +0.000 A 
ATOM     12  C   UNL     1      47.393   1.705   5.844  0.00  0.00    +0.000 A 
ATOM     13  C   UNL     1      46.937   3.019   5.827  0.00  0.00    +0.000 A 
ATOM     14  C   UNL     1      46.236   3.522   6.921  0.00  0.00    +0.000 A 
ENDBRANCH   7   9
ENDBRANCH   1   2
BRANCH   1  15
ATOM     15  O   UNL     1      44.845   6.638  12.452  0.00  0.00    +0.000 OA
BRANCH  15  19
ATOM     16  C   UNL     1      48.660   7.088  13.905  0.00  0.00    +0.000 A 
ATOM     17  C   UNL     1      48.160   8.137  13.143  0.00  0.00    +0.000 A 
ATOM     18  C   UNL     1      46.867   8.028  12.624  0.00  0.00    +0.000 A 
ATOM     19  C   UNL     1      46.118   6.883  12.880  0.00  0.00    +0.000 A 
ATOM     20  C   UNL     1      46.716   5.880  13.639  0.00  0.00    +0.000 A 
ATOM     21  N   UNL     1      47.970   5.945  14.157  0.00  0.00    +0.000 NA
BRANCH  16  23
ATOM     22  N   UNL     1      50.943   7.956  13.835  0.00  0.00    +0.000 N 
ATOM     23  C   UNL     1      50.029   7.184  14.498  0.00  0.00    +0.000 C 
ATOM     24  O   UNL     1      50.329   6.619  15.550  0.00  0.00    +0.000 OA
ATOM     25  H   UNL     1      51.828   8.117  14.294  0.00  0.00    +0.000 HD
ATOM     26  H   UNL     1      50.629   8.594  13.111  0.00  0.00    +0.000 HD
ENDBRANCH  16  23
ENDBRANCH  15  19
ENDBRANCH   1  15
TORSDOF 5
ENDMDL
MODEL 6
REMARK VINA RESULT:    -7.792      1.972      3.580
REMARK INTER + INTRA:         -10.968
REMARK INTER:                 -10.107
REMARK INTRA:                  -0.862
REMARK UNBOUND:                -0.899
REMARK  Name = 
REMARK  5 active torsions:
REMARK  status: ('A' for Active; 'I' for Inactive)
REMARK    1  A    between atoms: C_2  and  C_4
REMARK    2  A    between atoms: C_7  and  O_8
REMARK    3  A    between atoms: O_8  and  C_9
REMARK    4  A    between atoms: C_9  and  C_10
REMARK    5  A    between atoms: C_15  and  C_16
REMARK                            x       y       z     vdW  Elec       q    Type
REMARK                         _______ _______ _______ _____ _____    ______ ____
ROOT
ATOM      1  C   UNL     1      43.872   3.744  11.338  0.00  0.00    +0.000 C 
ENDROOT
BRANCH   1   2
ATOM      2  C   UNL     1      44.786   4.744  11.996  0.00  0.00    +0.000 A 
ATOM      3  C   UNL     1      44.929   6.035  11.480  0.00  0.00    +0.000 A 
ATOM      4  C   UNL     1      45.810   6.923  12.076  0.00  0.00    +0.000 A 
ATOM      5  F   UNL     1      45.951   8.156  11.570  0.00  0.00    +0.000 F 
ATOM      6  C   UNL     1      46.566   6.556  13.182  0.00  0.00    +0.000 A 
ATOM      7  C   UNL     1      46.450   5.268  13.727  0.00  0.00    +0.000 A 
ATOM      8  C   UNL     1      45.540   4.379  13.120  0.00  0.00    +0.000 A 
BRANCH   7   9
ATOM      9  C   UNL     1      47.279   4.850  14.872  0.00  0.00    +0.000 A 
ATOM     10  C   UNL     1      48.059   5.777  15.584  0.00  0.00    +0.000 A 
ATOM     11  C   UNL     1      48.802   5.388  16.701  0.00  0.00    +0.000 A 
ATOM     12  C   UNL     1      48.778   4.065  17.123  0.00  0.00    +0.000 A 
ATOM     13  C   UNL     1      48.028   3.123  16.428  0.00  0.00    +0.000 A 
ATOM     14  C   UNL     1      47.289   3.513  15.312  0.00  0.00    +0.000 A 
ENDBRANCH   7   9
ENDBRANCH   1   2
BRANCH   1  15
ATOM     15  O   UNL     1      43.807   4.021   9.939  0.00  0.00    +0.000 OA
BRANCH  15  19
ATOM     16  C   UNL     1      46.628   2.419   7.419  0.00  0.00    +0.000 A 
ATOM     17  C   UNL     1      45.984   1.531   8.273  0.00  0.00    +0.000 A 
ATOM     18  C   UNL     1      45.019   2.030   9.151  0.00  0.00    +0.000 A 
ATOM     19  C   UNL     1      44.728   3.391   9.150  0.00  0.00    +0.000 A 
ATOM     20  C   UNL     1      45.441   4.200   8.270  0.00  0.00    +0.000 A 
ATOM     21  N   UNL     1      46.388   3.756   7.405  0.00  0.00    +0.000 NA
BRANCH  16  23
ATOM     22  N   UNL     1      48.763   2.679   6.260  0.00  0.00    +0.000 N 
ATOM     23  C   UNL     1      47.646   1.913   6.449  0.00  0.00    +0.000 C 
ATOM     24  O   UNL     1      47.510   0.843   5.854  0.00  0.00    +0.000 OA
ATOM     25  H   UNL     1      49.503   2.283   5.698  0.00  0.00    +0.000 HD
ATOM     26  H   UNL     1      48.974   3.427   6.914  0.00  0.00    +0.000 HD
ENDBRANCH  16  23
ENDBRANCH  15  19
ENDBRANCH   1  15
TORSDOF 5
ENDMDL
MODEL 7
REMARK VINA RESULT:    -7.714      4.093      7.413
REMARK INTER + INTRA:         -10.868
REMARK INTER:                 -10.195
REMARK INTRA:                  -0.673
REMARK UNBOUND:                -0.899
REMARK  Name = 
REMARK  5 active torsions:
REMARK  status: ('A' for Active; 'I' for Inactive)
REMARK    1  A    between atoms: C_2  and  C_4
REMARK    2  A    between atoms: C_7  and  O_8
REMARK    3  A    between atoms: O_8  and  C_9
REMARK    4  A    between atoms: C_9  and  C_10
REMARK    5  A    between atoms: C_15  and  C_16
REMARK                            x       y       z     vdW  Elec       q    Type
REMARK                         _______ _______ _______ _____ _____    ______ ____
ROOT
ATOM      1  C   UNL     1      46.275   7.221  12.359  0.00  0.00    +0.000 C 
ENDROOT
BRANCH   1   2
ATOM      2  C   UNL     1      45.345   6.324  11.585  0.00  0.00    +0.000 A 
ATOM      3  C   UNL     1      43.979   6.282  11.876  0.00  0.00    +0.000 A 
ATOM      4  C   UNL     1      43.151   5.415  11.182  0.00  0.00    +0.000 A 
ATOM      5  F   UNL     1      41.844   5.372  11.474  0.00  0.00    +0.000 F 
ATOM      6  C   UNL     1      43.652   4.574  10.197  0.00  0.00    +0.000 A 
ATOM      7  C   UNL     1      45.018   4.586   9.878  0.00  0.00    +0.000 A 
ATOM      8  C   UNL     1      45.847   5.483  10.582  0.00  0.00    +0.000 A 
BRANCH   7   9
ATOM      9  C   UNL     1      45.571   3.667   8.867  0.00  0.00    +0.000 A 
ATOM     10  C   UNL     1      46.196   4.151   7.705  0.00  0.00    +0.000 A 
ATOM     11  C   UNL     1      46.766   3.279   6.776  0.00  0.00    +0.000 A 
ATOM     12  C   UNL     1      46.719   1.909   6.991  0.00  0.00    +0.000 A 
ATOM     13  C   UNL     1      46.093   1.400   8.124  0.00  0.00    +0.000 A 
ATOM     14  C   UNL     1      45.523   2.272   9.050  0.00  0.00    +0.000 A 
ENDBRANCH   7   9
ENDBRANCH   1   2
BRANCH   1  15
ATOM     15  O   UNL     1      47.488   6.516  12.625  0.00  0.00    +0.000 OA
BRANCH  15  19
ATOM     16  C   UNL     1      47.654   4.656  16.284  0.00  0.00    +0.000 A 
ATOM     17  C   UNL     1      48.394   5.825  16.149  0.00  0.00    +0.000 A 
ATOM     18  C   UNL     1      48.371   6.492  14.921  0.00  0.00    +0.000 A 
ATOM     19  C   UNL     1      47.616   5.975  13.872  0.00  0.00    +0.000 A 
ATOM     20  C   UNL     1      46.925   4.789  14.102  0.00  0.00    +0.000 A 
ATOM     21  N   UNL     1      46.924   4.108  15.278  0.00  0.00    +0.000 NA
BRANCH  16  23
ATOM     22  N   UNL     1      47.179   4.625  18.680  0.00  0.00    +0.000 N 
ATOM     23  C   UNL     1      47.635   3.934  17.592  0.00  0.00    +0.000 C 
ATOM     24  O   UNL     1      47.989   2.759  17.697  0.00  0.00    +0.000 OA
ATOM     25  H   UNL     1      47.054   4.105  19.536  0.00  0.00    +0.000 HD
ATOM     26  H   UNL     1      46.679   5.499  18.545  0.00  0.00    +0.000 HD
ENDBRANCH  16  23
ENDBRANCH  15  19
ENDBRANCH   1  15
TORSDOF 5
ENDMDL
MODEL 8
REMARK VINA RESULT:    -7.148      4.847      7.808
REMARK INTER + INTRA:         -10.136
REMARK INTER:                  -9.492
REMARK INTRA:                  -0.644
REMARK UNBOUND:                -0.899
REMARK  Name = 
REMARK  5 active torsions:
REMARK  status: ('A' for Active; 'I' for Inactive)
REMARK    1  A    between atoms: C_2  and  C_4
REMARK    2  A    between atoms: C_7  and  O_8
REMARK    3  A    between atoms: O_8  and  C_9
REMARK    4  A    between atoms: C_9  and  C_10
REMARK    5  A    between atoms: C_15  and  C_16
REMARK                            x       y       z     vdW  Elec       q    Type
REMARK                         _______ _______ _______ _____ _____    ______ ____
ROOT
ATOM      1  C   UNL     1      46.118   5.491  13.922  0.00  0.00    +0.000 C 
ENDROOT
BRANCH   1   2
ATOM      2  C   UNL     1      45.203   5.231  12.754  0.00  0.00    +0.000 A 
ATOM      3  C   UNL     1      43.843   5.544  12.822  0.00  0.00    +0.000 A 
ATOM      4  C   UNL     1      43.014   5.253  11.751  0.00  0.00    +0.000 A 
ATOM      5  F   UNL     1      41.708   5.545  11.827  0.00  0.00    +0.000 F 
ATOM      6  C   UNL     1      43.505   4.646  10.603  0.00  0.00    +0.000 A 
ATOM      7  C   UNL     1      44.864   4.316  10.498  0.00  0.00    +0.000 A 
ATOM      8  C   UNL     1      45.700   4.630  11.588  0.00  0.00    +0.000 A 
BRANCH   7   9
ATOM      9  C   UNL     1      45.391   3.631   9.303  0.00  0.00    +0.000 A 
ATOM     10  C   UNL     1      45.897   4.356   8.211  0.00  0.00    +0.000 A 
ATOM     11  C   UNL     1      46.444   3.704   7.104  0.00  0.00    +0.000 A 
ATOM     12  C   UNL     1      46.492   2.317   7.070  0.00  0.00    +0.000 A 
ATOM     13  C   UNL     1      45.984   1.574   8.129  0.00  0.00    +0.000 A 
ATOM     14  C   UNL     1      45.437   2.226   9.233  0.00  0.00    +0.000 A 
ENDBRANCH   7   9
ENDBRANCH   1   2
BRANCH   1  15
ATOM     15  O   UNL     1      46.329   4.269  14.630  0.00  0.00    +0.000 OA
BRANCH  15  19
ATOM     16  C   UNL     1      49.458   4.557  17.277  0.00  0.00    +0.000 A 
ATOM     17  C   UNL     1      48.768   3.350  17.262  0.00  0.00    +0.000 A 
ATOM     18  C   UNL     1      47.693   3.206  16.380  0.00  0.00    +0.000 A 
ATOM     19  C   UNL     1      47.343   4.264  15.546  0.00  0.00    +0.000 A 
ATOM     20  C   UNL     1      48.085   5.438  15.650  0.00  0.00    +0.000 A 
ATOM     21  N   UNL     1      49.132   5.619  16.496  0.00  0.00    +0.000 NA
BRANCH  16  23
ATOM     22  N   UNL     1      51.128   3.611  18.788  0.00  0.00    +0.000 N 
ATOM     23  C   UNL     1      50.629   4.734  18.189  0.00  0.00    +0.000 C 
ATOM     24  O   UNL     1      51.147   5.834  18.384  0.00  0.00    +0.000 OA
ATOM     25  H   UNL     1      51.988   3.710  19.308  0.00  0.00    +0.000 HD
ATOM     26  H   UNL     1      50.850   2.695  18.448  0.00  0.00    +0.000 HD
ENDBRANCH  16  23
ENDBRANCH  15  19
ENDBRANCH   1  15
TORSDOF 5
ENDMDL
MODEL 9
REMARK VINA RESULT:    -6.775      5.273      8.307
REMARK INTER + INTRA:          -9.655
REMARK INTER:                  -8.871
REMARK INTRA:                  -0.784
REMARK UNBOUND:                -0.899
REMARK  Name = 
REMARK  5 active torsions:
REMARK  status: ('A' for Active; 'I' for Inactive)
REMARK    1  A    between atoms: C_2  and  C_4
REMARK    2  A    between atoms: C_7  and  O_8
REMARK    3  A    between atoms: O_8  and  C_9
REMARK    4  A    between atoms: C_9  and  C_10
REMARK    5  A    between atoms: C_15  and  C_16
REMARK                            x       y       z     vdW  Elec       q    Type
REMARK                         _______ _______ _______ _____ _____    ______ ____
ROOT
ATOM      1  C   UNL     1      48.265   7.187  13.949  0.00  0.00    +0.000 C 
ENDROOT
BRANCH   1   2
ATOM      2  C   UNL     1      47.093   7.290  13.008  0.00  0.00    +0.000 A 
ATOM      3  C   UNL     1      46.292   8.435  12.981  0.00  0.00    +0.000 A 
ATOM      4  C   UNL     1      45.192   8.487  12.140  0.00  0.00    +0.000 A 
ATOM      5  F   UNL     1      44.421   9.584  12.126  0.00  0.00    +0.000 F 
ATOM      6  C   UNL     1      44.859   7.417  11.320  0.00  0.00    +0.000 A 
ATOM      7  C   UNL     1      45.639   6.251  11.321  0.00  0.00    +0.000 A 
ATOM      8  C   UNL     1      46.763   6.215  12.170  0.00  0.00    +0.000 A 
BRANCH   7   9
ATOM      9  C   UNL     1      45.272   5.090  10.489  0.00  0.00    +0.000 A 
ATOM     10  C   UNL     1      45.631   5.023   9.132  0.00  0.00    +0.000 A 
ATOM     11  C   UNL     1      45.329   3.899   8.361  0.00  0.00    +0.000 A 
ATOM     12  C   UNL     1      44.661   2.824   8.933  0.00  0.00    +0.000 A 
ATOM     13  C   UNL     1      44.280   2.870  10.269  0.00  0.00    +0.000 A 
ATOM     14  C   UNL     1      44.580   3.993  11.037  0.00  0.00    +0.000 A 
ENDBRANCH   7   9
ENDBRANCH   1   2
BRANCH   1  15
ATOM     15  O   UNL     1      48.430   5.824  14.340  0.00  0.00    +0.000 OA
BRANCH  15  19
ATOM     16  C   UNL     1      48.163   5.240  18.398  0.00  0.00    +0.000 A 
ATOM     17  C   UNL     1      47.449   4.358  17.596  0.00  0.00    +0.000 A 
ATOM     18  C   UNL     1      47.506   4.518  16.209  0.00  0.00    +0.000 A 
ATOM     19  C   UNL     1      48.270   5.549  15.669  0.00  0.00    +0.000 A 
ATOM     20  C   UNL     1      48.934   6.391  16.556  0.00  0.00    +0.000 A 
ATOM     21  N   UNL     1      48.901   6.271  17.909  0.00  0.00    +0.000 NA
BRANCH  16  23
ATOM     22  N   UNL     1      48.527   3.865  20.384  0.00  0.00    +0.000 N 
ATOM     23  C   UNL     1      48.145   5.079  19.884  0.00  0.00    +0.000 C 
ATOM     24  O   UNL     1      47.825   5.998  20.639  0.00  0.00    +0.000 OA
ATOM     25  H   UNL     1      48.629   3.792  21.386  0.00  0.00    +0.000 HD
ATOM     26  H   UNL     1      49.004   3.201  19.781  0.00  0.00    +0.000 HD
ENDBRANCH  16  23
ENDBRANCH  15  19
ENDBRANCH   1  15
TORSDOF 5
ENDMDL
