MODEL 1
REMARK VINA RESULT:    -8.784      0.000      0.000
REMARK INTER + INTRA:         -12.740
REMARK INTER:                 -11.866
REMARK INTRA:                  -0.874
REMARK UNBOUND:                -0.874
REMARK  Name = 
REMARK  8 active torsions:
REMARK  status: ('A' for Active; 'I' for Inactive)
REMARK    1  A    between atoms: C_1  and  C_2
REMARK    2  A    between atoms: C_5  and  N_6
REMARK    3  A    between atoms: N_6  and  C_7
REMARK    4  A    between atoms: C_7  and  C_8
REMARK    5  A    between atoms: C_11  and  C_12
REMARK    6  A    between atoms: C_12  and  N_13
REMARK    7  A    between atoms: C_14  and  C_16
REMARK    8  A    between atoms: C_29  and  C_30
REMARK                            x       y       z     vdW  Elec       q    Type
REMARK                         _______ _______ _______ _____ _____    ______ ____
ROOT
ATOM      1  C   UNL     1      44.627   5.501  10.940  0.00  0.00    +0.000 A 
ATOM      2  C   UNL     1      45.848   5.934  10.422  0.00  0.00    +0.000 A 
ATOM      3  C   UNL     1      46.671   6.745  11.208  0.00  0.00    +0.000 A 
ATOM      4  C   UNL     1      46.264   7.115  12.492  0.00  0.00    +0.000 A 
ATOM      5  C   UNL     1      45.016   6.670  12.908  0.00  0.00    +0.000 A 
ATOM      6  N   UNL     1      44.205   5.874  12.175  0.00  0.00    +0.000 NA
ENDROOT
BRANCH   1   7
ATOM      7  C   UNL     1      43.719   4.585  10.130  0.00  0.00    +0.000 C 
BRANCH   7   8
ATOM      8  N   UNL     1      44.296   3.249   9.983  0.00  0.00    +0.000 N 
ATOM      9  H   UNL     1      43.649   2.511  10.241  0.00  0.00    +0.000 HD
BRANCH   8  14
ATOM     10  C   UNL     1      47.731   1.835   5.596  0.00  0.00    +0.000 C 
ATOM     11  C   UNL     1      46.817   2.192   6.737  0.00  0.00    +0.000 A 
ATOM     12  C   UNL     1      46.340   3.502   6.862  0.00  0.00    +0.000 A 
ATOM     13  C   UNL     1      45.490   3.867   7.916  0.00  0.00    +0.000 A 
ATOM     14  C   UNL     1      45.073   2.932   8.866  0.00  0.00    +0.000 A 
ATOM     15  C   UNL     1      45.592   1.632   8.756  0.00  0.00    +0.000 A 
ATOM     16  C   UNL     1      46.442   1.243   7.702  0.00  0.00    +0.000 A 
ATOM     17  C   UNL     1      46.941  -0.175   7.646  0.00  0.00    +0.000 C 
ENDBRANCH   8  14
ENDBRANCH   7   8
ENDBRANCH   1   7
BRANCH   4  18
ATOM     18  C   UNL     1      47.100   7.997  13.374  0.00  0.00    +0.000 C 
BRANCH  18  19
ATOM     19  N   UNL     1      47.512   7.300  14.565  0.00  0.00    +0.000 N 
ATOM     20  C   UNL     1      48.790   6.822  14.716  0.00  0.00    +0.000 C 
ATOM     21  O   UNL     1      49.659   7.012  13.868  0.00  0.00    +0.000 OA
ATOM     22  H   UNL     1      46.776   6.926  15.155  0.00  0.00    +0.000 HD
BRANCH  20  23
ATOM     23  C   UNL     1      49.081   6.123  15.973  0.00  0.00    +0.000 A 
ATOM     24  C   UNL     1      50.138   6.543  16.768  0.00  0.00    +0.000 A 
ATOM     25  S   UNL     1      50.297   5.659  18.219  0.00  0.00    +0.000 S 
ATOM     26  C   UNL     1      48.991   4.648  17.810  0.00  0.00    +0.000 A 
ATOM     27  N   UNL     1      48.606   3.635  18.633  0.00  0.00    +0.000 NA
ATOM     28  C   UNL     1      47.622   2.929  18.185  0.00  0.00    +0.000 A 
ATOM     29  N   UNL     1      46.984   3.147  16.992  0.00  0.00    +0.000 N 
ATOM     30  C   UNL     1      47.318   4.176  16.145  0.00  0.00    +0.000 A 
ATOM     31  O   UNL     1      46.697   4.375  15.104  0.00  0.00    +0.000 OA
ATOM     32  C   UNL     1      48.429   4.993  16.595  0.00  0.00    +0.000 A 
ATOM     33  H   UNL     1      46.212   2.563  16.702  0.00  0.00    +0.000 HD
ENDBRANCH  20  23
ENDBRANCH  18  19
ENDBRANCH   4  18
TORSDOF 6
ENDMDL
MODEL 2
REMARK VINA RESULT:    -8.683      2.009      2.272
REMARK INTER + INTRA:         -12.602
REMARK INTER:                 -11.957
REMARK INTRA:                  -0.645
REMARK UNBOUND:                -0.874
REMARK  Name = 
REMARK  8 active torsions:
REMARK  status: ('A' for Active; 'I' for Inactive)
REMARK    1  A    between atoms: C_1  and  C_2
REMARK    2  A    between atoms: C_5  and  N_6
REMARK    3  A    between atoms: N_6  and  C_7
REMARK    4  A    between atoms: C_7  and  C_8
REMARK    5  A    between atoms: C_11  and  C_12
REMARK    6  A    between atoms: C_12  and  N_13
REMARK    7  A    between atoms: C_14  and  C_16
REMARK    8  A    between atoms: C_29  and  C_30
REMARK                            x       y       z     vdW  Elec       q    Type
REMARK                         _______ _______ _______ _____ _____    ______ ____
ROOT
ATOM      1  C   UNL     1      45.348   4.109  12.193  0.00  0.00    +0.000 A 
ATOM      2  C   UNL     1      45.546   5.376  11.644  0.00  0.00    +0.000 A 
ATOM      3  C   UNL     1      46.525   6.209  12.193  0.00  0.00    +0.000 A 
ATOM      4  C   UNL     1      47.285   5.770  13.280  0.00  0.00    +0.000 A 
ATOM      5  C   UNL     1      46.990   4.510  13.785  0.00  0.00    +0.000 A 
ATOM      6  N   UNL     1      46.059   3.677  13.266  0.00  0.00    +0.000 NA
ENDROOT
BRANCH   1   7
ATOM      7  C   UNL     1      44.318   3.157  11.600  0.00  0.00    +0.000 C 
BRANCH   7   8
ATOM      8  N   UNL     1      43.971   3.526  10.227  0.00  0.00    +0.000 N 
ATOM      9  H   UNL     1      43.529   4.438  10.165  0.00  0.00    +0.000 HD
BRANCH   8  14
ATOM     10  C   UNL     1      47.838   2.337   6.143  0.00  0.00    +0.000 C 
ATOM     11  C   UNL     1      46.811   2.638   7.201  0.00  0.00    +0.000 A 
ATOM     12  C   UNL     1      46.424   3.962   7.438  0.00  0.00    +0.000 A 
ATOM     13  C   UNL     1      45.472   4.275   8.419  0.00  0.00    +0.000 A 
ATOM     14  C   UNL     1      44.862   3.276   9.181  0.00  0.00    +0.000 A 
ATOM     15  C   UNL     1      45.290   1.956   8.966  0.00  0.00    +0.000 A 
ATOM     16  C   UNL     1      46.240   1.619   7.981  0.00  0.00    +0.000 A 
ATOM     17  C   UNL     1      46.631   0.177   7.801  0.00  0.00    +0.000 C 
ENDBRANCH   8  14
ENDBRANCH   7   8
ENDBRANCH   1   7
BRANCH   4  18
ATOM     18  C   UNL     1      48.338   6.628  13.920  0.00  0.00    +0.000 C 
BRANCH  18  19
ATOM     19  N   UNL     1      48.070   6.819  15.322  0.00  0.00    +0.000 N 
ATOM     20  C   UNL     1      49.015   6.547  16.281  0.00  0.00    +0.000 C 
ATOM     21  O   UNL     1      50.150   6.179  15.989  0.00  0.00    +0.000 OA
ATOM     22  H   UNL     1      47.096   6.885  15.598  0.00  0.00    +0.000 HD
BRANCH  20  23
ATOM     23  C   UNL     1      48.614   6.777  17.674  0.00  0.00    +0.000 A 
ATOM     24  C   UNL     1      48.203   8.041  18.074  0.00  0.00    +0.000 A 
ATOM     25  S   UNL     1      47.717   8.118  19.708  0.00  0.00    +0.000 S 
ATOM     26  C   UNL     1      48.090   6.476  19.953  0.00  0.00    +0.000 A 
ATOM     27  N   UNL     1      47.925   5.895  21.172  0.00  0.00    +0.000 NA
ATOM     28  C   UNL     1      48.276   4.654  21.223  0.00  0.00    +0.000 A 
ATOM     29  N   UNL     1      48.772   3.938  20.165  0.00  0.00    +0.000 N 
ATOM     30  C   UNL     1      48.926   4.475  18.910  0.00  0.00    +0.000 A 
ATOM     31  O   UNL     1      49.330   3.796  17.969  0.00  0.00    +0.000 OA
ATOM     32  C   UNL     1      48.559   5.874  18.800  0.00  0.00    +0.000 A 
ATOM     33  H   UNL     1      49.021   2.964  20.268  0.00  0.00    +0.000 HD
ENDBRANCH  20  23
ENDBRANCH  18  19
ENDBRANCH   4  18
TORSDOF 6
ENDMDL
MODEL 3
REMARK VINA RESULT:    -8.675      2.365      2.772
REMARK INTER + INTRA:         -12.592
REMARK INTER:                 -11.576
REMARK INTRA:                  -1.016
REMARK UNBOUND:                -0.874
REMARK  Name = 
REMARK  8 active torsions:
REMARK  status: ('A' for Active; 'I' for Inactive)
REMARK    1  A    between atoms: C_1  and  C_2
REMARK    2  A    between atoms: C_5  and  N_6
REMARK    3  A    between atoms: N_6  and  C_7
REMARK    4  A    between atoms: C_7  and  C_8
REMARK    5  A    between atoms: C_11  and  C_12
REMARK    6  A    between atoms: C_12  and  N_13
REMARK    7  A    between atoms: C_14  and  C_16
REMARK    8  A    between atoms: C_29  and  C_30
REMARK                            x       y       z     vdW  Elec       q    Type
REMARK                         _______ _______ _______ _____ _____    ______ ____
ROOT
ATOM      1  C   UNL     1      45.219   4.035  12.136  0.00  0.00    +0.000 A 
ATOM      2  C   UNL     1      45.303   5.384  11.793  0.00  0.00    +0.000 A 
ATOM      3  C   UNL     1      46.238   6.194  12.443  0.00  0.00    +0.000 A 
ATOM      4  C   UNL     1      47.070   5.649  13.424  0.00  0.00    +0.000 A 
ATOM      5  C   UNL     1      46.888   4.306  13.727  0.00  0.00    +0.000 A 
ATOM      6  N   UNL     1      46.000   3.496  13.106  0.00  0.00    +0.000 NA
ENDROOT
BRANCH   1   7
ATOM      7  C   UNL     1      44.239   3.111  11.424  0.00  0.00    +0.000 C 
BRANCH   7   8
ATOM      8  N   UNL     1      43.991   3.546  10.050  0.00  0.00    +0.000 N 
ATOM      9  H   UNL     1      43.616   4.487   9.997  0.00  0.00    +0.000 HD
BRANCH   8  14
ATOM     10  C   UNL     1      47.990   2.235   6.134  0.00  0.00    +0.000 C 
ATOM     11  C   UNL     1      46.929   2.567   7.148  0.00  0.00    +0.000 A 
ATOM     12  C   UNL     1      46.557   3.901   7.352  0.00  0.00    +0.000 A 
ATOM     13  C   UNL     1      45.574   4.244   8.292  0.00  0.00    +0.000 A 
ATOM     14  C   UNL     1      44.917   3.266   9.042  0.00  0.00    +0.000 A 
ATOM     15  C   UNL     1      45.329   1.936   8.860  0.00  0.00    +0.000 A 
ATOM     16  C   UNL     1      46.310   1.569   7.917  0.00  0.00    +0.000 A 
ATOM     17  C   UNL     1      46.682   0.119   7.770  0.00  0.00    +0.000 C 
ENDBRANCH   8  14
ENDBRANCH   7   8
ENDBRANCH   1   7
BRANCH   4  18
ATOM     18  C   UNL     1      48.082   6.474  14.166  0.00  0.00    +0.000 C 
BRANCH  18  19
ATOM     19  N   UNL     1      47.968   6.280  15.588  0.00  0.00    +0.000 N 
ATOM     20  C   UNL     1      49.073   6.098  16.383  0.00  0.00    +0.000 C 
ATOM     21  O   UNL     1      50.214   6.145  15.930  0.00  0.00    +0.000 OA
ATOM     22  H   UNL     1      47.059   6.001  15.942  0.00  0.00    +0.000 HD
BRANCH  20  23
ATOM     23  C   UNL     1      48.820   5.903  17.816  0.00  0.00    +0.000 A 
ATOM     24  C   UNL     1      49.073   4.670  18.400  0.00  0.00    +0.000 A 
ATOM     25  S   UNL     1      48.781   4.635  20.080  0.00  0.00    +0.000 S 
ATOM     26  C   UNL     1      48.255   6.253  20.078  0.00  0.00    +0.000 A 
ATOM     27  N   UNL     1      47.829   6.853  21.222  0.00  0.00    +0.000 NA
ATOM     28  C   UNL     1      47.430   8.071  21.069  0.00  0.00    +0.000 A 
ATOM     29  N   UNL     1      47.424   8.747  19.878  0.00  0.00    +0.000 N 
ATOM     30  C   UNL     1      47.874   8.193  18.704  0.00  0.00    +0.000 A 
ATOM     31  O   UNL     1      47.899   8.839  17.660  0.00  0.00    +0.000 OA
ATOM     32  C   UNL     1      48.321   6.818  18.817  0.00  0.00    +0.000 A 
ATOM     33  H   UNL     1      47.107   9.705  19.826  0.00  0.00    +0.000 HD
ENDBRANCH  20  23
ENDBRANCH  18  19
ENDBRANCH   4  18
TORSDOF 6
ENDMDL
MODEL 4
REMARK VINA RESULT:    -8.013      1.917      2.274
REMARK INTER + INTRA:         -11.697
REMARK INTER:                 -10.587
REMARK INTRA:                  -1.110
REMARK UNBOUND:                -0.874
REMARK  Name = 
REMARK  8 active torsions:
REMARK  status: ('A' for Active; 'I' for Inactive)
REMARK    1  A    between atoms: C_1  and  C_2
REMARK    2  A    between atoms: C_5  and  N_6
REMARK    3  A    between atoms: N_6  and  C_7
REMARK    4  A    between atoms: C_7  and  C_8
REMARK    5  A    between atoms: C_11  and  C_12
REMARK    6  A    between atoms: C_12  and  N_13
REMARK    7  A    between atoms: C_14  and  C_16
REMARK    8  A    between atoms: C_29  and  C_30
REMARK                            x       y       z     vdW  Elec       q    Type
REMARK                         _______ _______ _______ _____ _____    ______ ____
ROOT
ATOM      1  C   UNL     1      44.771   4.762  11.831  0.00  0.00    +0.000 A 
ATOM      2  C   UNL     1      46.044   4.774  12.401  0.00  0.00    +0.000 A 
ATOM      3  C   UNL     1      46.609   5.996  12.776  0.00  0.00    +0.000 A 
ATOM      4  C   UNL     1      45.901   7.183  12.573  0.00  0.00    +0.000 A 
ATOM      5  C   UNL     1      44.658   7.077  11.963  0.00  0.00    +0.000 A 
ATOM      6  N   UNL     1      44.081   5.908  11.602  0.00  0.00    +0.000 NA
ENDROOT
BRANCH   1   7
ATOM      7  C   UNL     1      44.104   3.448  11.444  0.00  0.00    +0.000 C 
BRANCH   7   8
ATOM      8  N   UNL     1      43.764   3.416  10.021  0.00  0.00    +0.000 N 
ATOM      9  H   UNL     1      43.106   4.142   9.758  0.00  0.00    +0.000 HD
BRANCH   8  14
ATOM     10  C   UNL     1      48.025   2.366   6.308  0.00  0.00    +0.000 C 
ATOM     11  C   UNL     1      46.896   2.630   7.267  0.00  0.00    +0.000 A 
ATOM     12  C   UNL     1      46.471   3.944   7.495  0.00  0.00    +0.000 A 
ATOM     13  C   UNL     1      45.425   4.223   8.386  0.00  0.00    +0.000 A 
ATOM     14  C   UNL     1      44.756   3.200   9.061  0.00  0.00    +0.000 A 
ATOM     15  C   UNL     1      45.220   1.890   8.859  0.00  0.00    +0.000 A 
ATOM     16  C   UNL     1      46.265   1.587   7.964  0.00  0.00    +0.000 A 
ATOM     17  C   UNL     1      46.690   0.154   7.790  0.00  0.00    +0.000 C 
ENDBRANCH   8  14
ENDBRANCH   7   8
ENDBRANCH   1   7
BRANCH   4  18
ATOM     18  C   UNL     1      46.465   8.526  12.942  0.00  0.00    +0.000 C 
BRANCH  18  19
ATOM     19  N   UNL     1      46.949   8.531  14.298  0.00  0.00    +0.000 N 
ATOM     20  C   UNL     1      48.172   9.063  14.626  0.00  0.00    +0.000 C 
ATOM     21  O   UNL     1      48.889   9.608  13.789  0.00  0.00    +0.000 OA
ATOM     22  H   UNL     1      46.504   7.890  14.947  0.00  0.00    +0.000 HD
BRANCH  20  23
ATOM     23  C   UNL     1      48.552   9.000  16.042  0.00  0.00    +0.000 A 
ATOM     24  C   UNL     1      48.656  10.169  16.781  0.00  0.00    +0.000 A 
ATOM     25  S   UNL     1      49.048   9.910  18.422  0.00  0.00    +0.000 S 
ATOM     26  C   UNL     1      49.145   8.228  18.189  0.00  0.00    +0.000 A 
ATOM     27  N   UNL     1      49.474   7.397  19.215  0.00  0.00    +0.000 NA
ATOM     28  C   UNL     1      49.541   6.149  18.891  0.00  0.00    +0.000 A 
ATOM     29  N   UNL     1      49.303   5.655  17.635  0.00  0.00    +0.000 N 
ATOM     30  C   UNL     1      48.938   6.452  16.577  0.00  0.00    +0.000 A 
ATOM     31  O   UNL     1      48.687   5.975  15.473  0.00  0.00    +0.000 OA
ATOM     32  C   UNL     1      48.862   7.868  16.884  0.00  0.00    +0.000 A 
ATOM     33  H   UNL     1      49.363   4.664  17.447  0.00  0.00    +0.000 HD
ENDBRANCH  20  23
ENDBRANCH  18  19
ENDBRANCH   4  18
TORSDOF 6
ENDMDL
MODEL 5
REMARK VINA RESULT:    -8.001      1.735      2.424
REMARK INTER + INTRA:         -11.681
REMARK INTER:                 -10.934
REMARK INTRA:                  -0.747
REMARK UNBOUND:                -0.874
REMARK  Name = 
REMARK  8 active torsions:
REMARK  status: ('A' for Active; 'I' for Inactive)
REMARK    1  A    between atoms: C_1  and  C_2
REMARK    2  A    between atoms: C_5  and  N_6
REMARK    3  A    between atoms: N_6  and  C_7
REMARK    4  A    between atoms: C_7  and  C_8
REMARK    5  A    between atoms: C_11  and  C_12
REMARK    6  A    between atoms: C_12  and  N_13
REMARK    7  A    between atoms: C_14  and  C_16
REMARK    8  A    between atoms: C_29  and  C_30
REMARK                            x       y       z     vdW  Elec       q    Type
REMARK                         _______ _______ _______ _____ _____    ______ ____
ROOT
ATOM      1  C   UNL     1      44.637   5.372  11.398  0.00  0.00    +0.000 A 
ATOM      2  C   UNL     1      44.941   6.704  11.120  0.00  0.00    +0.000 A 
ATOM      3  C   UNL     1      45.920   7.350  11.880  0.00  0.00    +0.000 A 
ATOM      4  C   UNL     1      46.576   6.662  12.904  0.00  0.00    +0.000 A 
ATOM      5  C   UNL     1      46.179   5.351  13.134  0.00  0.00    +0.000 A 
ATOM      6  N   UNL     1      45.245   4.696  12.406  0.00  0.00    +0.000 NA
ENDROOT
BRANCH   1   7
ATOM      7  C   UNL     1      43.603   4.620  10.568  0.00  0.00    +0.000 C 
BRANCH   7   8
ATOM      8  N   UNL     1      44.066   3.277  10.220  0.00  0.00    +0.000 N 
ATOM      9  H   UNL     1      43.331   2.581  10.275  0.00  0.00    +0.000 HD
BRANCH   8  14
ATOM     10  C   UNL     1      47.812   2.336   5.961  0.00  0.00    +0.000 C 
ATOM     11  C   UNL     1      46.817   2.571   7.066  0.00  0.00    +0.000 A 
ATOM     12  C   UNL     1      46.362   3.869   7.327  0.00  0.00    +0.000 A 
ATOM     13  C   UNL     1      45.438   4.121   8.351  0.00  0.00    +0.000 A 
ATOM     14  C   UNL     1      44.924   3.085   9.133  0.00  0.00    +0.000 A 
ATOM     15  C   UNL     1      45.420   1.793   8.892  0.00  0.00    +0.000 A 
ATOM     16  C   UNL     1      46.344   1.517   7.864  0.00  0.00    +0.000 A 
ATOM     17  C   UNL     1      46.813   0.103   7.658  0.00  0.00    +0.000 C 
ENDBRANCH   8  14
ENDBRANCH   7   8
ENDBRANCH   1   7
BRANCH   4  18
ATOM     18  C   UNL     1      47.624   7.310  13.762  0.00  0.00    +0.000 C 
BRANCH  18  19
ATOM     19  N   UNL     1      48.123   6.392  14.753  0.00  0.00    +0.000 N 
ATOM     20  C   UNL     1      48.680   6.832  15.928  0.00  0.00    +0.000 C 
ATOM     21  O   UNL     1      48.733   8.025  16.216  0.00  0.00    +0.000 OA
ATOM     22  H   UNL     1      48.311   5.443  14.446  0.00  0.00    +0.000 HD
BRANCH  20  23
ATOM     23  C   UNL     1      49.158   5.795  16.852  0.00  0.00    +0.000 A 
ATOM     24  C   UNL     1      48.244   5.028  17.560  0.00  0.00    +0.000 A 
ATOM     25  S   UNL     1      48.966   3.833  18.540  0.00  0.00    +0.000 S 
ATOM     26  C   UNL     1      50.529   4.334  18.093  0.00  0.00    +0.000 A 
ATOM     27  N   UNL     1      51.633   3.727  18.608  0.00  0.00    +0.000 NA
ATOM     28  C   UNL     1      52.753   4.228  18.207  0.00  0.00    +0.000 A 
ATOM     29  N   UNL     1      52.871   5.277  17.334  0.00  0.00    +0.000 N 
ATOM     30  C   UNL     1      51.786   5.900  16.766  0.00  0.00    +0.000 A 
ATOM     31  O   UNL     1      51.924   6.808  15.950  0.00  0.00    +0.000 OA
ATOM     32  C   UNL     1      50.500   5.384  17.194  0.00  0.00    +0.000 A 
ATOM     33  H   UNL     1      53.779   5.618  17.051  0.00  0.00    +0.000 HD
ENDBRANCH  20  23
ENDBRANCH  18  19
ENDBRANCH   4  18
TORSDOF 6
ENDMDL
MODEL 6
REMARK VINA RESULT:    -7.787      3.164      5.071
REMARK INTER + INTRA:         -11.392
REMARK INTER:                 -10.380
REMARK INTRA:                  -1.012
REMARK UNBOUND:                -0.874
REMARK  Name = 
REMARK  8 active torsions:
REMARK  status: ('A' for Active; 'I' for Inactive)
REMARK    1  A    between atoms: C_1  and  C_2
REMARK    2  A    between atoms: C_5  and  N_6
REMARK    3  A    between atoms: N_6  and  C_7
REMARK    4  A    between atoms: C_7  and  C_8
REMARK    5  A    between atoms: C_11  and  C_12
REMARK    6  A    between atoms: C_12  and  N_13
REMARK    7  A    between atoms: C_14  and  C_16
REMARK    8  A    between atoms: C_29  and  C_30
REMARK                            x       y       z     vdW  Elec       q    Type
REMARK                         _______ _______ _______ _____ _____    ______ ____
ROOT
ATOM      1  C   UNL     1      44.634   4.255  12.187  0.00  0.00    +0.000 A 
ATOM      2  C   UNL     1      44.773   5.640  12.088  0.00  0.00    +0.000 A 
ATOM      3  C   UNL     1      45.862   6.259  12.706  0.00  0.00    +0.000 A 
ATOM      4  C   UNL     1      46.790   5.493  13.415  0.00  0.00    +0.000 A 
ATOM      5  C   UNL     1      46.548   4.128  13.494  0.00  0.00    +0.000 A 
ATOM      6  N   UNL     1      45.511   3.499  12.895  0.00  0.00    +0.000 NA
ENDROOT
BRANCH   1   7
ATOM      7  C   UNL     1      43.482   3.538  11.495  0.00  0.00    +0.000 C 
BRANCH   7   8
ATOM      8  N   UNL     1      43.956   2.413  10.688  0.00  0.00    +0.000 N 
ATOM      9  H   UNL     1      43.275   1.663  10.620  0.00  0.00    +0.000 HD
BRANCH   8  14
ATOM     10  C   UNL     1      47.070   3.249   5.929  0.00  0.00    +0.000 C 
ATOM     11  C   UNL     1      46.243   3.016   7.165  0.00  0.00    +0.000 A 
ATOM     12  C   UNL     1      45.474   4.060   7.694  0.00  0.00    +0.000 A 
ATOM     13  C   UNL     1      44.696   3.875   8.845  0.00  0.00    +0.000 A 
ATOM     14  C   UNL     1      44.644   2.640   9.493  0.00  0.00    +0.000 A 
ATOM     15  C   UNL     1      45.452   1.613   8.980  0.00  0.00    +0.000 A 
ATOM     16  C   UNL     1      46.237   1.775   7.821  0.00  0.00    +0.000 A 
ATOM     17  C   UNL     1      47.062   0.618   7.325  0.00  0.00    +0.000 C 
ENDBRANCH   8  14
ENDBRANCH   7   8
ENDBRANCH   1   7
BRANCH   4  18
ATOM     18  C   UNL     1      47.970   6.106  14.113  0.00  0.00    +0.000 C 
BRANCH  18  19
ATOM     19  N   UNL     1      48.677   7.009  13.242  0.00  0.00    +0.000 N 
ATOM     20  C   UNL     1      49.737   7.760  13.687  0.00  0.00    +0.000 C 
ATOM     21  O   UNL     1      50.167   7.661  14.833  0.00  0.00    +0.000 OA
ATOM     22  H   UNL     1      48.205   7.285  12.387  0.00  0.00    +0.000 HD
BRANCH  20  23
ATOM     23  C   UNL     1      50.367   8.647  12.700  0.00  0.00    +0.000 A 
ATOM     24  C   UNL     1      51.733   8.564  12.472  0.00  0.00    +0.000 A 
ATOM     25  S   UNL     1      52.289   9.622  11.255  0.00  0.00    +0.000 S 
ATOM     26  C   UNL     1      50.731  10.268  11.028  0.00  0.00    +0.000 A 
ATOM     27  N   UNL     1      50.510  11.260  10.124  0.00  0.00    +0.000 NA
ATOM     28  C   UNL     1      49.288  11.676  10.078  0.00  0.00    +0.000 A 
ATOM     29  N   UNL     1      48.267  11.187  10.849  0.00  0.00    +0.000 N 
ATOM     30  C   UNL     1      48.438  10.166  11.752  0.00  0.00    +0.000 A 
ATOM     31  O   UNL     1      47.494   9.717  12.397  0.00  0.00    +0.000 OA
ATOM     32  C   UNL     1      49.797   9.670  11.854  0.00  0.00    +0.000 A 
ATOM     33  H   UNL     1      47.328  11.550  10.759  0.00  0.00    +0.000 HD
ENDBRANCH  20  23
ENDBRANCH  18  19
ENDBRANCH   4  18
TORSDOF 6
ENDMDL
MODEL 7
REMARK VINA RESULT:    -7.318      3.074      8.356
REMARK INTER + INTRA:         -10.759
REMARK INTER:                  -9.497
REMARK INTRA:                  -1.262
REMARK UNBOUND:                -0.874
REMARK  Name = 
REMARK  8 active torsions:
REMARK  status: ('A' for Active; 'I' for Inactive)
REMARK    1  A    between atoms: C_1  and  C_2
REMARK    2  A    between atoms: C_5  and  N_6
REMARK    3  A    between atoms: N_6  and  C_7
REMARK    4  A    between atoms: C_7  and  C_8
REMARK    5  A    between atoms: C_11  and  C_12
REMARK    6  A    between atoms: C_12  and  N_13
REMARK    7  A    between atoms: C_14  and  C_16
REMARK    8  A    between atoms: C_29  and  C_30
REMARK                            x       y       z     vdW  Elec       q    Type
REMARK                         _______ _______ _______ _____ _____    ______ ____
ROOT
ATOM      1  C   UNL     1      49.753   8.263  15.581  0.00  0.00    +0.000 A 
ATOM      2  C   UNL     1      48.428   8.687  15.483  0.00  0.00    +0.000 A 
ATOM      3  C   UNL     1      47.770   8.584  14.255  0.00  0.00    +0.000 A 
ATOM      4  C   UNL     1      48.442   8.068  13.145  0.00  0.00    +0.000 A 
ATOM      5  C   UNL     1      49.772   7.709  13.326  0.00  0.00    +0.000 A 
ATOM      6  N   UNL     1      50.430   7.784  14.506  0.00  0.00    +0.000 NA
ENDROOT
BRANCH   1   7
ATOM      7  C   UNL     1      50.494   8.323  16.911  0.00  0.00    +0.000 C 
BRANCH   7   8
ATOM      8  N   UNL     1      49.981   7.332  17.857  0.00  0.00    +0.000 N 
ATOM      9  H   UNL     1      49.029   7.525  18.151  0.00  0.00    +0.000 HD
BRANCH   8  14
ATOM     10  C   UNL     1      50.770   1.667  17.282  0.00  0.00    +0.000 C 
ATOM     11  C   UNL     1      50.558   3.151  17.412  0.00  0.00    +0.000 A 
ATOM     12  C   UNL     1      51.642   3.985  17.710  0.00  0.00    +0.000 A 
ATOM     13  C   UNL     1      51.476   5.371  17.842  0.00  0.00    +0.000 A 
ATOM     14  C   UNL     1      50.229   5.971  17.659  0.00  0.00    +0.000 A 
ATOM     15  C   UNL     1      49.141   5.121  17.404  0.00  0.00    +0.000 A 
ATOM     16  C   UNL     1      49.286   3.727  17.262  0.00  0.00    +0.000 A 
ATOM     17  C   UNL     1      48.072   2.888  16.971  0.00  0.00    +0.000 C 
ENDBRANCH   8  14
ENDBRANCH   7   8
ENDBRANCH   1   7
BRANCH   4  18
ATOM     18  C   UNL     1      47.791   7.949  11.797  0.00  0.00    +0.000 C 
BRANCH  18  19
ATOM     19  N   UNL     1      47.045   6.722  11.687  0.00  0.00    +0.000 N 
ATOM     20  C   UNL     1      45.674   6.703  11.758  0.00  0.00    +0.000 C 
ATOM     21  O   UNL     1      45.014   7.734  11.865  0.00  0.00    +0.000 OA
ATOM     22  H   UNL     1      47.556   5.859  11.840  0.00  0.00    +0.000 HD
BRANCH  20  23
ATOM     23  C   UNL     1      45.033   5.387  11.639  0.00  0.00    +0.000 A 
ATOM     24  C   UNL     1      44.366   4.844  12.728  0.00  0.00    +0.000 A 
ATOM     25  S   UNL     1      43.631   3.340  12.400  0.00  0.00    +0.000 S 
ATOM     26  C   UNL     1      44.226   3.335  10.806  0.00  0.00    +0.000 A 
ATOM     27  N   UNL     1      43.974   2.293   9.968  0.00  0.00    +0.000 NA
ATOM     28  C   UNL     1      44.511   2.407   8.799  0.00  0.00    +0.000 A 
ATOM     29  N   UNL     1      45.272   3.470   8.390  0.00  0.00    +0.000 N 
ATOM     30  C   UNL     1      45.526   4.557   9.190  0.00  0.00    +0.000 A 
ATOM     31  O   UNL     1      46.174   5.517   8.780  0.00  0.00    +0.000 OA
ATOM     32  C   UNL     1      44.956   4.474  10.522  0.00  0.00    +0.000 A 
ATOM     33  H   UNL     1      45.658   3.504   7.456  0.00  0.00    +0.000 HD
ENDBRANCH  20  23
ENDBRANCH  18  19
ENDBRANCH   4  18
TORSDOF 6
ENDMDL
MODEL 8
REMARK VINA RESULT:    -7.233      3.559      4.952
REMARK INTER + INTRA:         -10.645
REMARK INTER:                  -9.885
REMARK INTRA:                  -0.760
REMARK UNBOUND:                -0.874
REMARK  Name = 
REMARK  8 active torsions:
REMARK  status: ('A' for Active; 'I' for Inactive)
REMARK    1  A    between atoms: C_1  and  C_2
REMARK    2  A    between atoms: C_5  and  N_6
REMARK    3  A    between atoms: N_6  and  C_7
REMARK    4  A    between atoms: C_7  and  C_8
REMARK    5  A    between atoms: C_11  and  C_12
REMARK    6  A    between atoms: C_12  and  N_13
REMARK    7  A    between atoms: C_14  and  C_16
REMARK    8  A    between atoms: C_29  and  C_30
REMARK                            x       y       z     vdW  Elec       q    Type
REMARK                         _______ _______ _______ _____ _____    ______ ____
ROOT
ATOM      1  C   UNL     1      44.384   5.379  11.447  0.00  0.00    +0.000 A 
ATOM      2  C   UNL     1      44.204   6.706  11.054  0.00  0.00    +0.000 A 
ATOM      3  C   UNL     1      44.886   7.716  11.738  0.00  0.00    +0.000 A 
ATOM      4  C   UNL     1      45.730   7.390  12.802  0.00  0.00    +0.000 A 
ATOM      5  C   UNL     1      45.817   6.047  13.147  0.00  0.00    +0.000 A 
ATOM      6  N   UNL     1      45.179   5.048  12.495  0.00  0.00    +0.000 NA
ENDROOT
BRANCH   1   7
ATOM      7  C   UNL     1      43.688   4.247  10.703  0.00  0.00    +0.000 C 
BRANCH   7   8
ATOM      8  N   UNL     1      44.598   3.128  10.454  0.00  0.00    +0.000 N 
ATOM      9  H   UNL     1      44.242   2.246  10.806  0.00  0.00    +0.000 HD
BRANCH   8  14
ATOM     10  C   UNL     1      47.534   2.489   5.553  0.00  0.00    +0.000 C 
ATOM     11  C   UNL     1      46.750   2.644   6.828  0.00  0.00    +0.000 A 
ATOM     12  C   UNL     1      46.267   3.905   7.198  0.00  0.00    +0.000 A 
ATOM     13  C   UNL     1      45.537   4.082   8.382  0.00  0.00    +0.000 A 
ATOM     14  C   UNL     1      45.247   3.006   9.223  0.00  0.00    +0.000 A 
ATOM     15  C   UNL     1      45.774   1.754   8.864  0.00  0.00    +0.000 A 
ATOM     16  C   UNL     1      46.505   1.553   7.676  0.00  0.00    +0.000 A 
ATOM     17  C   UNL     1      47.019   0.175   7.355  0.00  0.00    +0.000 C 
ENDBRANCH   8  14
ENDBRANCH   7   8
ENDBRANCH   1   7
BRANCH   4  18
ATOM     18  C   UNL     1      46.476   8.434  13.583  0.00  0.00    +0.000 C 
BRANCH  18  19
ATOM     19  N   UNL     1      47.726   8.762  12.949  0.00  0.00    +0.000 N 
ATOM     20  C   UNL     1      47.835   9.806  12.064  0.00  0.00    +0.000 C 
ATOM     21  O   UNL     1      46.886  10.543  11.809  0.00  0.00    +0.000 OA
ATOM     22  H   UNL     1      48.444   8.044  12.951  0.00  0.00    +0.000 HD
BRANCH  20  23
ATOM     23  C   UNL     1      49.164  10.031  11.481  0.00  0.00    +0.000 A 
ATOM     24  C   UNL     1      49.511  11.294  11.024  0.00  0.00    +0.000 A 
ATOM     25  S   UNL     1      51.109  11.393  10.433  0.00  0.00    +0.000 S 
ATOM     26  C   UNL     1      51.374   9.737  10.717  0.00  0.00    +0.000 A 
ATOM     27  N   UNL     1      52.562   9.154  10.401  0.00  0.00    +0.000 NA
ATOM     28  C   UNL     1      52.615   7.886  10.641  0.00  0.00    +0.000 A 
ATOM     29  N   UNL     1      51.590   7.149  11.173  0.00  0.00    +0.000 N 
ATOM     30  C   UNL     1      50.385   7.700  11.535  0.00  0.00    +0.000 A 
ATOM     31  O   UNL     1      49.501   7.023  12.053  0.00  0.00    +0.000 OA
ATOM     32  C   UNL     1      50.267   9.122  11.273  0.00  0.00    +0.000 A 
ATOM     33  H   UNL     1      51.698   6.159  11.346  0.00  0.00    +0.000 HD
ENDBRANCH  20  23
ENDBRANCH  18  19
ENDBRANCH   4  18
TORSDOF 6
ENDMDL
MODEL 9
REMARK VINA RESULT:    -7.174      3.348      8.376
REMARK INTER + INTRA:         -10.565
REMARK INTER:                  -9.593
REMARK INTRA:                  -0.971
REMARK UNBOUND:                -0.874
REMARK  Name = 
REMARK  8 active torsions:
REMARK  status: ('A' for Active; 'I' for Inactive)
REMARK    1  A    between atoms: C_1  and  C_2
REMARK    2  A    between atoms: C_5  and  N_6
REMARK    3  A    between atoms: N_6  and  C_7
REMARK    4  A    between atoms: C_7  and  C_8
REMARK    5  A    between atoms: C_11  and  C_12
REMARK    6  A    between atoms: C_12  and  N_13
REMARK    7  A    between atoms: C_14  and  C_16
REMARK    8  A    between atoms: C_29  and  C_30
REMARK                            x       y       z     vdW  Elec       q    Type
REMARK                         _______ _______ _______ _____ _____    ______ ____
ROOT
ATOM      1  C   UNL     1      49.738   6.694  16.262  0.00  0.00    +0.000 A 
ATOM      2  C   UNL     1      50.600   7.444  15.462  0.00  0.00    +0.000 A 
ATOM      3  C   UNL     1      50.178   7.837  14.190  0.00  0.00    +0.000 A 
ATOM      4  C   UNL     1      48.908   7.475  13.733  0.00  0.00    +0.000 A 
ATOM      5  C   UNL     1      48.134   6.694  14.583  0.00  0.00    +0.000 A 
ATOM      6  N   UNL     1      48.512   6.311  15.824  0.00  0.00    +0.000 NA
ENDROOT
BRANCH   1   7
ATOM      7  C   UNL     1      50.146   6.279  17.670  0.00  0.00    +0.000 C 
BRANCH   7   8
ATOM      8  N   UNL     1      49.630   4.953  18.010  0.00  0.00    +0.000 N 
ATOM      9  H   UNL     1      48.690   4.795  17.660  0.00  0.00    +0.000 HD
BRANCH   8  14
ATOM     10  C   UNL     1      53.225   0.507  17.413  0.00  0.00    +0.000 C 
ATOM     11  C   UNL     1      52.285   1.669  17.590  0.00  0.00    +0.000 A 
ATOM     12  C   UNL     1      50.957   1.561  17.162  0.00  0.00    +0.000 A 
ATOM     13  C   UNL     1      50.058   2.627  17.310  0.00  0.00    +0.000 A 
ATOM     14  C   UNL     1      50.450   3.826  17.908  0.00  0.00    +0.000 A 
ATOM     15  C   UNL     1      51.796   3.940  18.292  0.00  0.00    +0.000 A 
ATOM     16  C   UNL     1      52.714   2.879  18.159  0.00  0.00    +0.000 A 
ATOM     17  C   UNL     1      54.135   3.076  18.613  0.00  0.00    +0.000 C 
ENDBRANCH   8  14
ENDBRANCH   7   8
ENDBRANCH   1   7
BRANCH   4  18
ATOM     18  C   UNL     1      48.407   7.855  12.370  0.00  0.00    +0.000 C 
BRANCH  18  19
ATOM     19  N   UNL     1      47.655   6.782  11.774  0.00  0.00    +0.000 N 
ATOM     20  C   UNL     1      46.335   6.930  11.430  0.00  0.00    +0.000 C 
ATOM     21  O   UNL     1      45.744   8.000  11.562  0.00  0.00    +0.000 OA
ATOM     22  H   UNL     1      48.033   5.845  11.876  0.00  0.00    +0.000 HD
BRANCH  20  23
ATOM     23  C   UNL     1      45.680   5.757  10.838  0.00  0.00    +0.000 A 
ATOM     24  C   UNL     1      45.781   5.525   9.474  0.00  0.00    +0.000 A 
ATOM     25  S   UNL     1      45.013   4.090   8.963  0.00  0.00    +0.000 S 
ATOM     26  C   UNL     1      44.471   3.755  10.541  0.00  0.00    +0.000 A 
ATOM     27  N   UNL     1      43.714   2.655  10.802  0.00  0.00    +0.000 NA
ATOM     28  C   UNL     1      43.348   2.540  12.035  0.00  0.00    +0.000 A 
ATOM     29  N   UNL     1      43.673   3.423  13.032  0.00  0.00    +0.000 N 
ATOM     30  C   UNL     1      44.459   4.529  12.820  0.00  0.00    +0.000 A 
ATOM     31  O   UNL     1      44.772   5.277  13.742  0.00  0.00    +0.000 OA
ATOM     32  C   UNL     1      44.888   4.713  11.447  0.00  0.00    +0.000 A 
ATOM     33  H   UNL     1      43.361   3.271  13.981  0.00  0.00    +0.000 HD
ENDBRANCH  20  23
ENDBRANCH  18  19
ENDBRANCH   4  18
TORSDOF 6
ENDMDL
