MODEL 1
REMARK VINA RESULT:    -7.207      0.000      0.000
REMARK INTER + INTRA:         -11.414
REMARK INTER:                 -10.157
REMARK INTRA:                  -1.258
REMARK UNBOUND:                -1.258
REMARK  Name = 
REMARK  8 active torsions:
REMARK  status: ('A' for Active; 'I' for Inactive)
REMARK    1  A    between atoms: C_1  and  O_2
REMARK    2  A    between atoms: O_2  and  C_3
REMARK    3  A    between atoms: C_8  and  C_9
REMARK    4  A    between atoms: N_11  and  C_12
REMARK    5  A    between atoms: C_12  and  C_13
REMARK    6  A    between atoms: C_16  and  C_17
REMARK    7  A    between atoms: C_17  and  N_18
REMARK    8  A    between atoms: C_19  and  C_21
REMARK                            x       y       z     vdW  Elec       q    Type
REMARK                         _______ _______ _______ _____ _____    ______ ____
ROOT
ATOM      1  C   UNL     1      50.355   7.515  15.232  0.00  0.00    +0.000 A 
ATOM      2  C   UNL     1      50.729   8.224  14.082  0.00  0.00    +0.000 A 
ATOM      3  C   UNL     1      49.853   8.335  12.994  0.00  0.00    +0.000 A 
ATOM      4  C   UNL     1      48.577   7.758  13.043  0.00  0.00    +0.000 A 
ATOM      5  C   UNL     1      48.205   7.052  14.195  0.00  0.00    +0.000 A 
ATOM      6  C   UNL     1      49.079   6.942  15.281  0.00  0.00    +0.000 A 
ENDROOT
BRANCH   1   7
ATOM      7  C   UNL     1      51.303   7.365  16.395  0.00  0.00    +0.000 C 
BRANCH   7  10
ATOM      8  C   UNL     1      51.233   5.219  17.591  0.00  0.00    +0.000 C 
ATOM      9  O   UNL     1      50.430   5.659  18.410  0.00  0.00    +0.000 OA
ATOM     10  N   UNL     1      51.736   6.001  16.577  0.00  0.00    +0.000 N 
ATOM     11  H   UNL     1      52.420   5.604  15.942  0.00  0.00    +0.000 HD
BRANCH   8  17
ATOM     12  C   UNL     1      50.880   2.682  17.255  0.00  0.00    +0.000 A 
ATOM     13  C   UNL     1      51.379   1.381  17.431  0.00  0.00    +0.000 A 
ATOM     14  C   UNL     1      52.637   1.164  17.997  0.00  0.00    +0.000 A 
ATOM     15  C   UNL     1      53.424   2.243  18.377  0.00  0.00    +0.000 A 
ATOM     16  C   UNL     1      52.943   3.542  18.206  0.00  0.00    +0.000 A 
ATOM     17  C   UNL     1      51.667   3.781  17.655  0.00  0.00    +0.000 A 
BRANCH  12  19
ATOM     18  C   UNL     1      48.505   2.734  17.459  0.00  0.00    +0.000 C 
ATOM     19  O   UNL     1      49.668   2.933  16.662  0.00  0.00    +0.000 OA
ENDBRANCH  12  19
ENDBRANCH   8  17
ENDBRANCH   7  10
ENDBRANCH   1   7
BRANCH   4  20
ATOM     20  C   UNL     1      47.632   7.847  11.871  0.00  0.00    +0.000 C 
BRANCH  20  21
ATOM     21  N   UNL     1      46.922   6.607  11.674  0.00  0.00    +0.000 N 
ATOM     22  C   UNL     1      45.553   6.550  11.733  0.00  0.00    +0.000 C 
ATOM     23  O   UNL     1      44.864   7.553  11.905  0.00  0.00    +0.000 OA
ATOM     24  H   UNL     1      47.458   5.752  11.780  0.00  0.00    +0.000 HD
BRANCH  22  25
ATOM     25  C   UNL     1      44.943   5.231  11.515  0.00  0.00    +0.000 A 
ATOM     26  C   UNL     1      44.229   4.622  12.539  0.00  0.00    +0.000 A 
ATOM     27  S   UNL     1      43.546   3.123  12.099  0.00  0.00    +0.000 S 
ATOM     28  C   UNL     1      44.226   3.207  10.542  0.00  0.00    +0.000 A 
ATOM     29  N   UNL     1      44.047   2.202   9.645  0.00  0.00    +0.000 NA
ATOM     30  C   UNL     1      44.646   2.382   8.515  0.00  0.00    +0.000 A 
ATOM     31  N   UNL     1      45.403   3.478   8.200  0.00  0.00    +0.000 N 
ATOM     32  C   UNL     1      45.590   4.533   9.062  0.00  0.00    +0.000 A 
ATOM     33  O   UNL     1      46.239   5.519   8.734  0.00  0.00    +0.000 OA
ATOM     34  C   UNL     1      44.948   4.374  10.355  0.00  0.00    +0.000 A 
ATOM     35  H   UNL     1      45.839   3.565   7.292  0.00  0.00    +0.000 HD
ENDBRANCH  22  25
ENDBRANCH  20  21
ENDBRANCH   4  20
TORSDOF 7
ENDMDL
MODEL 2
REMARK VINA RESULT:    -7.000      3.273      9.385
REMARK INTER + INTRA:         -11.122
REMARK INTER:                 -10.231
REMARK INTRA:                  -0.891
REMARK UNBOUND:                -1.258
REMARK  Name = 
REMARK  8 active torsions:
REMARK  status: ('A' for Active; 'I' for Inactive)
REMARK    1  A    between atoms: C_1  and  O_2
REMARK    2  A    between atoms: O_2  and  C_3
REMARK    3  A    between atoms: C_8  and  C_9
REMARK    4  A    between atoms: N_11  and  C_12
REMARK    5  A    between atoms: C_12  and  C_13
REMARK    6  A    between atoms: C_16  and  C_17
REMARK    7  A    between atoms: C_17  and  N_18
REMARK    8  A    between atoms: C_19  and  C_21
REMARK                            x       y       z     vdW  Elec       q    Type
REMARK                         _______ _______ _______ _____ _____    ______ ____
ROOT
ATOM      1  C   UNL     1      45.850   4.473  12.269  0.00  0.00    +0.000 A 
ATOM      2  C   UNL     1      45.979   5.852  12.057  0.00  0.00    +0.000 A 
ATOM      3  C   UNL     1      46.690   6.651  12.962  0.00  0.00    +0.000 A 
ATOM      4  C   UNL     1      47.304   6.083  14.087  0.00  0.00    +0.000 A 
ATOM      5  C   UNL     1      47.175   4.703  14.295  0.00  0.00    +0.000 A 
ATOM      6  C   UNL     1      46.467   3.906  13.391  0.00  0.00    +0.000 A 
ENDROOT
BRANCH   1   7
ATOM      7  C   UNL     1      45.062   3.610  11.316  0.00  0.00    +0.000 C 
BRANCH   7  10
ATOM      8  C   UNL     1      45.281   2.497   9.136  0.00  0.00    +0.000 C 
ATOM      9  O   UNL     1      44.238   1.871   9.308  0.00  0.00    +0.000 OA
ATOM     10  N   UNL     1      45.774   3.359  10.087  0.00  0.00    +0.000 N 
ATOM     11  H   UNL     1      46.655   3.832   9.914  0.00  0.00    +0.000 HD
BRANCH   8  17
ATOM     12  C   UNL     1      46.701   1.193   7.417  0.00  0.00    +0.000 A 
ATOM     13  C   UNL     1      47.433   1.219   6.218  0.00  0.00    +0.000 A 
ATOM     14  C   UNL     1      47.514   2.383   5.451  0.00  0.00    +0.000 A 
ATOM     15  C   UNL     1      46.850   3.533   5.858  0.00  0.00    +0.000 A 
ATOM     16  C   UNL     1      46.117   3.521   7.046  0.00  0.00    +0.000 A 
ATOM     17  C   UNL     1      46.039   2.362   7.845  0.00  0.00    +0.000 A 
BRANCH  12  19
ATOM     18  C   UNL     1      46.763  -1.189   7.510  0.00  0.00    +0.000 C 
ATOM     19  O   UNL     1      46.563   0.056   8.172  0.00  0.00    +0.000 OA
ENDBRANCH  12  19
ENDBRANCH   8  17
ENDBRANCH   7  10
ENDBRANCH   1   7
BRANCH   4  20
ATOM     20  C   UNL     1      48.051   6.934  15.083  0.00  0.00    +0.000 C 
BRANCH  20  21
ATOM     21  N   UNL     1      49.181   6.225  15.633  0.00  0.00    +0.000 N 
ATOM     22  C   UNL     1      49.181   5.774  16.928  0.00  0.00    +0.000 C 
ATOM     23  O   UNL     1      48.207   5.906  17.665  0.00  0.00    +0.000 OA
ATOM     24  H   UNL     1      50.065   6.324  15.144  0.00  0.00    +0.000 HD
BRANCH  22  25
ATOM     25  C   UNL     1      50.389   5.065  17.375  0.00  0.00    +0.000 A 
ATOM     26  C   UNL     1      51.460   5.783  17.891  0.00  0.00    +0.000 A 
ATOM     27  S   UNL     1      52.755   4.801  18.408  0.00  0.00    +0.000 S 
ATOM     28  C   UNL     1      51.953   3.386  17.909  0.00  0.00    +0.000 A 
ATOM     29  N   UNL     1      52.538   2.166  18.044  0.00  0.00    +0.000 NA
ATOM     30  C   UNL     1      51.832   1.184  17.593  0.00  0.00    +0.000 A 
ATOM     31  N   UNL     1      50.592   1.309  17.027  0.00  0.00    +0.000 N 
ATOM     32  C   UNL     1      49.947   2.516  16.896  0.00  0.00    +0.000 A 
ATOM     33  O   UNL     1      48.819   2.590  16.422  0.00  0.00    +0.000 OA
ATOM     34  C   UNL     1      50.705   3.658  17.374  0.00  0.00    +0.000 A 
ATOM     35  H   UNL     1      50.084   0.497  16.702  0.00  0.00    +0.000 HD
ENDBRANCH  22  25
ENDBRANCH  20  21
ENDBRANCH   4  20
TORSDOF 7
ENDMDL
MODEL 3
REMARK VINA RESULT:    -6.909      3.669      9.577
REMARK INTER + INTRA:         -10.993
REMARK INTER:                 -10.304
REMARK INTRA:                  -0.689
REMARK UNBOUND:                -1.258
REMARK  Name = 
REMARK  8 active torsions:
REMARK  status: ('A' for Active; 'I' for Inactive)
REMARK    1  A    between atoms: C_1  and  O_2
REMARK    2  A    between atoms: O_2  and  C_3
REMARK    3  A    between atoms: C_8  and  C_9
REMARK    4  A    between atoms: N_11  and  C_12
REMARK    5  A    between atoms: C_12  and  C_13
REMARK    6  A    between atoms: C_16  and  C_17
REMARK    7  A    between atoms: C_17  and  N_18
REMARK    8  A    between atoms: C_19  and  C_21
REMARK                            x       y       z     vdW  Elec       q    Type
REMARK                         _______ _______ _______ _____ _____    ______ ____
ROOT
ATOM      1  C   UNL     1      45.774   5.369  11.467  0.00  0.00    +0.000 A 
ATOM      2  C   UNL     1      46.381   6.556  11.035  0.00  0.00    +0.000 A 
ATOM      3  C   UNL     1      47.168   7.317  11.910  0.00  0.00    +0.000 A 
ATOM      4  C   UNL     1      47.381   6.893  13.229  0.00  0.00    +0.000 A 
ATOM      5  C   UNL     1      46.776   5.704  13.657  0.00  0.00    +0.000 A 
ATOM      6  C   UNL     1      45.991   4.945  12.784  0.00  0.00    +0.000 A 
ENDROOT
BRANCH   1   7
ATOM      7  C   UNL     1      44.902   4.561  10.541  0.00  0.00    +0.000 C 
BRANCH   7  10
ATOM      8  C   UNL     1      45.515   2.874   8.862  0.00  0.00    +0.000 C 
ATOM      9  O   UNL     1      44.885   2.001   9.453  0.00  0.00    +0.000 OA
ATOM     10  N   UNL     1      45.598   4.159   9.342  0.00  0.00    +0.000 N 
ATOM     11  H   UNL     1      46.155   4.839   8.836  0.00  0.00    +0.000 HD
BRANCH   8  17
ATOM     12  C   UNL     1      46.755   1.313   7.217  0.00  0.00    +0.000 A 
ATOM     13  C   UNL     1      47.425   1.172   5.991  0.00  0.00    +0.000 A 
ATOM     14  C   UNL     1      47.546   2.250   5.111  0.00  0.00    +0.000 A 
ATOM     15  C   UNL     1      46.984   3.478   5.433  0.00  0.00    +0.000 A 
ATOM     16  C   UNL     1      46.313   3.632   6.647  0.00  0.00    +0.000 A 
ATOM     17  C   UNL     1      46.196   2.562   7.558  0.00  0.00    +0.000 A 
BRANCH  12  19
ATOM     18  C   UNL     1      46.772  -1.046   7.565  0.00  0.00    +0.000 C 
ATOM     19  O   UNL     1      46.577   0.265   8.085  0.00  0.00    +0.000 OA
ENDBRANCH  12  19
ENDBRANCH   8  17
ENDBRANCH   7  10
ENDBRANCH   1   7
BRANCH   4  20
ATOM     20  C   UNL     1      48.205   7.713  14.190  0.00  0.00    +0.000 C 
BRANCH  20  21
ATOM     21  N   UNL     1      48.070   7.228  15.542  0.00  0.00    +0.000 N 
ATOM     22  C   UNL     1      49.094   6.566  16.170  0.00  0.00    +0.000 C 
ATOM     23  O   UNL     1      50.187   6.397  15.635  0.00  0.00    +0.000 OA
ATOM     24  H   UNL     1      47.126   7.134  15.901  0.00  0.00    +0.000 HD
BRANCH  22  25
ATOM     25  C   UNL     1      48.838   6.121  17.547  0.00  0.00    +0.000 A 
ATOM     26  C   UNL     1      49.082   4.802  17.903  0.00  0.00    +0.000 A 
ATOM     27  S   UNL     1      48.782   4.470  19.549  0.00  0.00    +0.000 S 
ATOM     28  C   UNL     1      48.261   6.065  19.831  0.00  0.00    +0.000 A 
ATOM     29  N   UNL     1      47.827   6.452  21.060  0.00  0.00    +0.000 NA
ATOM     30  C   UNL     1      47.431   7.679  21.123  0.00  0.00    +0.000 A 
ATOM     31  N   UNL     1      47.434   8.555  20.072  0.00  0.00    +0.000 N 
ATOM     32  C   UNL     1      47.891   8.221  18.819  0.00  0.00    +0.000 A 
ATOM     33  O   UNL     1      47.920   9.041  17.909  0.00  0.00    +0.000 OA
ATOM     34  C   UNL     1      48.335   6.844  18.689  0.00  0.00    +0.000 A 
ATOM     35  H   UNL     1      47.120   9.509  20.189  0.00  0.00    +0.000 HD
ENDBRANCH  22  25
ENDBRANCH  20  21
ENDBRANCH   4  20
TORSDOF 7
ENDMDL
MODEL 4
REMARK VINA RESULT:    -6.855      2.874      8.864
REMARK INTER + INTRA:         -10.918
REMARK INTER:                  -9.788
REMARK INTRA:                  -1.130
REMARK UNBOUND:                -1.258
REMARK  Name = 
REMARK  8 active torsions:
REMARK  status: ('A' for Active; 'I' for Inactive)
REMARK    1  A    between atoms: C_1  and  O_2
REMARK    2  A    between atoms: O_2  and  C_3
REMARK    3  A    between atoms: C_8  and  C_9
REMARK    4  A    between atoms: N_11  and  C_12
REMARK    5  A    between atoms: C_12  and  C_13
REMARK    6  A    between atoms: C_16  and  C_17
REMARK    7  A    between atoms: C_17  and  N_18
REMARK    8  A    between atoms: C_19  and  C_21
REMARK                            x       y       z     vdW  Elec       q    Type
REMARK                         _______ _______ _______ _____ _____    ______ ____
ROOT
ATOM      1  C   UNL     1      47.920   7.757  13.369  0.00  0.00    +0.000 A 
ATOM      2  C   UNL     1      48.138   6.533  14.016  0.00  0.00    +0.000 A 
ATOM      3  C   UNL     1      48.534   6.495  15.360  0.00  0.00    +0.000 A 
ATOM      4  C   UNL     1      48.699   7.681  16.088  0.00  0.00    +0.000 A 
ATOM      5  C   UNL     1      48.476   8.902  15.440  0.00  0.00    +0.000 A 
ATOM      6  C   UNL     1      48.081   8.940  14.100  0.00  0.00    +0.000 A 
ENDROOT
BRANCH   1   7
ATOM      7  C   UNL     1      47.522   7.807  11.916  0.00  0.00    +0.000 C 
BRANCH   7  10
ATOM      8  C   UNL     1      45.660   6.390  11.163  0.00  0.00    +0.000 C 
ATOM      9  O   UNL     1      44.850   7.297  11.338  0.00  0.00    +0.000 OA
ATOM     10  N   UNL     1      46.996   6.548  11.447  0.00  0.00    +0.000 N 
ATOM     11  H   UNL     1      47.623   5.761  11.316  0.00  0.00    +0.000 HD
BRANCH   8  17
ATOM     12  C   UNL     1      44.669   4.011  11.345  0.00  0.00    +0.000 A 
ATOM     13  C   UNL     1      44.351   2.806  10.699  0.00  0.00    +0.000 A 
ATOM     14  C   UNL     1      44.564   2.648   9.328  0.00  0.00    +0.000 A 
ATOM     15  C   UNL     1      45.079   3.696   8.578  0.00  0.00    +0.000 A 
ATOM     16  C   UNL     1      45.399   4.901   9.206  0.00  0.00    +0.000 A 
ATOM     17  C   UNL     1      45.209   5.074  10.593  0.00  0.00    +0.000 A 
BRANCH  12  19
ATOM     18  C   UNL     1      43.130   4.666  13.044  0.00  0.00    +0.000 C 
ATOM     19  O   UNL     1      44.431   4.217  12.681  0.00  0.00    +0.000 OA
ENDBRANCH  12  19
ENDBRANCH   8  17
ENDBRANCH   7  10
ENDBRANCH   1   7
BRANCH   4  20
ATOM     20  C   UNL     1      49.149   7.658  17.528  0.00  0.00    +0.000 C 
BRANCH  20  21
ATOM     21  N   UNL     1      50.189   6.680  17.737  0.00  0.00    +0.000 N 
ATOM     22  C   UNL     1      50.031   5.647  18.624  0.00  0.00    +0.000 C 
ATOM     23  O   UNL     1      48.986   5.474  19.246  0.00  0.00    +0.000 OA
ATOM     24  H   UNL     1      51.124   6.936  17.436  0.00  0.00    +0.000 HD
BRANCH  22  25
ATOM     25  C   UNL     1      51.160   4.713  18.750  0.00  0.00    +0.000 A 
ATOM     26  C   UNL     1      52.278   5.077  19.488  0.00  0.00    +0.000 A 
ATOM     27  S   UNL     1      53.468   3.858  19.573  0.00  0.00    +0.000 S 
ATOM     28  C   UNL     1      52.555   2.822  18.579  0.00  0.00    +0.000 A 
ATOM     29  N   UNL     1      53.025   1.596  18.228  0.00  0.00    +0.000 NA
ATOM     30  C   UNL     1      52.245   0.930  17.444  0.00  0.00    +0.000 A 
ATOM     31  N   UNL     1      51.035   1.376  16.985  0.00  0.00    +0.000 N 
ATOM     32  C   UNL     1      50.504   2.594  17.335  0.00  0.00    +0.000 A 
ATOM     33  O   UNL     1      49.399   2.947  16.940  0.00  0.00    +0.000 OA
ATOM     34  C   UNL     1      51.350   3.392  18.205  0.00  0.00    +0.000 A 
ATOM     35  H   UNL     1      50.465   0.800  16.380  0.00  0.00    +0.000 HD
ENDBRANCH  22  25
ENDBRANCH  20  21
ENDBRANCH   4  20
TORSDOF 7
ENDMDL
MODEL 5
REMARK VINA RESULT:    -6.851      1.378      1.982
REMARK INTER + INTRA:         -10.912
REMARK INTER:                  -9.792
REMARK INTRA:                  -1.120
REMARK UNBOUND:                -1.258
REMARK  Name = 
REMARK  8 active torsions:
REMARK  status: ('A' for Active; 'I' for Inactive)
REMARK    1  A    between atoms: C_1  and  O_2
REMARK    2  A    between atoms: O_2  and  C_3
REMARK    3  A    between atoms: C_8  and  C_9
REMARK    4  A    between atoms: N_11  and  C_12
REMARK    5  A    between atoms: C_12  and  C_13
REMARK    6  A    between atoms: C_16  and  C_17
REMARK    7  A    between atoms: C_17  and  N_18
REMARK    8  A    between atoms: C_19  and  C_21
REMARK                            x       y       z     vdW  Elec       q    Type
REMARK                         _______ _______ _______ _____ _____    ______ ____
ROOT
ATOM      1  C   UNL     1      50.124   7.080  15.780  0.00  0.00    +0.000 A 
ATOM      2  C   UNL     1      50.810   7.850  14.830  0.00  0.00    +0.000 A 
ATOM      3  C   UNL     1      50.211   8.177  13.607  0.00  0.00    +0.000 A 
ATOM      4  C   UNL     1      48.905   7.760  13.318  0.00  0.00    +0.000 A 
ATOM      5  C   UNL     1      48.220   6.994  14.270  0.00  0.00    +0.000 A 
ATOM      6  C   UNL     1      48.817   6.667  15.490  0.00  0.00    +0.000 A 
ENDROOT
BRANCH   1   7
ATOM      7  C   UNL     1      50.772   6.698  17.086  0.00  0.00    +0.000 C 
BRANCH   7  10
ATOM      8  C   UNL     1      51.599   4.666  18.194  0.00  0.00    +0.000 C 
ATOM      9  O   UNL     1      51.375   5.135  19.306  0.00  0.00    +0.000 OA
ATOM     10  N   UNL     1      51.356   5.379  17.043  0.00  0.00    +0.000 N 
ATOM     11  H   UNL     1      51.585   4.962  16.148  0.00  0.00    +0.000 HD
BRANCH   8  17
ATOM     12  C   UNL     1      51.462   2.217  17.380  0.00  0.00    +0.000 A 
ATOM     13  C   UNL     1      52.028   0.932  17.384  0.00  0.00    +0.000 A 
ATOM     14  C   UNL     1      53.230   0.678  18.049  0.00  0.00    +0.000 A 
ATOM     15  C   UNL     1      53.895   1.707  18.702  0.00  0.00    +0.000 A 
ATOM     16  C   UNL     1      53.345   2.991  18.705  0.00  0.00    +0.000 A 
ATOM     17  C   UNL     1      52.123   3.263  18.057  0.00  0.00    +0.000 A 
BRANCH  12  19
ATOM     18  C   UNL     1      49.096   2.503  17.450  0.00  0.00    +0.000 C 
ATOM     19  O   UNL     1      50.307   2.513  16.701  0.00  0.00    +0.000 OA
ENDBRANCH  12  19
ENDBRANCH   8  17
ENDBRANCH   7  10
ENDBRANCH   1   7
BRANCH   4  20
ATOM     20  C   UNL     1      48.255   8.084  11.995  0.00  0.00    +0.000 C 
BRANCH  20  21
ATOM     21  N   UNL     1      47.563   6.938  11.457  0.00  0.00    +0.000 N 
ATOM     22  C   UNL     1      46.202   6.939  11.290  0.00  0.00    +0.000 C 
ATOM     23  O   UNL     1      45.514   7.925  11.542  0.00  0.00    +0.000 OA
ATOM     24  H   UNL     1      48.058   6.053  11.479  0.00  0.00    +0.000 HD
BRANCH  22  25
ATOM     25  C   UNL     1      45.610   5.715  10.732  0.00  0.00    +0.000 A 
ATOM     26  C   UNL     1      45.768   5.424   9.384  0.00  0.00    +0.000 A 
ATOM     27  S   UNL     1      45.064   3.942   8.918  0.00  0.00    +0.000 S 
ATOM     28  C   UNL     1      44.475   3.663  10.490  0.00  0.00    +0.000 A 
ATOM     29  N   UNL     1      43.742   2.555  10.776  0.00  0.00    +0.000 NA
ATOM     30  C   UNL     1      43.332   2.489  11.998  0.00  0.00    +0.000 A 
ATOM     31  N   UNL     1      43.594   3.426  12.961  0.00  0.00    +0.000 N 
ATOM     32  C   UNL     1      44.355   4.547  12.728  0.00  0.00    +0.000 A 
ATOM     33  O   UNL     1      44.606   5.346  13.623  0.00  0.00    +0.000 OA
ATOM     34  C   UNL     1      44.829   4.679  11.362  0.00  0.00    +0.000 A 
ATOM     35  H   UNL     1      43.252   3.310  13.906  0.00  0.00    +0.000 HD
ENDBRANCH  22  25
ENDBRANCH  20  21
ENDBRANCH   4  20
TORSDOF 7
ENDMDL
MODEL 6
REMARK VINA RESULT:    -6.732      3.377      9.190
REMARK INTER + INTRA:         -10.745
REMARK INTER:                  -9.932
REMARK INTRA:                  -0.813
REMARK UNBOUND:                -1.258
REMARK  Name = 
REMARK  8 active torsions:
REMARK  status: ('A' for Active; 'I' for Inactive)
REMARK    1  A    between atoms: C_1  and  O_2
REMARK    2  A    between atoms: O_2  and  C_3
REMARK    3  A    between atoms: C_8  and  C_9
REMARK    4  A    between atoms: N_11  and  C_12
REMARK    5  A    between atoms: C_12  and  C_13
REMARK    6  A    between atoms: C_16  and  C_17
REMARK    7  A    between atoms: C_17  and  N_18
REMARK    8  A    between atoms: C_19  and  C_21
REMARK                            x       y       z     vdW  Elec       q    Type
REMARK                         _______ _______ _______ _____ _____    ______ ____
ROOT
ATOM      1  C   UNL     1      45.330   5.370  11.143  0.00  0.00    +0.000 A 
ATOM      2  C   UNL     1      46.373   6.153  10.631  0.00  0.00    +0.000 A 
ATOM      3  C   UNL     1      47.010   7.109  11.433  0.00  0.00    +0.000 A 
ATOM      4  C   UNL     1      46.631   7.285  12.770  0.00  0.00    +0.000 A 
ATOM      5  C   UNL     1      45.590   6.498  13.281  0.00  0.00    +0.000 A 
ATOM      6  C   UNL     1      44.955   5.544  12.481  0.00  0.00    +0.000 A 
ENDROOT
BRANCH   1   7
ATOM      7  C   UNL     1      44.619   4.360  10.278  0.00  0.00    +0.000 C 
BRANCH   7  10
ATOM      8  C   UNL     1      45.383   2.677   8.658  0.00  0.00    +0.000 C 
ATOM      9  O   UNL     1      44.729   1.795   9.209  0.00  0.00    +0.000 OA
ATOM     10  N   UNL     1      45.406   3.966   9.135  0.00  0.00    +0.000 N 
ATOM     11  H   UNL     1      45.985   4.655   8.665  0.00  0.00    +0.000 HD
BRANCH   8  17
ATOM     12  C   UNL     1      46.844   1.164   7.157  0.00  0.00    +0.000 A 
ATOM     13  C   UNL     1      47.591   1.032   5.976  0.00  0.00    +0.000 A 
ATOM     14  C   UNL     1      47.668   2.077   5.053  0.00  0.00    +0.000 A 
ATOM     15  C   UNL     1      46.984   3.263   5.286  0.00  0.00    +0.000 A 
ATOM     16  C   UNL     1      46.235   3.408   6.455  0.00  0.00    +0.000 A 
ATOM     17  C   UNL     1      46.160   2.372   7.408  0.00  0.00    +0.000 A 
BRANCH  12  19
ATOM     18  C   UNL     1      46.752  -1.185   7.552  0.00  0.00    +0.000 C 
ATOM     19  O   UNL     1      46.709   0.143   8.064  0.00  0.00    +0.000 OA
ENDBRANCH  12  19
ENDBRANCH   8  17
ENDBRANCH   7  10
ENDBRANCH   1   7
BRANCH   4  20
ATOM     20  C   UNL     1      47.290   8.327  13.640  0.00  0.00    +0.000 C 
BRANCH  20  21
ATOM     21  N   UNL     1      47.656   7.782  14.924  0.00  0.00    +0.000 N 
ATOM     22  C   UNL     1      48.878   8.045  15.491  0.00  0.00    +0.000 C 
ATOM     23  O   UNL     1      49.696   8.792  14.960  0.00  0.00    +0.000 OA
ATOM     24  H   UNL     1      47.120   6.986  15.253  0.00  0.00    +0.000 HD
BRANCH  22  25
ATOM     25  C   UNL     1      49.136   7.435  16.803  0.00  0.00    +0.000 A 
ATOM     26  C   UNL     1      49.713   8.190  17.814  0.00  0.00    +0.000 A 
ATOM     27  S   UNL     1      49.892   7.343  19.283  0.00  0.00    +0.000 S 
ATOM     28  C   UNL     1      49.256   5.919  18.603  0.00  0.00    +0.000 A 
ATOM     29  N   UNL     1      49.156   4.778  19.335  0.00  0.00    +0.000 NA
ATOM     30  C   UNL     1      48.687   3.767  18.684  0.00  0.00    +0.000 A 
ATOM     31  N   UNL     1      48.303   3.794  17.371  0.00  0.00    +0.000 N 
ATOM     32  C   UNL     1      48.357   4.930  16.598  0.00  0.00    +0.000 A 
ATOM     33  O   UNL     1      47.967   4.931  15.436  0.00  0.00    +0.000 OA
ATOM     34  C   UNL     1      48.893   6.095  17.279  0.00  0.00    +0.000 A 
ATOM     35  H   UNL     1      47.933   2.968  16.920  0.00  0.00    +0.000 HD
ENDBRANCH  22  25
ENDBRANCH  20  21
ENDBRANCH   4  20
TORSDOF 7
ENDMDL
MODEL 7
REMARK VINA RESULT:    -6.332      3.828      9.566
REMARK INTER + INTRA:         -10.181
REMARK INTER:                  -9.270
REMARK INTRA:                  -0.911
REMARK UNBOUND:                -1.258
REMARK  Name = 
REMARK  8 active torsions:
REMARK  status: ('A' for Active; 'I' for Inactive)
REMARK    1  A    between atoms: C_1  and  O_2
REMARK    2  A    between atoms: O_2  and  C_3
REMARK    3  A    between atoms: C_8  and  C_9
REMARK    4  A    between atoms: N_11  and  C_12
REMARK    5  A    between atoms: C_12  and  C_13
REMARK    6  A    between atoms: C_16  and  C_17
REMARK    7  A    between atoms: C_17  and  N_18
REMARK    8  A    between atoms: C_19  and  C_21
REMARK                            x       y       z     vdW  Elec       q    Type
REMARK                         _______ _______ _______ _____ _____    ______ ____
ROOT
ATOM      1  C   UNL     1      45.410   4.413  12.046  0.00  0.00    +0.000 A 
ATOM      2  C   UNL     1      45.593   5.571  12.815  0.00  0.00    +0.000 A 
ATOM      3  C   UNL     1      46.311   5.525  14.017  0.00  0.00    +0.000 A 
ATOM      4  C   UNL     1      46.880   4.324  14.463  0.00  0.00    +0.000 A 
ATOM      5  C   UNL     1      46.699   3.170  13.691  0.00  0.00    +0.000 A 
ATOM      6  C   UNL     1      45.982   3.215  12.491  0.00  0.00    +0.000 A 
ENDROOT
BRANCH   1   7
ATOM      7  C   UNL     1      44.613   4.448  10.767  0.00  0.00    +0.000 C 
BRANCH   7  10
ATOM      8  C   UNL     1      45.257   2.915   8.957  0.00  0.00    +0.000 C 
ATOM      9  O   UNL     1      44.466   2.060   9.348  0.00  0.00    +0.000 OA
ATOM     10  N   UNL     1      45.412   4.113   9.613  0.00  0.00    +0.000 N 
ATOM     11  H   UNL     1      46.099   4.777   9.272  0.00  0.00    +0.000 HD
BRANCH   8  17
ATOM     12  C   UNL     1      46.715   1.476   7.382  0.00  0.00    +0.000 A 
ATOM     13  C   UNL     1      47.496   1.412   6.217  0.00  0.00    +0.000 A 
ATOM     14  C   UNL     1      47.637   2.525   5.385  0.00  0.00    +0.000 A 
ATOM     15  C   UNL     1      46.985   3.712   5.693  0.00  0.00    +0.000 A 
ATOM     16  C   UNL     1      46.204   3.790   6.846  0.00  0.00    +0.000 A 
ATOM     17  C   UNL     1      46.064   2.684   7.710  0.00  0.00    +0.000 A 
BRANCH  12  19
ATOM     18  C   UNL     1      46.688  -0.896   7.615  0.00  0.00    +0.000 C 
ATOM     19  O   UNL     1      46.517   0.391   8.199  0.00  0.00    +0.000 OA
ENDBRANCH  12  19
ENDBRANCH   8  17
ENDBRANCH   7  10
ENDBRANCH   1   7
BRANCH   4  20
ATOM     20  C   UNL     1      47.635   4.253  15.767  0.00  0.00    +0.000 C 
BRANCH  20  21
ATOM     21  N   UNL     1      47.581   5.510  16.473  0.00  0.00    +0.000 N 
ATOM     22  C   UNL     1      48.324   5.727  17.605  0.00  0.00    +0.000 C 
ATOM     23  O   UNL     1      49.105   4.886  18.045  0.00  0.00    +0.000 OA
ATOM     24  H   UNL     1      46.782   6.107  16.283  0.00  0.00    +0.000 HD
BRANCH  22  25
ATOM     25  C   UNL     1      48.186   7.048  18.236  0.00  0.00    +0.000 A 
ATOM     26  C   UNL     1      47.902   7.139  19.592  0.00  0.00    +0.000 A 
ATOM     27  S   UNL     1      47.828   8.742  20.169  0.00  0.00    +0.000 S 
ATOM     28  C   UNL     1      48.118   9.372  18.615  0.00  0.00    +0.000 A 
ATOM     29  N   UNL     1      48.154  10.714  18.400  0.00  0.00    +0.000 NA
ATOM     30  C   UNL     1      48.349  11.052  17.169  0.00  0.00    +0.000 A 
ATOM     31  N   UNL     1      48.519  10.170  16.136  0.00  0.00    +0.000 N 
ATOM     32  C   UNL     1      48.521   8.806  16.307  0.00  0.00    +0.000 A 
ATOM     33  O   UNL     1      48.717   8.044  15.368  0.00  0.00    +0.000 OA
ATOM     34  C   UNL     1      48.289   8.372  17.673  0.00  0.00    +0.000 A 
ATOM     35  H   UNL     1      48.679  10.499  15.193  0.00  0.00    +0.000 HD
ENDBRANCH  22  25
ENDBRANCH  20  21
ENDBRANCH   4  20
TORSDOF 7
ENDMDL
MODEL 8
REMARK VINA RESULT:    -6.296      2.540      3.023
REMARK INTER + INTRA:         -10.130
REMARK INTER:                  -8.685
REMARK INTRA:                  -1.445
REMARK UNBOUND:                -1.258
REMARK  Name = 
REMARK  8 active torsions:
REMARK  status: ('A' for Active; 'I' for Inactive)
REMARK    1  A    between atoms: C_1  and  O_2
REMARK    2  A    between atoms: O_2  and  C_3
REMARK    3  A    between atoms: C_8  and  C_9
REMARK    4  A    between atoms: N_11  and  C_12
REMARK    5  A    between atoms: C_12  and  C_13
REMARK    6  A    between atoms: C_16  and  C_17
REMARK    7  A    between atoms: C_17  and  N_18
REMARK    8  A    between atoms: C_19  and  C_21
REMARK                            x       y       z     vdW  Elec       q    Type
REMARK                         _______ _______ _______ _____ _____    ______ ____
ROOT
ATOM      1  C   UNL     1      50.415   7.666  15.186  0.00  0.00    +0.000 A 
ATOM      2  C   UNL     1      49.236   6.907  15.184  0.00  0.00    +0.000 A 
ATOM      3  C   UNL     1      48.365   6.941  14.088  0.00  0.00    +0.000 A 
ATOM      4  C   UNL     1      48.666   7.719  12.961  0.00  0.00    +0.000 A 
ATOM      5  C   UNL     1      49.847   8.474  12.964  0.00  0.00    +0.000 A 
ATOM      6  C   UNL     1      50.716   8.439  14.058  0.00  0.00    +0.000 A 
ENDROOT
BRANCH   1   7
ATOM      7  C   UNL     1      51.343   7.658  16.374  0.00  0.00    +0.000 C 
BRANCH   7  10
ATOM      8  C   UNL     1      50.268   7.808  18.579  0.00  0.00    +0.000 C 
ATOM      9  O   UNL     1      50.375   9.032  18.590  0.00  0.00    +0.000 OA
ATOM     10  N   UNL     1      50.742   7.048  17.535  0.00  0.00    +0.000 N 
ATOM     11  H   UNL     1      50.658   6.039  17.583  0.00  0.00    +0.000 HD
BRANCH   8  17
ATOM     12  C   UNL     1      48.397   6.333  19.578  0.00  0.00    +0.000 A 
ATOM     13  C   UNL     1      47.809   5.778  20.727  0.00  0.00    +0.000 A 
ATOM     14  C   UNL     1      48.371   5.979  21.990  0.00  0.00    +0.000 A 
ATOM     15  C   UNL     1      49.538   6.719  22.123  0.00  0.00    +0.000 A 
ATOM     16  C   UNL     1      50.135   7.274  20.990  0.00  0.00    +0.000 A 
ATOM     17  C   UNL     1      49.573   7.100  19.709  0.00  0.00    +0.000 A 
BRANCH  12  19
ATOM     18  C   UNL     1      47.304   4.851  18.064  0.00  0.00    +0.000 C 
ATOM     19  O   UNL     1      47.898   6.119  18.318  0.00  0.00    +0.000 OA
ENDBRANCH  12  19
ENDBRANCH   8  17
ENDBRANCH   7  10
ENDBRANCH   1   7
BRANCH   4  20
ATOM     20  C   UNL     1      47.726   7.786  11.783  0.00  0.00    +0.000 C 
BRANCH  20  21
ATOM     21  N   UNL     1      46.994   6.553  11.626  0.00  0.00    +0.000 N 
ATOM     22  C   UNL     1      45.623   6.535  11.594  0.00  0.00    +0.000 C 
ATOM     23  O   UNL     1      44.955   7.564  11.647  0.00  0.00    +0.000 OA
ATOM     24  H   UNL     1      47.496   5.694  11.830  0.00  0.00    +0.000 HD
BRANCH  22  25
ATOM     25  C   UNL     1      44.990   5.218  11.429  0.00  0.00    +0.000 A 
ATOM     26  C   UNL     1      44.294   4.650  12.488  0.00  0.00    +0.000 A 
ATOM     27  S   UNL     1      43.579   3.149  12.108  0.00  0.00    +0.000 S 
ATOM     28  C   UNL     1      44.221   3.179  10.533  0.00  0.00    +0.000 A 
ATOM     29  N   UNL     1      44.005   2.152   9.669  0.00  0.00    +0.000 NA
ATOM     30  C   UNL     1      44.578   2.291   8.521  0.00  0.00    +0.000 A 
ATOM     31  N   UNL     1      45.342   3.367   8.156  0.00  0.00    +0.000 N 
ATOM     32  C   UNL     1      45.565   4.443   8.982  0.00  0.00    +0.000 A 
ATOM     33  O   UNL     1      46.220   5.409   8.610  0.00  0.00    +0.000 OA
ATOM     34  C   UNL     1      44.954   4.330  10.294  0.00  0.00    +0.000 A 
ATOM     35  H   UNL     1      45.756   3.421   7.235  0.00  0.00    +0.000 HD
ENDBRANCH  22  25
ENDBRANCH  20  21
ENDBRANCH   4  20
TORSDOF 7
ENDMDL
MODEL 9
REMARK VINA RESULT:    -6.230      4.862      9.553
REMARK INTER + INTRA:         -10.037
REMARK INTER:                  -8.456
REMARK INTRA:                  -1.581
REMARK UNBOUND:                -1.258
REMARK  Name = 
REMARK  8 active torsions:
REMARK  status: ('A' for Active; 'I' for Inactive)
REMARK    1  A    between atoms: C_1  and  O_2
REMARK    2  A    between atoms: O_2  and  C_3
REMARK    3  A    between atoms: C_8  and  C_9
REMARK    4  A    between atoms: N_11  and  C_12
REMARK    5  A    between atoms: C_12  and  C_13
REMARK    6  A    between atoms: C_16  and  C_17
REMARK    7  A    between atoms: C_17  and  N_18
REMARK    8  A    between atoms: C_19  and  C_21
REMARK                            x       y       z     vdW  Elec       q    Type
REMARK                         _______ _______ _______ _____ _____    ______ ____
ROOT
ATOM      1  C   UNL     1      48.045   4.028  16.861  0.00  0.00    +0.000 A 
ATOM      2  C   UNL     1      47.071   4.676  17.633  0.00  0.00    +0.000 A 
ATOM      3  C   UNL     1      47.416   5.312  18.832  0.00  0.00    +0.000 A 
ATOM      4  C   UNL     1      48.746   5.331  19.274  0.00  0.00    +0.000 A 
ATOM      5  C   UNL     1      49.718   4.686  18.499  0.00  0.00    +0.000 A 
ATOM      6  C   UNL     1      49.374   4.051  17.302  0.00  0.00    +0.000 A 
ENDROOT
BRANCH   1   7
ATOM      7  C   UNL     1      47.678   3.315  15.585  0.00  0.00    +0.000 C 
BRANCH   7  10
ATOM      8  C   UNL     1      47.004   5.003  13.930  0.00  0.00    +0.000 C 
ATOM      9  O   UNL     1      48.169   5.352  13.756  0.00  0.00    +0.000 OA
ATOM     10  N   UNL     1      46.669   4.022  14.833  0.00  0.00    +0.000 N 
ATOM     11  H   UNL     1      45.691   3.787  14.965  0.00  0.00    +0.000 HD
BRANCH   8  17
ATOM     12  C   UNL     1      44.784   4.930  12.610  0.00  0.00    +0.000 A 
ATOM     13  C   UNL     1      43.856   5.617  11.811  0.00  0.00    +0.000 A 
ATOM     14  C   UNL     1      44.025   6.971  11.515  0.00  0.00    +0.000 A 
ATOM     15  C   UNL     1      45.112   7.665  12.029  0.00  0.00    +0.000 A 
ATOM     16  C   UNL     1      46.042   6.997  12.828  0.00  0.00    +0.000 A 
ATOM     17  C   UNL     1      45.899   5.625  13.121  0.00  0.00    +0.000 A 
BRANCH  12  19
ATOM     18  C   UNL     1      43.615   2.880  12.273  0.00  0.00    +0.000 C 
ATOM     19  O   UNL     1      44.626   3.612  12.958  0.00  0.00    +0.000 OA
ENDBRANCH  12  19
ENDBRANCH   8  17
ENDBRANCH   7  10
ENDBRANCH   1   7
BRANCH   4  20
ATOM     20  C   UNL     1      49.129   5.991  20.575  0.00  0.00    +0.000 C 
BRANCH  20  21
ATOM     21  N   UNL     1      48.959   7.422  20.507  0.00  0.00    +0.000 N 
ATOM     22  C   UNL     1      47.952   8.056  21.189  0.00  0.00    +0.000 C 
ATOM     23  O   UNL     1      47.180   7.448  21.926  0.00  0.00    +0.000 OA
ATOM     24  H   UNL     1      49.410   7.899  19.733  0.00  0.00    +0.000 HD
BRANCH  22  25
ATOM     25  C   UNL     1      47.882   9.517  21.043  0.00  0.00    +0.000 A 
ATOM     26  C   UNL     1      47.902  10.325  22.172  0.00  0.00    +0.000 A 
ATOM     27  S   UNL     1      47.866  11.993  21.818  0.00  0.00    +0.000 S 
ATOM     28  C   UNL     1      47.765  11.693  20.146  0.00  0.00    +0.000 A 
ATOM     29  N   UNL     1      47.674  12.716  19.256  0.00  0.00    +0.000 NA
ATOM     30  C   UNL     1      47.570  12.343  18.024  0.00  0.00    +0.000 A 
ATOM     31  N   UNL     1      47.556  11.041  17.602  0.00  0.00    +0.000 N 
ATOM     32  C   UNL     1      47.675   9.974  18.460  0.00  0.00    +0.000 A 
ATOM     33  O   UNL     1      47.701   8.821  18.046  0.00  0.00    +0.000 OA
ATOM     34  C   UNL     1      47.780  10.338  19.862  0.00  0.00    +0.000 A 
ATOM     35  H   UNL     1      47.482  10.814  16.620  0.00  0.00    +0.000 HD
ENDBRANCH  22  25
ENDBRANCH  20  21
ENDBRANCH   4  20
TORSDOF 7
ENDMDL
