MODEL 1
REMARK VINA RESULT:    -8.278      0.000      0.000
REMARK INTER + INTRA:         -12.688
REMARK INTER:                 -11.907
REMARK INTRA:                  -0.781
REMARK UNBOUND:                -0.781
REMARK  Name = 
REMARK  8 active torsions:
REMARK  status: ('A' for Active; 'I' for Inactive)
REMARK    1  A    between atoms: N_1  and  C_2
REMARK    2  A    between atoms: C_2  and  C_3
REMARK    3  A    between atoms: C_2  and  C_24
REMARK    4  A    between atoms: C_3  and  C_4
REMARK    5  A    between atoms: C_7  and  C_8
REMARK    6  A    between atoms: C_8  and  N_9
REMARK    7  A    between atoms: C_10  and  C_12
REMARK    8  A    between atoms: C_24  and  C_25
REMARK                            x       y       z     vdW  Elec       q    Type
REMARK                         _______ _______ _______ _____ _____    ______ ____
ROOT
ATOM      1  C   UNL     1      45.815   3.610   7.992  0.00  0.00    +0.000 A 
ATOM      2  C   UNL     1      45.884   4.825   8.687  0.00  0.00    +0.000 A 
ATOM      3  C   UNL     1      45.476   4.906  10.025  0.00  0.00    +0.000 A 
ATOM      4  C   UNL     1      45.014   3.768  10.700  0.00  0.00    +0.000 A 
ATOM      5  C   UNL     1      44.926   2.559   9.996  0.00  0.00    +0.000 A 
ATOM      6  C   UNL     1      45.324   2.481   8.661  0.00  0.00    +0.000 A 
ENDROOT
BRANCH   1   7
ATOM      7  C   UNL     1      46.233   3.518   6.545  0.00  0.00    +0.000 C 
BRANCH   7   8
ATOM      8  C   UNL     1      46.843   2.166   6.096  0.00  0.00    +0.000 C 
BRANCH   8   9
ATOM      9  N   UNL     1      48.058   1.917   6.907  0.00  0.00    +0.000 NA
ATOM     10  H   UNL     1      48.102   2.585   7.675  0.00  0.00    +0.000 HD
ATOM     11  H   UNL     1      48.892   2.061   6.342  0.00  0.00    +0.000 HD
ENDBRANCH   8   9
BRANCH   8  12
ATOM     12  C   UNL     1      47.184   2.140   4.589  0.00  0.00    +0.000 C 
BRANCH  12  13
ATOM     13  C   UNL     1      46.703   0.883   3.902  0.00  0.00    +0.000 A 
ATOM     14  C   UNL     1      45.803   0.959   2.840  0.00  0.00    +0.000 A 
ATOM     15  C   UNL     1      45.421  -0.213   2.193  0.00  0.00    +0.000 A 
ATOM     16  C   UNL     1      45.943  -1.425   2.623  0.00  0.00    +0.000 A 
ATOM     17  C   UNL     1      46.823  -1.415   3.692  0.00  0.00    +0.000 A 
ATOM     18  N   UNL     1      47.210  -0.295   4.342  0.00  0.00    +0.000 NA
ENDBRANCH  12  13
ENDBRANCH   8  12
ENDBRANCH   7   8
ENDBRANCH   1   7
BRANCH   4  19
ATOM     19  C   UNL     1      44.583   3.834  12.141  0.00  0.00    +0.000 C 
BRANCH  19  20
ATOM     20  N   UNL     1      45.460   4.677  12.913  0.00  0.00    +0.000 N 
ATOM     21  C   UNL     1      46.494   4.146  13.642  0.00  0.00    +0.000 C 
ATOM     22  O   UNL     1      46.743   2.942  13.639  0.00  0.00    +0.000 OA
ATOM     23  H   UNL     1      45.133   5.616  13.120  0.00  0.00    +0.000 HD
BRANCH  21  24
ATOM     24  C   UNL     1      47.333   5.098  14.380  0.00  0.00    +0.000 A 
ATOM     25  C   UNL     1      47.942   6.147  13.708  0.00  0.00    +0.000 A 
ATOM     26  S   UNL     1      48.839   7.184  14.718  0.00  0.00    +0.000 S 
ATOM     27  C   UNL     1      48.496   6.236  16.087  0.00  0.00    +0.000 A 
ATOM     28  N   UNL     1      48.996   6.561  17.310  0.00  0.00    +0.000 NA
ATOM     29  C   UNL     1      48.678   5.739  18.252  0.00  0.00    +0.000 A 
ATOM     30  N   UNL     1      47.894   4.627  18.089  0.00  0.00    +0.000 N 
ATOM     31  C   UNL     1      47.339   4.278  16.881  0.00  0.00    +0.000 A 
ATOM     32  O   UNL     1      46.601   3.300  16.779  0.00  0.00    +0.000 OA
ATOM     33  C   UNL     1      47.681   5.159  15.781  0.00  0.00    +0.000 A 
ATOM     34  H   UNL     1      47.673   4.029  18.871  0.00  0.00    +0.000 HD
ENDBRANCH  21  24
ENDBRANCH  19  20
ENDBRANCH   4  19
TORSDOF 8
ENDMDL
MODEL 2
REMARK VINA RESULT:    -8.217      2.791      4.592
REMARK INTER + INTRA:         -12.601
REMARK INTER:                 -11.734
REMARK INTRA:                  -0.866
REMARK UNBOUND:                -0.781
REMARK  Name = 
REMARK  8 active torsions:
REMARK  status: ('A' for Active; 'I' for Inactive)
REMARK    1  A    between atoms: N_1  and  C_2
REMARK    2  A    between atoms: C_2  and  C_3
REMARK    3  A    between atoms: C_2  and  C_24
REMARK    4  A    between atoms: C_3  and  C_4
REMARK    5  A    between atoms: C_7  and  C_8
REMARK    6  A    between atoms: C_8  and  N_9
REMARK    7  A    between atoms: C_10  and  C_12
REMARK    8  A    between atoms: C_24  and  C_25
REMARK                            x       y       z     vdW  Elec       q    Type
REMARK                         _______ _______ _______ _____ _____    ______ ____
ROOT
ATOM      1  C   UNL     1      45.615   4.893  12.075  0.00  0.00    +0.000 A 
ATOM      2  C   UNL     1      46.095   4.512  13.335  0.00  0.00    +0.000 A 
ATOM      3  C   UNL     1      47.088   5.262  13.977  0.00  0.00    +0.000 A 
ATOM      4  C   UNL     1      47.604   6.421  13.381  0.00  0.00    +0.000 A 
ATOM      5  C   UNL     1      47.137   6.789  12.112  0.00  0.00    +0.000 A 
ATOM      6  C   UNL     1      46.153   6.035  11.469  0.00  0.00    +0.000 A 
ENDROOT
BRANCH   1   7
ATOM      7  C   UNL     1      44.558   4.080  11.367  0.00  0.00    +0.000 C 
BRANCH   7   8
ATOM      8  C   UNL     1      44.724   3.932   9.835  0.00  0.00    +0.000 C 
BRANCH   8   9
ATOM      9  N   UNL     1      43.625   4.679   9.178  0.00  0.00    +0.000 NA
ATOM     10  H   UNL     1      42.729   4.365   9.546  0.00  0.00    +0.000 HD
ATOM     11  H   UNL     1      43.618   4.484   8.179  0.00  0.00    +0.000 HD
ENDBRANCH   8   9
BRANCH   8  12
ATOM     12  C   UNL     1      44.725   2.456   9.376  0.00  0.00    +0.000 C 
BRANCH  12  13
ATOM     13  C   UNL     1      45.758   2.175   8.310  0.00  0.00    +0.000 A 
ATOM     14  C   UNL     1      46.251   3.208   7.515  0.00  0.00    +0.000 A 
ATOM     15  C   UNL     1      47.242   2.925   6.578  0.00  0.00    +0.000 A 
ATOM     16  C   UNL     1      47.710   1.624   6.458  0.00  0.00    +0.000 A 
ATOM     17  C   UNL     1      47.160   0.654   7.280  0.00  0.00    +0.000 A 
ATOM     18  N   UNL     1      46.196   0.897   8.195  0.00  0.00    +0.000 NA
ENDBRANCH  12  13
ENDBRANCH   8  12
ENDBRANCH   7   8
ENDBRANCH   1   7
BRANCH   4  19
ATOM     19  C   UNL     1      48.664   7.247  14.062  0.00  0.00    +0.000 C 
BRANCH  19  20
ATOM     20  N   UNL     1      48.427   7.337  15.480  0.00  0.00    +0.000 N 
ATOM     21  C   UNL     1      49.300   6.782  16.382  0.00  0.00    +0.000 C 
ATOM     22  O   UNL     1      50.335   6.221  16.028  0.00  0.00    +0.000 OA
ATOM     23  H   UNL     1      47.485   7.573  15.777  0.00  0.00    +0.000 HD
BRANCH  21  24
ATOM     24  C   UNL     1      48.968   6.946  17.802  0.00  0.00    +0.000 A 
ATOM     25  C   UNL     1      48.783   8.217  18.326  0.00  0.00    +0.000 A 
ATOM     26  S   UNL     1      48.358   8.228  19.975  0.00  0.00    +0.000 S 
ATOM     27  C   UNL     1      48.461   6.533  20.069  0.00  0.00    +0.000 A 
ATOM     28  N   UNL     1      48.234   5.879  21.239  0.00  0.00    +0.000 NA
ATOM     29  C   UNL     1      48.374   4.598  21.171  0.00  0.00    +0.000 A 
ATOM     30  N   UNL     1      48.708   3.907  20.036  0.00  0.00    +0.000 N 
ATOM     31  C   UNL     1      48.912   4.521  18.823  0.00  0.00    +0.000 A 
ATOM     32  O   UNL     1      49.163   3.866  17.814  0.00  0.00    +0.000 OA
ATOM     33  C   UNL     1      48.786   5.966  18.848  0.00  0.00    +0.000 A 
ATOM     34  H   UNL     1      48.791   2.902  20.046  0.00  0.00    +0.000 HD
ENDBRANCH  21  24
ENDBRANCH  19  20
ENDBRANCH   4  19
TORSDOF 8
ENDMDL
MODEL 3
REMARK VINA RESULT:    -8.098      1.487      2.323
REMARK INTER + INTRA:         -12.429
REMARK INTER:                 -11.572
REMARK INTRA:                  -0.857
REMARK UNBOUND:                -0.781
REMARK  Name = 
REMARK  8 active torsions:
REMARK  status: ('A' for Active; 'I' for Inactive)
REMARK    1  A    between atoms: N_1  and  C_2
REMARK    2  A    between atoms: C_2  and  C_3
REMARK    3  A    between atoms: C_2  and  C_24
REMARK    4  A    between atoms: C_3  and  C_4
REMARK    5  A    between atoms: C_7  and  C_8
REMARK    6  A    between atoms: C_8  and  N_9
REMARK    7  A    between atoms: C_10  and  C_12
REMARK    8  A    between atoms: C_24  and  C_25
REMARK                            x       y       z     vdW  Elec       q    Type
REMARK                         _______ _______ _______ _____ _____    ______ ____
ROOT
ATOM      1  C   UNL     1      45.721   3.448   7.788  0.00  0.00    +0.000 A 
ATOM      2  C   UNL     1      45.854   4.682   8.437  0.00  0.00    +0.000 A 
ATOM      3  C   UNL     1      45.345   4.868   9.729  0.00  0.00    +0.000 A 
ATOM      4  C   UNL     1      44.714   3.815  10.405  0.00  0.00    +0.000 A 
ATOM      5  C   UNL     1      44.564   2.587   9.745  0.00  0.00    +0.000 A 
ATOM      6  C   UNL     1      45.064   2.406   8.455  0.00  0.00    +0.000 A 
ENDROOT
BRANCH   1   7
ATOM      7  C   UNL     1      46.249   3.245   6.388  0.00  0.00    +0.000 C 
BRANCH   7   8
ATOM      8  C   UNL     1      46.975   1.903   6.121  0.00  0.00    +0.000 C 
BRANCH   8   9
ATOM      9  N   UNL     1      48.076   1.771   7.105  0.00  0.00    +0.000 NA
ATOM     10  H   UNL     1      47.924   0.946   7.683  0.00  0.00    +0.000 HD
ATOM     11  H   UNL     1      48.084   2.573   7.732  0.00  0.00    +0.000 HD
ENDBRANCH   8   9
BRANCH   8  12
ATOM     12  C   UNL     1      47.523   1.800   4.680  0.00  0.00    +0.000 C 
BRANCH  12  13
ATOM     13  C   UNL     1      46.841   0.722   3.870  0.00  0.00    +0.000 A 
ATOM     14  C   UNL     1      45.862   1.055   2.935  0.00  0.00    +0.000 A 
ATOM     15  C   UNL     1      45.292   0.044   2.166  0.00  0.00    +0.000 A 
ATOM     16  C   UNL     1      45.708  -1.267   2.353  0.00  0.00    +0.000 A 
ATOM     17  C   UNL     1      46.678  -1.514   3.310  0.00  0.00    +0.000 A 
ATOM     18  N   UNL     1      47.248  -0.555   4.073  0.00  0.00    +0.000 NA
ENDBRANCH  12  13
ENDBRANCH   8  12
ENDBRANCH   7   8
ENDBRANCH   1   7
BRANCH   4  19
ATOM     19  C   UNL     1      44.171   3.993  11.798  0.00  0.00    +0.000 C 
BRANCH  19  20
ATOM     20  N   UNL     1      45.093   4.721  12.631  0.00  0.00    +0.000 N 
ATOM     21  C   UNL     1      46.088   4.076  13.321  0.00  0.00    +0.000 C 
ATOM     22  O   UNL     1      46.264   2.862  13.231  0.00  0.00    +0.000 OA
ATOM     23  H   UNL     1      44.824   5.661  12.906  0.00  0.00    +0.000 HD
BRANCH  21  24
ATOM     24  C   UNL     1      46.979   4.917  14.129  0.00  0.00    +0.000 A 
ATOM     25  C   UNL     1      47.250   4.571  15.445  0.00  0.00    +0.000 A 
ATOM     26  S   UNL     1      48.338   5.625  16.224  0.00  0.00    +0.000 S 
ATOM     27  C   UNL     1      48.444   6.620  14.850  0.00  0.00    +0.000 A 
ATOM     28  N   UNL     1      49.210   7.744  14.853  0.00  0.00    +0.000 NA
ATOM     29  C   UNL     1      49.176   8.417  13.752  0.00  0.00    +0.000 A 
ATOM     30  N   UNL     1      48.455   8.064  12.642  0.00  0.00    +0.000 N 
ATOM     31  C   UNL     1      47.694   6.920  12.579  0.00  0.00    +0.000 A 
ATOM     32  O   UNL     1      47.098   6.609  11.551  0.00  0.00    +0.000 OA
ATOM     33  C   UNL     1      47.683   6.135  13.799  0.00  0.00    +0.000 A 
ATOM     34  H   UNL     1      48.480   8.629  11.807  0.00  0.00    +0.000 HD
ENDBRANCH  21  24
ENDBRANCH  19  20
ENDBRANCH   4  19
TORSDOF 8
ENDMDL
MODEL 4
REMARK VINA RESULT:    -8.087      2.957      4.780
REMARK INTER + INTRA:         -12.414
REMARK INTER:                 -11.379
REMARK INTRA:                  -1.035
REMARK UNBOUND:                -0.781
REMARK  Name = 
REMARK  8 active torsions:
REMARK  status: ('A' for Active; 'I' for Inactive)
REMARK    1  A    between atoms: N_1  and  C_2
REMARK    2  A    between atoms: C_2  and  C_3
REMARK    3  A    between atoms: C_2  and  C_24
REMARK    4  A    between atoms: C_3  and  C_4
REMARK    5  A    between atoms: C_7  and  C_8
REMARK    6  A    between atoms: C_8  and  N_9
REMARK    7  A    between atoms: C_10  and  C_12
REMARK    8  A    between atoms: C_24  and  C_25
REMARK                            x       y       z     vdW  Elec       q    Type
REMARK                         _______ _______ _______ _____ _____    ______ ____
ROOT
ATOM      1  C   UNL     1      45.526   4.544  12.160  0.00  0.00    +0.000 A 
ATOM      2  C   UNL     1      45.920   5.833  11.780  0.00  0.00    +0.000 A 
ATOM      3  C   UNL     1      46.854   6.548  12.542  0.00  0.00    +0.000 A 
ATOM      4  C   UNL     1      47.428   5.977  13.685  0.00  0.00    +0.000 A 
ATOM      5  C   UNL     1      47.016   4.695  14.075  0.00  0.00    +0.000 A 
ATOM      6  C   UNL     1      46.079   3.988  13.320  0.00  0.00    +0.000 A 
ENDROOT
BRANCH   1   7
ATOM      7  C   UNL     1      44.505   3.775  11.356  0.00  0.00    +0.000 C 
BRANCH   7   8
ATOM      8  C   UNL     1      44.681   3.810   9.818  0.00  0.00    +0.000 C 
BRANCH   8   9
ATOM      9  N   UNL     1      43.607   4.659   9.251  0.00  0.00    +0.000 NA
ATOM     10  H   UNL     1      43.896   5.636   9.269  0.00  0.00    +0.000 HD
ATOM     11  H   UNL     1      42.767   4.589   9.822  0.00  0.00    +0.000 HD
ENDBRANCH   8   9
BRANCH   8  12
ATOM     12  C   UNL     1      44.649   2.402   9.183  0.00  0.00    +0.000 C 
BRANCH  12  13
ATOM     13  C   UNL     1      45.714   2.209   8.129  0.00  0.00    +0.000 A 
ATOM     14  C   UNL     1      46.022   3.239   7.242  0.00  0.00    +0.000 A 
ATOM     15  C   UNL     1      47.046   3.050   6.317  0.00  0.00    +0.000 A 
ATOM     16  C   UNL     1      47.729   1.842   6.300  0.00  0.00    +0.000 A 
ATOM     17  C   UNL     1      47.354   0.867   7.209  0.00  0.00    +0.000 A 
ATOM     18  N   UNL     1      46.363   1.019   8.115  0.00  0.00    +0.000 NA
ENDBRANCH  12  13
ENDBRANCH   8  12
ENDBRANCH   7   8
ENDBRANCH   1   7
BRANCH   4  19
ATOM     19  C   UNL     1      48.442   6.726  14.509  0.00  0.00    +0.000 C 
BRANCH  19  20
ATOM     20  N   UNL     1      48.238   6.506  15.918  0.00  0.00    +0.000 N 
ATOM     21  C   UNL     1      49.271   6.114  16.732  0.00  0.00    +0.000 C 
ATOM     22  O   UNL     1      50.417   5.972  16.309  0.00  0.00    +0.000 OA
ATOM     23  H   UNL     1      47.281   6.382  16.232  0.00  0.00    +0.000 HD
BRANCH  21  24
ATOM     24  C   UNL     1      48.954   5.932  18.154  0.00  0.00    +0.000 A 
ATOM     25  C   UNL     1      49.186   4.706  18.760  0.00  0.00    +0.000 A 
ATOM     26  S   UNL     1      48.809   4.678  20.421  0.00  0.00    +0.000 S 
ATOM     27  C   UNL     1      48.266   6.288  20.381  0.00  0.00    +0.000 A 
ATOM     28  N   UNL     1      47.773   6.892  21.496  0.00  0.00    +0.000 NA
ATOM     29  C   UNL     1      47.372   8.105  21.314  0.00  0.00    +0.000 A 
ATOM     30  N   UNL     1      47.431   8.777  20.121  0.00  0.00    +0.000 N 
ATOM     31  C   UNL     1      47.952   8.221  18.977  0.00  0.00    +0.000 A 
ATOM     32  O   UNL     1      48.033   8.869  17.936  0.00  0.00    +0.000 OA
ATOM     33  C   UNL     1      48.400   6.849  19.122  0.00  0.00    +0.000 A 
ATOM     34  H   UNL     1      47.110   9.731  20.048  0.00  0.00    +0.000 HD
ENDBRANCH  21  24
ENDBRANCH  19  20
ENDBRANCH   4  19
TORSDOF 8
ENDMDL
MODEL 5
REMARK VINA RESULT:    -7.775      2.695      3.977
REMARK INTER + INTRA:         -11.966
REMARK INTER:                 -11.022
REMARK INTRA:                  -0.944
REMARK UNBOUND:                -0.781
REMARK  Name = 
REMARK  8 active torsions:
REMARK  status: ('A' for Active; 'I' for Inactive)
REMARK    1  A    between atoms: N_1  and  C_2
REMARK    2  A    between atoms: C_2  and  C_3
REMARK    3  A    between atoms: C_2  and  C_24
REMARK    4  A    between atoms: C_3  and  C_4
REMARK    5  A    between atoms: C_7  and  C_8
REMARK    6  A    between atoms: C_8  and  N_9
REMARK    7  A    between atoms: C_10  and  C_12
REMARK    8  A    between atoms: C_24  and  C_25
REMARK                            x       y       z     vdW  Elec       q    Type
REMARK                         _______ _______ _______ _____ _____    ______ ____
ROOT
ATOM      1  C   UNL     1      44.396   5.252  11.343  0.00  0.00    +0.000 A 
ATOM      2  C   UNL     1      45.439   5.856  10.630  0.00  0.00    +0.000 A 
ATOM      3  C   UNL     1      46.269   6.802  11.244  0.00  0.00    +0.000 A 
ATOM      4  C   UNL     1      46.086   7.145  12.590  0.00  0.00    +0.000 A 
ATOM      5  C   UNL     1      45.029   6.554  13.296  0.00  0.00    +0.000 A 
ATOM      6  C   UNL     1      44.197   5.618  12.680  0.00  0.00    +0.000 A 
ENDROOT
BRANCH   1   7
ATOM      7  C   UNL     1      43.484   4.245  10.684  0.00  0.00    +0.000 C 
BRANCH   7   8
ATOM      8  C   UNL     1      44.180   3.105   9.900  0.00  0.00    +0.000 C 
BRANCH   8   9
ATOM      9  N   UNL     1      45.410   2.725  10.634  0.00  0.00    +0.000 NA
ATOM     10  H   UNL     1      46.168   3.358  10.385  0.00  0.00    +0.000 HD
ATOM     11  H   UNL     1      45.705   1.789  10.362  0.00  0.00    +0.000 HD
ENDBRANCH   8   9
BRANCH   8  12
ATOM     12  C   UNL     1      44.519   3.504   8.446  0.00  0.00    +0.000 C 
BRANCH  12  13
ATOM     13  C   UNL     1      45.702   2.746   7.892  0.00  0.00    +0.000 A 
ATOM     14  C   UNL     1      46.724   3.422   7.227  0.00  0.00    +0.000 A 
ATOM     15  C   UNL     1      47.827   2.702   6.775  0.00  0.00    +0.000 A 
ATOM     16  C   UNL     1      47.879   1.333   6.995  0.00  0.00    +0.000 A 
ATOM     17  C   UNL     1      46.817   0.737   7.655  0.00  0.00    +0.000 A 
ATOM     18  N   UNL     1      45.733   1.407   8.101  0.00  0.00    +0.000 NA
ENDBRANCH  12  13
ENDBRANCH   8  12
ENDBRANCH   7   8
ENDBRANCH   1   7
BRANCH   4  19
ATOM     19  C   UNL     1      46.977   8.151  13.270  0.00  0.00    +0.000 C 
BRANCH  19  20
ATOM     20  N   UNL     1      47.484   7.644  14.519  0.00  0.00    +0.000 N 
ATOM     21  C   UNL     1      48.566   6.800  14.555  0.00  0.00    +0.000 C 
ATOM     22  O   UNL     1      49.173   6.473  13.537  0.00  0.00    +0.000 OA
ATOM     23  H   UNL     1      46.869   7.701  15.325  0.00  0.00    +0.000 HD
BRANCH  21  24
ATOM     24  C   UNL     1      49.007   6.354  15.883  0.00  0.00    +0.000 A 
ATOM     25  C   UNL     1      49.970   7.079  16.569  0.00  0.00    +0.000 A 
ATOM     26  S   UNL     1      50.332   6.454  18.112  0.00  0.00    +0.000 S 
ATOM     27  C   UNL     1      49.257   5.155  17.898  0.00  0.00    +0.000 A 
ATOM     28  N   UNL     1      49.102   4.205  18.859  0.00  0.00    +0.000 NA
ATOM     29  C   UNL     1      48.275   3.263  18.551  0.00  0.00    +0.000 A 
ATOM     30  N   UNL     1      47.577   3.189  17.375  0.00  0.00    +0.000 N 
ATOM     31  C   UNL     1      47.674   4.143  16.389  0.00  0.00    +0.000 A 
ATOM     32  O   UNL     1      46.997   4.071  15.366  0.00  0.00    +0.000 OA
ATOM     33  C   UNL     1      48.607   5.216  16.676  0.00  0.00    +0.000 A 
ATOM     34  H   UNL     1      46.935   2.431  17.200  0.00  0.00    +0.000 HD
ENDBRANCH  21  24
ENDBRANCH  19  20
ENDBRANCH   4  19
TORSDOF 8
ENDMDL
MODEL 6
REMARK VINA RESULT:    -7.772      2.763      4.967
REMARK INTER + INTRA:         -11.961
REMARK INTER:                 -10.953
REMARK INTRA:                  -1.008
REMARK UNBOUND:                -0.781
REMARK  Name = 
REMARK  8 active torsions:
REMARK  status: ('A' for Active; 'I' for Inactive)
REMARK    1  A    between atoms: N_1  and  C_2
REMARK    2  A    between atoms: C_2  and  C_3
REMARK    3  A    between atoms: C_2  and  C_24
REMARK    4  A    between atoms: C_3  and  C_4
REMARK    5  A    between atoms: C_7  and  C_8
REMARK    6  A    between atoms: C_8  and  N_9
REMARK    7  A    between atoms: C_10  and  C_12
REMARK    8  A    between atoms: C_24  and  C_25
REMARK                            x       y       z     vdW  Elec       q    Type
REMARK                         _______ _______ _______ _____ _____    ______ ____
ROOT
ATOM      1  C   UNL     1      45.845   4.525  12.550  0.00  0.00    +0.000 A 
ATOM      2  C   UNL     1      46.065   5.861  12.191  0.00  0.00    +0.000 A 
ATOM      3  C   UNL     1      46.892   6.682  12.969  0.00  0.00    +0.000 A 
ATOM      4  C   UNL     1      47.533   6.175  14.107  0.00  0.00    +0.000 A 
ATOM      5  C   UNL     1      47.295   4.844  14.475  0.00  0.00    +0.000 A 
ATOM      6  C   UNL     1      46.464   4.029  13.704  0.00  0.00    +0.000 A 
ENDROOT
BRANCH   1   7
ATOM      7  C   UNL     1      44.940   3.638  11.729  0.00  0.00    +0.000 C 
BRANCH   7   8
ATOM      8  C   UNL     1      45.046   3.793  10.191  0.00  0.00    +0.000 C 
BRANCH   8   9
ATOM      9  N   UNL     1      43.948   4.680   9.741  0.00  0.00    +0.000 NA
ATOM     10  H   UNL     1      44.215   5.654   9.875  0.00  0.00    +0.000 HD
ATOM     11  H   UNL     1      43.116   4.522  10.306  0.00  0.00    +0.000 HD
ENDBRANCH   8   9
BRANCH   8  12
ATOM     12  C   UNL     1      44.984   2.437   9.452  0.00  0.00    +0.000 C 
BRANCH  12  13
ATOM     13  C   UNL     1      45.861   2.400   8.222  0.00  0.00    +0.000 A 
ATOM     14  C   UNL     1      46.568   1.245   7.894  0.00  0.00    +0.000 A 
ATOM     15  C   UNL     1      47.324   1.225   6.725  0.00  0.00    +0.000 A 
ATOM     16  C   UNL     1      47.357   2.354   5.920  0.00  0.00    +0.000 A 
ATOM     17  C   UNL     1      46.634   3.465   6.323  0.00  0.00    +0.000 A 
ATOM     18  N   UNL     1      45.894   3.516   7.452  0.00  0.00    +0.000 NA
ENDBRANCH  12  13
ENDBRANCH   8  12
ENDBRANCH   7   8
ENDBRANCH   1   7
BRANCH   4  19
ATOM     19  C   UNL     1      48.435   7.039  14.948  0.00  0.00    +0.000 C 
BRANCH  19  20
ATOM     20  N   UNL     1      49.521   6.276  15.507  0.00  0.00    +0.000 N 
ATOM     21  C   UNL     1      49.536   5.930  16.835  0.00  0.00    +0.000 C 
ATOM     22  O   UNL     1      48.613   6.216  17.594  0.00  0.00    +0.000 OA
ATOM     23  H   UNL     1      50.384   6.242  14.972  0.00  0.00    +0.000 HD
BRANCH  21  24
ATOM     24  C   UNL     1      50.685   5.140  17.294  0.00  0.00    +0.000 A 
ATOM     25  C   UNL     1      51.824   5.784  17.754  0.00  0.00    +0.000 A 
ATOM     26  S   UNL     1      53.044   4.724  18.293  0.00  0.00    +0.000 S 
ATOM     27  C   UNL     1      52.118   3.360  17.878  0.00  0.00    +0.000 A 
ATOM     28  N   UNL     1      52.600   2.101  18.061  0.00  0.00    +0.000 NA
ATOM     29  C   UNL     1      51.802   1.163  17.677  0.00  0.00    +0.000 A 
ATOM     30  N   UNL     1      50.559   1.365  17.136  0.00  0.00    +0.000 N 
ATOM     31  C   UNL     1      50.016   2.617  16.964  0.00  0.00    +0.000 A 
ATOM     32  O   UNL     1      48.879   2.761  16.521  0.00  0.00    +0.000 OA
ATOM     33  C   UNL     1      50.881   3.711  17.363  0.00  0.00    +0.000 A 
ATOM     34  H   UNL     1      49.978   0.586  16.865  0.00  0.00    +0.000 HD
ENDBRANCH  21  24
ENDBRANCH  19  20
ENDBRANCH   4  19
TORSDOF 8
ENDMDL
MODEL 7
REMARK VINA RESULT:    -7.550      3.111      5.192
REMARK INTER + INTRA:         -11.642
REMARK INTER:                 -10.940
REMARK INTRA:                  -0.702
REMARK UNBOUND:                -0.781
REMARK  Name = 
REMARK  8 active torsions:
REMARK  status: ('A' for Active; 'I' for Inactive)
REMARK    1  A    between atoms: N_1  and  C_2
REMARK    2  A    between atoms: C_2  and  C_3
REMARK    3  A    between atoms: C_2  and  C_24
REMARK    4  A    between atoms: C_3  and  C_4
REMARK    5  A    between atoms: C_7  and  C_8
REMARK    6  A    between atoms: C_8  and  N_9
REMARK    7  A    between atoms: C_10  and  C_12
REMARK    8  A    between atoms: C_24  and  C_25
REMARK                            x       y       z     vdW  Elec       q    Type
REMARK                         _______ _______ _______ _____ _____    ______ ____
ROOT
ATOM      1  C   UNL     1      45.655   5.320  12.215  0.00  0.00    +0.000 A 
ATOM      2  C   UNL     1      46.670   5.153  13.166  0.00  0.00    +0.000 A 
ATOM      3  C   UNL     1      47.348   6.263  13.687  0.00  0.00    +0.000 A 
ATOM      4  C   UNL     1      47.007   7.561  13.284  0.00  0.00    +0.000 A 
ATOM      5  C   UNL     1      46.006   7.723  12.318  0.00  0.00    +0.000 A 
ATOM      6  C   UNL     1      45.337   6.616  11.793  0.00  0.00    +0.000 A 
ENDROOT
BRANCH   1   7
ATOM      7  C   UNL     1      44.933   4.129  11.633  0.00  0.00    +0.000 C 
BRANCH   7   8
ATOM      8  C   UNL     1      44.592   4.207  10.124  0.00  0.00    +0.000 C 
BRANCH   8   9
ATOM      9  N   UNL     1      43.350   5.002   9.973  0.00  0.00    +0.000 NA
ATOM     10  H   UNL     1      43.323   5.735  10.680  0.00  0.00    +0.000 HD
ATOM     11  H   UNL     1      42.536   4.411  10.128  0.00  0.00    +0.000 HD
ENDBRANCH   8   9
BRANCH   8  12
ATOM     12  C   UNL     1      44.425   2.813   9.479  0.00  0.00    +0.000 C 
BRANCH  12  13
ATOM     13  C   UNL     1      45.506   2.501   8.471  0.00  0.00    +0.000 A 
ATOM     14  C   UNL     1      46.007   3.501   7.640  0.00  0.00    +0.000 A 
ATOM     15  C   UNL     1      47.041   3.193   6.760  0.00  0.00    +0.000 A 
ATOM     16  C   UNL     1      47.543   1.900   6.730  0.00  0.00    +0.000 A 
ATOM     17  C   UNL     1      46.982   0.962   7.581  0.00  0.00    +0.000 A 
ATOM     18  N   UNL     1      45.977   1.229   8.443  0.00  0.00    +0.000 NA
ENDBRANCH  12  13
ENDBRANCH   8  12
ENDBRANCH   7   8
ENDBRANCH   1   7
BRANCH   4  19
ATOM     19  C   UNL     1      47.717   8.766  13.843  0.00  0.00    +0.000 C 
BRANCH  19  20
ATOM     20  N   UNL     1      47.461   8.919  15.252  0.00  0.00    +0.000 N 
ATOM     21  C   UNL     1      48.409   9.445  16.093  0.00  0.00    +0.000 C 
ATOM     22  O   UNL     1      49.497   9.842  15.682  0.00  0.00    +0.000 OA
ATOM     23  H   UNL     1      46.688   8.388  15.641  0.00  0.00    +0.000 HD
BRANCH  21  24
ATOM     24  C   UNL     1      48.036   9.568  17.508  0.00  0.00    +0.000 A 
ATOM     25  C   UNL     1      47.754  10.817  18.040  0.00  0.00    +0.000 A 
ATOM     26  S   UNL     1      47.294  10.779  19.680  0.00  0.00    +0.000 S 
ATOM     27  C   UNL     1      47.510   9.094  19.758  0.00  0.00    +0.000 A 
ATOM     28  N   UNL     1      47.303   8.412  20.916  0.00  0.00    +0.000 NA
ATOM     29  C   UNL     1      47.531   7.144  20.837  0.00  0.00    +0.000 A 
ATOM     30  N   UNL     1      47.935   6.491  19.702  0.00  0.00    +0.000 N 
ATOM     31  C   UNL     1      48.123   7.132  18.500  0.00  0.00    +0.000 A 
ATOM     32  O   UNL     1      48.440   6.509  17.490  0.00  0.00    +0.000 OA
ATOM     33  C   UNL     1      47.899   8.565  18.538  0.00  0.00    +0.000 A 
ATOM     34  H   UNL     1      48.086   5.494  19.703  0.00  0.00    +0.000 HD
ENDBRANCH  21  24
ENDBRANCH  19  20
ENDBRANCH   4  19
TORSDOF 8
ENDMDL
MODEL 8
REMARK VINA RESULT:    -7.188      3.984     10.179
REMARK INTER + INTRA:         -11.120
REMARK INTER:                  -9.275
REMARK INTRA:                  -1.845
REMARK UNBOUND:                -0.781
REMARK  Name = 
REMARK  8 active torsions:
REMARK  status: ('A' for Active; 'I' for Inactive)
REMARK    1  A    between atoms: N_1  and  C_2
REMARK    2  A    between atoms: C_2  and  C_3
REMARK    3  A    between atoms: C_2  and  C_24
REMARK    4  A    between atoms: C_3  and  C_4
REMARK    5  A    between atoms: C_7  and  C_8
REMARK    6  A    between atoms: C_8  and  N_9
REMARK    7  A    between atoms: C_10  and  C_12
REMARK    8  A    between atoms: C_24  and  C_25
REMARK                            x       y       z     vdW  Elec       q    Type
REMARK                         _______ _______ _______ _____ _____    ______ ____
ROOT
ATOM      1  C   UNL     1      49.602   8.272  15.853  0.00  0.00    +0.000 A 
ATOM      2  C   UNL     1      48.464   9.020  15.523  0.00  0.00    +0.000 A 
ATOM      3  C   UNL     1      47.891   8.921  14.249  0.00  0.00    +0.000 A 
ATOM      4  C   UNL     1      48.430   8.055  13.289  0.00  0.00    +0.000 A 
ATOM      5  C   UNL     1      49.580   7.324  13.615  0.00  0.00    +0.000 A 
ATOM      6  C   UNL     1      50.156   7.429  14.882  0.00  0.00    +0.000 A 
ENDROOT
BRANCH   1   7
ATOM      7  C   UNL     1      50.238   8.387  17.217  0.00  0.00    +0.000 C 
BRANCH   7   8
ATOM      8  C   UNL     1      49.879   7.276  18.234  0.00  0.00    +0.000 C 
BRANCH   8   9
ATOM      9  N   UNL     1      50.764   6.115  17.980  0.00  0.00    +0.000 NA
ATOM     10  H   UNL     1      51.134   5.766  18.863  0.00  0.00    +0.000 HD
ATOM     11  H   UNL     1      51.563   6.400  17.417  0.00  0.00    +0.000 HD
ENDBRANCH   8   9
BRANCH   8  12
ATOM     12  C   UNL     1      48.395   6.852  18.151  0.00  0.00    +0.000 C 
BRANCH  12  13
ATOM     13  C   UNL     1      48.220   5.398  17.782  0.00  0.00    +0.000 A 
ATOM     14  C   UNL     1      47.838   5.038  16.490  0.00  0.00    +0.000 A 
ATOM     15  C   UNL     1      47.739   3.688  16.167  0.00  0.00    +0.000 A 
ATOM     16  C   UNL     1      48.019   2.736  17.138  0.00  0.00    +0.000 A 
ATOM     17  C   UNL     1      48.382   3.177  18.399  0.00  0.00    +0.000 A 
ATOM     18  N   UNL     1      48.484   4.479  18.744  0.00  0.00    +0.000 NA
ENDBRANCH  12  13
ENDBRANCH   8  12
ENDBRANCH   7   8
ENDBRANCH   1   7
BRANCH   4  19
ATOM     19  C   UNL     1      47.819   7.927  11.918  0.00  0.00    +0.000 C 
BRANCH  19  20
ATOM     20  N   UNL     1      47.077   6.700  11.787  0.00  0.00    +0.000 N 
ATOM     21  C   UNL     1      45.706   6.690  11.849  0.00  0.00    +0.000 C 
ATOM     22  O   UNL     1      45.051   7.723  11.978  0.00  0.00    +0.000 OA
ATOM     23  H   UNL     1      47.589   5.834  11.923  0.00  0.00    +0.000 HD
BRANCH  21  24
ATOM     24  C   UNL     1      45.051   5.386  11.691  0.00  0.00    +0.000 A 
ATOM     25  C   UNL     1      44.367   4.823  12.758  0.00  0.00    +0.000 A 
ATOM     26  S   UNL     1      43.626   3.334  12.393  0.00  0.00    +0.000 S 
ATOM     27  C   UNL     1      44.240   3.354  10.808  0.00  0.00    +0.000 A 
ATOM     28  N   UNL     1      43.995   2.332   9.945  0.00  0.00    +0.000 NA
ATOM     29  C   UNL     1      44.546   2.467   8.786  0.00  0.00    +0.000 A 
ATOM     30  N   UNL     1      45.310   3.538   8.403  0.00  0.00    +0.000 N 
ATOM     31  C   UNL     1      45.557   4.610   9.228  0.00  0.00    +0.000 A 
ATOM     32  O   UNL     1      46.208   5.576   8.836  0.00  0.00    +0.000 OA
ATOM     33  C   UNL     1      44.976   4.500  10.552  0.00  0.00    +0.000 A 
ATOM     34  H   UNL     1      45.704   3.588   7.476  0.00  0.00    +0.000 HD
ENDBRANCH  21  24
ENDBRANCH  19  20
ENDBRANCH   4  19
TORSDOF 8
ENDMDL
MODEL 9
REMARK VINA RESULT:    -7.093      3.074      4.891
REMARK INTER + INTRA:         -10.984
REMARK INTER:                  -9.901
REMARK INTRA:                  -1.083
REMARK UNBOUND:                -0.781
REMARK  Name = 
REMARK  8 active torsions:
REMARK  status: ('A' for Active; 'I' for Inactive)
REMARK    1  A    between atoms: N_1  and  C_2
REMARK    2  A    between atoms: C_2  and  C_3
REMARK    3  A    between atoms: C_2  and  C_24
REMARK    4  A    between atoms: C_3  and  C_4
REMARK    5  A    between atoms: C_7  and  C_8
REMARK    6  A    between atoms: C_8  and  N_9
REMARK    7  A    between atoms: C_10  and  C_12
REMARK    8  A    between atoms: C_24  and  C_25
REMARK                            x       y       z     vdW  Elec       q    Type
REMARK                         _______ _______ _______ _____ _____    ______ ____
ROOT
ATOM      1  C   UNL     1      44.821   5.311  11.631  0.00  0.00    +0.000 A 
ATOM      2  C   UNL     1      45.601   6.258  10.955  0.00  0.00    +0.000 A 
ATOM      3  C   UNL     1      46.707   6.848  11.581  0.00  0.00    +0.000 A 
ATOM      4  C   UNL     1      47.066   6.486  12.886  0.00  0.00    +0.000 A 
ATOM      5  C   UNL     1      46.271   5.554  13.567  0.00  0.00    +0.000 A 
ATOM      6  C   UNL     1      45.164   4.973  12.946  0.00  0.00    +0.000 A 
ENDROOT
BRANCH   1   7
ATOM      7  C   UNL     1      43.616   4.685  10.972  0.00  0.00    +0.000 C 
BRANCH   7   8
ATOM      8  C   UNL     1      43.778   3.215  10.510  0.00  0.00    +0.000 C 
BRANCH   8   9
ATOM      9  N   UNL     1      43.036   2.350  11.456  0.00  0.00    +0.000 NA
ATOM     10  H   UNL     1      43.694   1.830  12.035  0.00  0.00    +0.000 HD
ATOM     11  H   UNL     1      42.486   1.662  10.945  0.00  0.00    +0.000 HD
ENDBRANCH   8   9
BRANCH   8  12
ATOM     12  C   UNL     1      45.258   2.779  10.425  0.00  0.00    +0.000 C 
BRANCH  12  13
ATOM     13  C   UNL     1      45.764   2.695   9.004  0.00  0.00    +0.000 A 
ATOM     14  C   UNL     1      45.791   3.830   8.196  0.00  0.00    +0.000 A 
ATOM     15  C   UNL     1      46.313   3.731   6.910  0.00  0.00    +0.000 A 
ATOM     16  C   UNL     1      46.790   2.506   6.464  0.00  0.00    +0.000 A 
ATOM     17  C   UNL     1      46.717   1.425   7.326  0.00  0.00    +0.000 A 
ATOM     18  N   UNL     1      46.213   1.488   8.577  0.00  0.00    +0.000 NA
ENDBRANCH  12  13
ENDBRANCH   8  12
ENDBRANCH   7   8
ENDBRANCH   1   7
BRANCH   4  19
ATOM     19  C   UNL     1      48.259   7.101  13.570  0.00  0.00    +0.000 C 
BRANCH  19  20
ATOM     20  N   UNL     1      48.669   6.323  14.710  0.00  0.00    +0.000 N 
ATOM     21  C   UNL     1      48.777   6.889  15.955  0.00  0.00    +0.000 C 
ATOM     22  O   UNL     1      48.493   8.067  16.162  0.00  0.00    +0.000 OA
ATOM     23  H   UNL     1      49.131   5.438  14.522  0.00  0.00    +0.000 HD
BRANCH  21  24
ATOM     24  C   UNL     1      49.191   6.001  17.047  0.00  0.00    +0.000 A 
ATOM     25  C   UNL     1      48.233   5.414  17.860  0.00  0.00    +0.000 A 
ATOM     26  S   UNL     1      48.878   4.376  19.047  0.00  0.00    +0.000 S 
ATOM     27  C   UNL     1      50.469   4.715  18.556  0.00  0.00    +0.000 A 
ATOM     28  N   UNL     1      51.535   4.157  19.191  0.00  0.00    +0.000 NA
ATOM     29  C   UNL     1      52.684   4.524  18.732  0.00  0.00    +0.000 A 
ATOM     30  N   UNL     1      52.867   5.389  17.685  0.00  0.00    +0.000 N 
ATOM     31  C   UNL     1      51.822   5.951  16.991  0.00  0.00    +0.000 A 
ATOM     32  O   UNL     1      52.022   6.686  16.027  0.00  0.00    +0.000 OA
ATOM     33  C   UNL     1      50.506   5.586  17.480  0.00  0.00    +0.000 A 
ATOM     34  H   UNL     1      53.794   5.628  17.366  0.00  0.00    +0.000 HD
ENDBRANCH  21  24
ENDBRANCH  19  20
ENDBRANCH   4  19
TORSDOF 8
ENDMDL
