MODEL 1
REMARK VINA RESULT:    -8.492      0.000      0.000
REMARK INTER + INTRA:         -13.913
REMARK INTER:                 -12.712
REMARK INTRA:                  -1.201
REMARK UNBOUND:                -1.201
REMARK  Name = 
REMARK  10 active torsions:
REMARK  status: ('A' for Active; 'I' for Inactive)
REMARK    1  A    between atoms: C_1  and  C_2
REMARK    2  A    between atoms: C_2  and  C_3
REMARK    3  A    between atoms: C_3  and  O_4
REMARK    4  A    between atoms: C_3  and  C_5
REMARK    5  A    between atoms: C_3  and  C_16
REMARK    6  A    between atoms: C_5  and  O_6
REMARK    7  A    between atoms: O_6  and  C_7
REMARK    8  A    between atoms: C_10  and  C_11
REMARK    9  A    between atoms: C_20  and  O_21
REMARK   10  A    between atoms: O_21  and  C_22
REMARK                            x       y       z     vdW  Elec       q    Type
REMARK                         _______ _______ _______ _____ _____    ______ ____
ROOT
ATOM      1  C   UNL     1      44.319   4.150  11.990  0.00  0.00    +0.000 C 
ENDROOT
BRANCH   1   2
ATOM      2  C   UNL     1      45.595   4.925  12.347  0.00  0.00    +0.000 A 
ATOM      3  C   UNL     1      46.058   5.970  11.533  0.00  0.00    +0.000 A 
ATOM      4  C   UNL     1      47.155   6.747  11.919  0.00  0.00    +0.000 A 
ATOM      5  C   UNL     1      47.827   6.489  13.117  0.00  0.00    +0.000 A 
ATOM      6  C   UNL     1      47.413   5.433  13.917  0.00  0.00    +0.000 A 
ATOM      7  C   UNL     1      46.315   4.661  13.530  0.00  0.00    +0.000 A 
BRANCH   6   8
ATOM      8  O   UNL     1      47.959   5.093  15.130  0.00  0.00    +0.000 OA
BRANCH   8   9
ATOM      9  C   UNL     1      47.261   4.161  15.983  0.00  0.00    +0.000 C 
ATOM     10  C   UNL     1      47.245   4.476  17.495  0.00  0.00    +0.000 C 
ATOM     11  C   UNL     1      47.693   3.038  17.787  0.00  0.00    +0.000 C 
ATOM     12  C   UNL     1      48.070   2.881  16.310  0.00  0.00    +0.000 C 
ENDBRANCH   8   9
ENDBRANCH   6   8
ENDBRANCH   1   2
BRANCH   1  14
ATOM     13  C   UNL     1      42.248   5.714  11.786  0.00  0.00    +0.000 C 
ATOM     14  C   UNL     1      43.050   4.745  12.642  0.00  0.00    +0.000 C 
ENDBRANCH   1  14
BRANCH   1  15
ATOM     15  O   UNL     1      44.445   2.814  12.527  0.00  0.00    +0.000 OA
ATOM     16  H   UNL     1      44.483   2.916  13.496  0.00  0.00    +0.000 HD
ENDBRANCH   1  15
BRANCH   1  17
ATOM     17  C   UNL     1      44.195   3.996  10.455  0.00  0.00    +0.000 C 
BRANCH  17  18
ATOM     18  O   UNL     1      44.183   2.615  10.057  0.00  0.00    +0.000 OA
BRANCH  18  19
ATOM     19  C   UNL     1      45.029   2.420   8.978  0.00  0.00    +0.000 A 
ATOM     20  C   UNL     1      45.277   3.501   8.155  0.00  0.00    +0.000 A 
ATOM     21  C   UNL     1      46.164   3.323   7.093  0.00  0.00    +0.000 A 
ATOM     22  C   UNL     1      46.778   2.080   6.888  0.00  0.00    +0.000 A 
ATOM     23  C   UNL     1      46.447   1.060   7.760  0.00  0.00    +0.000 A 
ATOM     24  N   UNL     1      45.588   1.204   8.797  0.00  0.00    +0.000 NA
BRANCH  22  25
ATOM     25  C   UNL     1      47.748   1.908   5.783  0.00  0.00    +0.000 C 
ATOM     26  N   UNL     1      48.208   3.008   5.116  0.00  0.00    +0.000 N 
ATOM     27  O   UNL     1      48.133   0.791   5.456  0.00  0.00    +0.000 OA
ATOM     28  H   UNL     1      47.958   3.969   5.299  0.00  0.00    +0.000 HD
ATOM     29  H   UNL     1      48.854   2.836   4.359  0.00  0.00    +0.000 HD
ENDBRANCH  22  25
ENDBRANCH  18  19
ENDBRANCH  17  18
ENDBRANCH   1  17
TORSDOF 9
ENDMDL
MODEL 2
REMARK VINA RESULT:    -7.529      1.416      1.675
REMARK INTER + INTRA:         -12.470
REMARK INTER:                 -11.773
REMARK INTRA:                  -0.697
REMARK UNBOUND:                -1.201
REMARK  Name = 
REMARK  10 active torsions:
REMARK  status: ('A' for Active; 'I' for Inactive)
REMARK    1  A    between atoms: C_1  and  C_2
REMARK    2  A    between atoms: C_2  and  C_3
REMARK    3  A    between atoms: C_3  and  O_4
REMARK    4  A    between atoms: C_3  and  C_5
REMARK    5  A    between atoms: C_3  and  C_16
REMARK    6  A    between atoms: C_5  and  O_6
REMARK    7  A    between atoms: O_6  and  C_7
REMARK    8  A    between atoms: C_10  and  C_11
REMARK    9  A    between atoms: C_20  and  O_21
REMARK   10  A    between atoms: O_21  and  C_22
REMARK                            x       y       z     vdW  Elec       q    Type
REMARK                         _______ _______ _______ _____ _____    ______ ____
ROOT
ATOM      1  C   UNL     1      44.299   5.721  12.028  0.00  0.00    +0.000 C 
ENDROOT
BRANCH   1   2
ATOM      2  C   UNL     1      45.784   5.928  12.358  0.00  0.00    +0.000 A 
ATOM      3  C   UNL     1      46.633   6.607  11.473  0.00  0.00    +0.000 A 
ATOM      4  C   UNL     1      47.956   6.893  11.826  0.00  0.00    +0.000 A 
ATOM      5  C   UNL     1      48.468   6.493  13.063  0.00  0.00    +0.000 A 
ATOM      6  C   UNL     1      47.658   5.782  13.938  0.00  0.00    +0.000 A 
ATOM      7  C   UNL     1      46.335   5.502  13.583  0.00  0.00    +0.000 A 
BRANCH   6   8
ATOM      8  O   UNL     1      48.020   5.362  15.193  0.00  0.00    +0.000 OA
BRANCH   8   9
ATOM      9  C   UNL     1      47.235   4.348  15.854  0.00  0.00    +0.000 C 
ATOM     10  C   UNL     1      47.127   4.439  17.392  0.00  0.00    +0.000 C 
ATOM     11  C   UNL     1      47.504   2.955  17.495  0.00  0.00    +0.000 C 
ATOM     12  C   UNL     1      47.975   2.999  16.037  0.00  0.00    +0.000 C 
ENDBRANCH   8   9
ENDBRANCH   6   8
ENDBRANCH   1   2
BRANCH   1  14
ATOM     13  C   UNL     1      44.258   8.260  11.454  0.00  0.00    +0.000 C 
ATOM     14  C   UNL     1      43.704   6.869  11.181  0.00  0.00    +0.000 C 
ENDBRANCH   1  14
BRANCH   1  15
ATOM     15  O   UNL     1      43.561   5.729  13.271  0.00  0.00    +0.000 OA
ATOM     16  H   UNL     1      44.116   5.255  13.917  0.00  0.00    +0.000 HD
ENDBRANCH   1  15
BRANCH   1  17
ATOM     17  C   UNL     1      44.078   4.326  11.396  0.00  0.00    +0.000 C 
BRANCH  17  18
ATOM     18  O   UNL     1      43.715   4.420  10.009  0.00  0.00    +0.000 OA
BRANCH  18  19
ATOM     19  C   UNL     1      44.710   3.875   9.214  0.00  0.00    +0.000 A 
ATOM     20  C   UNL     1      44.877   2.505   9.250  0.00  0.00    +0.000 A 
ATOM     21  C   UNL     1      45.847   1.944   8.418  0.00  0.00    +0.000 A 
ATOM     22  C   UNL     1      46.612   2.762   7.576  0.00  0.00    +0.000 A 
ATOM     23  C   UNL     1      46.375   4.123   7.631  0.00  0.00    +0.000 A 
ATOM     24  N   UNL     1      45.443   4.693   8.430  0.00  0.00    +0.000 NA
BRANCH  22  25
ATOM     25  C   UNL     1      47.612   2.157   6.667  0.00  0.00    +0.000 C 
ATOM     26  N   UNL     1      48.057   2.867   5.590  0.00  0.00    +0.000 N 
ATOM     27  O   UNL     1      48.034   1.023   6.867  0.00  0.00    +0.000 OA
ATOM     28  H   UNL     1      47.778   3.802   5.331  0.00  0.00    +0.000 HD
ATOM     29  H   UNL     1      48.725   2.404   4.991  0.00  0.00    +0.000 HD
ENDBRANCH  22  25
ENDBRANCH  18  19
ENDBRANCH  17  18
ENDBRANCH   1  17
TORSDOF 9
ENDMDL
MODEL 3
REMARK VINA RESULT:    -7.505      1.726      3.408
REMARK INTER + INTRA:         -12.435
REMARK INTER:                 -11.270
REMARK INTRA:                  -1.165
REMARK UNBOUND:                -1.201
REMARK  Name = 
REMARK  10 active torsions:
REMARK  status: ('A' for Active; 'I' for Inactive)
REMARK    1  A    between atoms: C_1  and  C_2
REMARK    2  A    between atoms: C_2  and  C_3
REMARK    3  A    between atoms: C_3  and  O_4
REMARK    4  A    between atoms: C_3  and  C_5
REMARK    5  A    between atoms: C_3  and  C_16
REMARK    6  A    between atoms: C_5  and  O_6
REMARK    7  A    between atoms: O_6  and  C_7
REMARK    8  A    between atoms: C_10  and  C_11
REMARK    9  A    between atoms: C_20  and  O_21
REMARK   10  A    between atoms: O_21  and  C_22
REMARK                            x       y       z     vdW  Elec       q    Type
REMARK                         _______ _______ _______ _____ _____    ______ ____
ROOT
ATOM      1  C   UNL     1      44.176   4.245  12.006  0.00  0.00    +0.000 C 
ENDROOT
BRANCH   1   2
ATOM      2  C   UNL     1      45.418   4.930  12.592  0.00  0.00    +0.000 A 
ATOM      3  C   UNL     1      45.966   4.511  13.813  0.00  0.00    +0.000 A 
ATOM      4  C   UNL     1      47.161   5.062  14.289  0.00  0.00    +0.000 A 
ATOM      5  C   UNL     1      47.828   6.054  13.566  0.00  0.00    +0.000 A 
ATOM      6  C   UNL     1      47.282   6.514  12.376  0.00  0.00    +0.000 A 
ATOM      7  C   UNL     1      46.090   5.960  11.902  0.00  0.00    +0.000 A 
BRANCH   6   8
ATOM      8  O   UNL     1      47.848   7.455  11.552  0.00  0.00    +0.000 OA
BRANCH   8   9
ATOM      9  C   UNL     1      48.887   8.313  12.069  0.00  0.00    +0.000 C 
ATOM     10  C   UNL     1      48.986   9.731  11.464  0.00  0.00    +0.000 C 
ATOM     11  C   UNL     1      50.492   9.523  11.254  0.00  0.00    +0.000 C 
ATOM     12  C   UNL     1      50.292   8.021  11.484  0.00  0.00    +0.000 C 
ENDBRANCH   8   9
ENDBRANCH   6   8
ENDBRANCH   1   2
BRANCH   1  14
ATOM     13  C   UNL     1      42.136   5.854  11.847  0.00  0.00    +0.000 C 
ATOM     14  C   UNL     1      43.314   5.196  11.144  0.00  0.00    +0.000 C 
ENDBRANCH   1  14
BRANCH   1  15
ATOM     15  O   UNL     1      43.330   3.839  13.106  0.00  0.00    +0.000 OA
ATOM     16  H   UNL     1      43.784   3.089  13.533  0.00  0.00    +0.000 HD
ENDBRANCH   1  15
BRANCH   1  17
ATOM     17  C   UNL     1      44.577   2.949  11.260  0.00  0.00    +0.000 C 
BRANCH  17  18
ATOM     18  O   UNL     1      43.921   2.843   9.986  0.00  0.00    +0.000 OA
BRANCH  18  19
ATOM     19  C   UNL     1      44.851   2.624   8.984  0.00  0.00    +0.000 A 
ATOM     20  C   UNL     1      45.143   3.679   8.141  0.00  0.00    +0.000 A 
ATOM     21  C   UNL     1      46.112   3.480   7.158  0.00  0.00    +0.000 A 
ATOM     22  C   UNL     1      46.762   2.243   7.048  0.00  0.00    +0.000 A 
ATOM     23  C   UNL     1      46.382   1.249   7.931  0.00  0.00    +0.000 A 
ATOM     24  N   UNL     1      45.444   1.415   8.893  0.00  0.00    +0.000 NA
BRANCH  22  25
ATOM     25  C   UNL     1      47.817   2.051   6.028  0.00  0.00    +0.000 C 
ATOM     26  N   UNL     1      48.987   2.748   6.132  0.00  0.00    +0.000 N 
ATOM     27  O   UNL     1      47.647   1.281   5.089  0.00  0.00    +0.000 OA
ATOM     28  H   UNL     1      49.232   3.404   6.858  0.00  0.00    +0.000 HD
ATOM     29  H   UNL     1      49.668   2.594   5.402  0.00  0.00    +0.000 HD
ENDBRANCH  22  25
ENDBRANCH  18  19
ENDBRANCH  17  18
ENDBRANCH   1  17
TORSDOF 9
ENDMDL
MODEL 4
REMARK VINA RESULT:    -6.764      3.349      8.327
REMARK INTER + INTRA:         -11.326
REMARK INTER:                 -10.506
REMARK INTRA:                  -0.820
REMARK UNBOUND:                -1.201
REMARK  Name = 
REMARK  10 active torsions:
REMARK  status: ('A' for Active; 'I' for Inactive)
REMARK    1  A    between atoms: C_1  and  C_2
REMARK    2  A    between atoms: C_2  and  C_3
REMARK    3  A    between atoms: C_3  and  O_4
REMARK    4  A    between atoms: C_3  and  C_5
REMARK    5  A    between atoms: C_3  and  C_16
REMARK    6  A    between atoms: C_5  and  O_6
REMARK    7  A    between atoms: O_6  and  C_7
REMARK    8  A    between atoms: C_10  and  C_11
REMARK    9  A    between atoms: C_20  and  O_21
REMARK   10  A    between atoms: O_21  and  C_22
REMARK                            x       y       z     vdW  Elec       q    Type
REMARK                         _______ _______ _______ _____ _____    ______ ____
ROOT
ATOM      1  C   UNL     1      46.537   6.440  12.277  0.00  0.00    +0.000 C 
ENDROOT
BRANCH   1   2
ATOM      2  C   UNL     1      45.625   5.538  11.435  0.00  0.00    +0.000 A 
ATOM      3  C   UNL     1      44.449   4.995  11.973  0.00  0.00    +0.000 A 
ATOM      4  C   UNL     1      43.564   4.266  11.172  0.00  0.00    +0.000 A 
ATOM      5  C   UNL     1      43.838   4.049   9.820  0.00  0.00    +0.000 A 
ATOM      6  C   UNL     1      45.017   4.541   9.275  0.00  0.00    +0.000 A 
ATOM      7  C   UNL     1      45.898   5.271  10.078  0.00  0.00    +0.000 A 
BRANCH   6   8
ATOM      8  O   UNL     1      45.392   4.430   7.960  0.00  0.00    +0.000 OA
BRANCH   8   9
ATOM      9  C   UNL     1      45.568   3.119   7.382  0.00  0.00    +0.000 C 
ATOM     10  C   UNL     1      46.116   2.014   8.311  0.00  0.00    +0.000 C 
ATOM     11  C   UNL     1      47.157   1.650   7.244  0.00  0.00    +0.000 C 
ATOM     12  C   UNL     1      46.856   2.974   6.533  0.00  0.00    +0.000 C 
ENDBRANCH   8   9
ENDBRANCH   6   8
ENDBRANCH   1   2
BRANCH   1  14
ATOM     13  C   UNL     1      45.238   8.687  12.064  0.00  0.00    +0.000 C 
ATOM     14  C   UNL     1      45.772   7.590  12.973  0.00  0.00    +0.000 C 
ENDBRANCH   1  14
BRANCH   1  15
ATOM     15  O   UNL     1      47.477   7.081  11.385  0.00  0.00    +0.000 OA
ATOM     16  H   UNL     1      47.166   7.999  11.280  0.00  0.00    +0.000 HD
ENDBRANCH   1  15
BRANCH   1  17
ATOM     17  C   UNL     1      47.376   5.590  13.261  0.00  0.00    +0.000 C 
BRANCH  17  18
ATOM     18  O   UNL     1      46.543   4.819  14.143  0.00  0.00    +0.000 OA
BRANCH  18  19
ATOM     19  C   UNL     1      47.167   4.653  15.369  0.00  0.00    +0.000 A 
ATOM     20  C   UNL     1      48.160   5.551  15.707  0.00  0.00    +0.000 A 
ATOM     21  C   UNL     1      48.760   5.419  16.960  0.00  0.00    +0.000 A 
ATOM     22  C   UNL     1      48.351   4.403  17.834  0.00  0.00    +0.000 A 
ATOM     23  C   UNL     1      47.360   3.547  17.389  0.00  0.00    +0.000 A 
ATOM     24  N   UNL     1      46.763   3.651  16.178  0.00  0.00    +0.000 NA
BRANCH  22  25
ATOM     25  C   UNL     1      48.964   4.291  19.176  0.00  0.00    +0.000 C 
ATOM     26  N   UNL     1      48.519   3.333  20.041  0.00  0.00    +0.000 N 
ATOM     27  O   UNL     1      49.859   5.056  19.521  0.00  0.00    +0.000 OA
ATOM     28  H   UNL     1      47.792   2.655  19.863  0.00  0.00    +0.000 HD
ATOM     29  H   UNL     1      48.958   3.309  20.950  0.00  0.00    +0.000 HD
ENDBRANCH  22  25
ENDBRANCH  18  19
ENDBRANCH  17  18
ENDBRANCH   1  17
TORSDOF 9
ENDMDL
MODEL 5
REMARK VINA RESULT:    -6.555      2.848      4.652
REMARK INTER + INTRA:         -11.013
REMARK INTER:                 -10.121
REMARK INTRA:                  -0.892
REMARK UNBOUND:                -1.201
REMARK  Name = 
REMARK  10 active torsions:
REMARK  status: ('A' for Active; 'I' for Inactive)
REMARK    1  A    between atoms: C_1  and  C_2
REMARK    2  A    between atoms: C_2  and  C_3
REMARK    3  A    between atoms: C_3  and  O_4
REMARK    4  A    between atoms: C_3  and  C_5
REMARK    5  A    between atoms: C_3  and  C_16
REMARK    6  A    between atoms: C_5  and  O_6
REMARK    7  A    between atoms: O_6  and  C_7
REMARK    8  A    between atoms: C_10  and  C_11
REMARK    9  A    between atoms: C_20  and  O_21
REMARK   10  A    between atoms: O_21  and  C_22
REMARK                            x       y       z     vdW  Elec       q    Type
REMARK                         _______ _______ _______ _____ _____    ______ ____
ROOT
ATOM      1  C   UNL     1      44.662   5.650  12.062  0.00  0.00    +0.000 C 
ENDROOT
BRANCH   1   2
ATOM      2  C   UNL     1      45.701   6.778  12.108  0.00  0.00    +0.000 A 
ATOM      3  C   UNL     1      47.073   6.502  12.012  0.00  0.00    +0.000 A 
ATOM      4  C   UNL     1      48.010   7.538  11.941  0.00  0.00    +0.000 A 
ATOM      5  C   UNL     1      47.602   8.874  11.981  0.00  0.00    +0.000 A 
ATOM      6  C   UNL     1      46.253   9.171  12.120  0.00  0.00    +0.000 A 
ATOM      7  C   UNL     1      45.320   8.133  12.187  0.00  0.00    +0.000 A 
BRANCH   6   8
ATOM      8  O   UNL     1      45.714  10.433  12.138  0.00  0.00    +0.000 OA
BRANCH   8   9
ATOM      9  C   UNL     1      44.364  10.633  11.669  0.00  0.00    +0.000 C 
ATOM     10  C   UNL     1      44.036  10.127  10.247  0.00  0.00    +0.000 C 
ATOM     11  C   UNL     1      43.405  11.488   9.922  0.00  0.00    +0.000 C 
ATOM     12  C   UNL     1      44.079  12.071  11.169  0.00  0.00    +0.000 C 
ENDBRANCH   8   9
ENDBRANCH   6   8
ENDBRANCH   1   2
BRANCH   1  14
ATOM     13  C   UNL     1      42.064   5.758  11.922  0.00  0.00    +0.000 C 
ATOM     14  C   UNL     1      43.401   6.025  11.247  0.00  0.00    +0.000 C 
ENDBRANCH   1  14
BRANCH   1  15
ATOM     15  O   UNL     1      44.199   5.415  13.412  0.00  0.00    +0.000 OA
ATOM     16  H   UNL     1      44.937   5.666  13.997  0.00  0.00    +0.000 HD
ENDBRANCH   1  15
BRANCH   1  17
ATOM     17  C   UNL     1      45.319   4.332  11.587  0.00  0.00    +0.000 C 
BRANCH  17  18
ATOM     18  O   UNL     1      44.459   3.597  10.701  0.00  0.00    +0.000 OA
BRANCH  18  19
ATOM     19  C   UNL     1      45.125   3.300   9.523  0.00  0.00    +0.000 A 
ATOM     20  C   UNL     1      45.542   4.358   8.740  0.00  0.00    +0.000 A 
ATOM     21  C   UNL     1      46.253   4.067   7.575  0.00  0.00    +0.000 A 
ATOM     22  C   UNL     1      46.530   2.738   7.232  0.00  0.00    +0.000 A 
ATOM     23  C   UNL     1      46.052   1.753   8.077  0.00  0.00    +0.000 A 
ATOM     24  N   UNL     1      45.357   2.007   9.211  0.00  0.00    +0.000 NA
BRANCH  22  25
ATOM     25  C   UNL     1      47.319   2.438   6.015  0.00  0.00    +0.000 C 
ATOM     26  N   UNL     1      48.601   1.984   6.141  0.00  0.00    +0.000 N 
ATOM     27  O   UNL     1      46.837   2.602   4.900  0.00  0.00    +0.000 OA
ATOM     28  H   UNL     1      49.096   1.815   7.004  0.00  0.00    +0.000 HD
ATOM     29  H   UNL     1      49.102   1.811   5.281  0.00  0.00    +0.000 HD
ENDBRANCH  22  25
ENDBRANCH  18  19
ENDBRANCH  17  18
ENDBRANCH   1  17
TORSDOF 9
ENDMDL
MODEL 6
REMARK VINA RESULT:    -6.458      3.749      8.856
REMARK INTER + INTRA:         -10.868
REMARK INTER:                 -10.209
REMARK INTRA:                  -0.659
REMARK UNBOUND:                -1.201
REMARK  Name = 
REMARK  10 active torsions:
REMARK  status: ('A' for Active; 'I' for Inactive)
REMARK    1  A    between atoms: C_1  and  C_2
REMARK    2  A    between atoms: C_2  and  C_3
REMARK    3  A    between atoms: C_3  and  O_4
REMARK    4  A    between atoms: C_3  and  C_5
REMARK    5  A    between atoms: C_3  and  C_16
REMARK    6  A    between atoms: C_5  and  O_6
REMARK    7  A    between atoms: O_6  and  C_7
REMARK    8  A    between atoms: C_10  and  C_11
REMARK    9  A    between atoms: C_20  and  O_21
REMARK   10  A    between atoms: O_21  and  C_22
REMARK                            x       y       z     vdW  Elec       q    Type
REMARK                         _______ _______ _______ _____ _____    ______ ____
ROOT
ATOM      1  C   UNL     1      46.762   4.652  13.591  0.00  0.00    +0.000 C 
ENDROOT
BRANCH   1   2
ATOM      2  C   UNL     1      45.411   4.466  12.887  0.00  0.00    +0.000 A 
ATOM      3  C   UNL     1      44.329   5.314  13.164  0.00  0.00    +0.000 A 
ATOM      4  C   UNL     1      43.136   5.212  12.440  0.00  0.00    +0.000 A 
ATOM      5  C   UNL     1      42.989   4.253  11.435  0.00  0.00    +0.000 A 
ATOM      6  C   UNL     1      44.032   3.375  11.173  0.00  0.00    +0.000 A 
ATOM      7  C   UNL     1      45.223   3.481  11.896  0.00  0.00    +0.000 A 
BRANCH   6   8
ATOM      8  O   UNL     1      44.034   2.413  10.194  0.00  0.00    +0.000 OA
BRANCH   8   9
ATOM      9  C   UNL     1      44.403   2.775   8.847  0.00  0.00    +0.000 C 
ATOM     10  C   UNL     1      45.779   2.285   8.344  0.00  0.00    +0.000 C 
ATOM     11  C   UNL     1      46.097   3.709   7.866  0.00  0.00    +0.000 C 
ATOM     12  C   UNL     1      44.925   4.227   8.707  0.00  0.00    +0.000 C 
ENDBRANCH   8   9
ENDBRANCH   6   8
ENDBRANCH   1   2
BRANCH   1  14
ATOM     13  C   UNL     1      47.029   6.521  11.797  0.00  0.00    +0.000 C 
ATOM     14  C   UNL     1      47.542   5.888  13.082  0.00  0.00    +0.000 C 
ENDBRANCH   1  14
BRANCH   1  15
ATOM     15  O   UNL     1      47.591   3.510  13.274  0.00  0.00    +0.000 OA
ATOM     16  H   UNL     1      47.715   3.528  12.307  0.00  0.00    +0.000 HD
ENDBRANCH   1  15
BRANCH   1  17
ATOM     17  C   UNL     1      46.575   4.646  15.127  0.00  0.00    +0.000 C 
BRANCH  17  18
ATOM     18  O   UNL     1      47.291   3.565  15.747  0.00  0.00    +0.000 OA
BRANCH  18  19
ATOM     19  C   UNL     1      48.008   4.028  16.837  0.00  0.00    +0.000 A 
ATOM     20  C   UNL     1      47.316   4.721  17.811  0.00  0.00    +0.000 A 
ATOM     21  C   UNL     1      48.024   5.151  18.934  0.00  0.00    +0.000 A 
ATOM     22  C   UNL     1      49.392   4.874  19.053  0.00  0.00    +0.000 A 
ATOM     23  C   UNL     1      49.992   4.189  18.013  0.00  0.00    +0.000 A 
ATOM     24  N   UNL     1      49.330   3.762  16.912  0.00  0.00    +0.000 NA
BRANCH  22  25
ATOM     25  C   UNL     1      50.128   5.299  20.265  0.00  0.00    +0.000 C 
ATOM     26  N   UNL     1      51.060   4.464  20.812  0.00  0.00    +0.000 N 
ATOM     27  O   UNL     1      49.902   6.385  20.787  0.00  0.00    +0.000 OA
ATOM     28  H   UNL     1      51.324   3.552  20.469  0.00  0.00    +0.000 HD
ATOM     29  H   UNL     1      51.523   4.793  21.648  0.00  0.00    +0.000 HD
ENDBRANCH  22  25
ENDBRANCH  18  19
ENDBRANCH  17  18
ENDBRANCH   1  17
TORSDOF 9
ENDMDL
MODEL 7
REMARK VINA RESULT:    -6.379      3.608      7.824
REMARK INTER + INTRA:         -10.750
REMARK INTER:                 -10.456
REMARK INTRA:                  -0.294
REMARK UNBOUND:                -1.201
REMARK  Name = 
REMARK  10 active torsions:
REMARK  status: ('A' for Active; 'I' for Inactive)
REMARK    1  A    between atoms: C_1  and  C_2
REMARK    2  A    between atoms: C_2  and  C_3
REMARK    3  A    between atoms: C_3  and  O_4
REMARK    4  A    between atoms: C_3  and  C_5
REMARK    5  A    between atoms: C_3  and  C_16
REMARK    6  A    between atoms: C_5  and  O_6
REMARK    7  A    between atoms: O_6  and  C_7
REMARK    8  A    between atoms: C_10  and  C_11
REMARK    9  A    between atoms: C_20  and  O_21
REMARK   10  A    between atoms: O_21  and  C_22
REMARK                            x       y       z     vdW  Elec       q    Type
REMARK                         _______ _______ _______ _____ _____    ______ ____
ROOT
ATOM      1  C   UNL     1      44.947   5.780  11.458  0.00  0.00    +0.000 C 
ENDROOT
BRANCH   1   2
ATOM      2  C   UNL     1      44.953   4.584  10.496  0.00  0.00    +0.000 A 
ATOM      3  C   UNL     1      44.390   3.354  10.869  0.00  0.00    +0.000 A 
ATOM      4  C   UNL     1      44.296   2.302   9.952  0.00  0.00    +0.000 A 
ATOM      5  C   UNL     1      44.776   2.445   8.648  0.00  0.00    +0.000 A 
ATOM      6  C   UNL     1      45.376   3.639   8.270  0.00  0.00    +0.000 A 
ATOM      7  C   UNL     1      45.465   4.689   9.187  0.00  0.00    +0.000 A 
BRANCH   6   8
ATOM      8  O   UNL     1      45.857   3.925   7.016  0.00  0.00    +0.000 OA
BRANCH   8   9
ATOM      9  C   UNL     1      47.053   3.266   6.549  0.00  0.00    +0.000 C 
ATOM     10  C   UNL     1      46.957   2.519   5.201  0.00  0.00    +0.000 C 
ATOM     11  C   UNL     1      47.599   1.286   5.851  0.00  0.00    +0.000 C 
ATOM     12  C   UNL     1      47.322   1.900   7.229  0.00  0.00    +0.000 C 
ENDBRANCH   8   9
ENDBRANCH   6   8
ENDBRANCH   1   2
BRANCH   1  14
ATOM     13  C   UNL     1      42.846   5.266  12.908  0.00  0.00    +0.000 C 
ATOM     14  C   UNL     1      44.357   5.435  12.845  0.00  0.00    +0.000 C 
ENDBRANCH   1  14
BRANCH   1  15
ATOM     15  O   UNL     1      44.076   6.793  10.904  0.00  0.00    +0.000 OA
ATOM     16  H   UNL     1      43.174   6.559  11.191  0.00  0.00    +0.000 HD
ENDBRANCH   1  15
BRANCH   1  17
ATOM     17  C   UNL     1      46.357   6.411  11.540  0.00  0.00    +0.000 C 
BRANCH  17  18
ATOM     18  O   UNL     1      47.142   5.827  12.593  0.00  0.00    +0.000 OA
BRANCH  18  19
ATOM     19  C   UNL     1      48.245   6.619  12.865  0.00  0.00    +0.000 A 
ATOM     20  C   UNL     1      48.669   7.486  11.877  0.00  0.00    +0.000 A 
ATOM     21  C   UNL     1      49.752   8.319  12.161  0.00  0.00    +0.000 A 
ATOM     22  C   UNL     1      50.372   8.267  13.416  0.00  0.00    +0.000 A 
ATOM     23  C   UNL     1      49.879   7.351  14.327  0.00  0.00    +0.000 A 
ATOM     24  N   UNL     1      48.833   6.529  14.078  0.00  0.00    +0.000 NA
BRANCH  22  25
ATOM     25  C   UNL     1      51.495   9.181  13.724  0.00  0.00    +0.000 C 
ATOM     26  N   UNL     1      52.703   8.990  13.116  0.00  0.00    +0.000 N 
ATOM     27  O   UNL     1      51.354  10.098  14.525  0.00  0.00    +0.000 OA
ATOM     28  H   UNL     1      52.930   8.270  12.446  0.00  0.00    +0.000 HD
ATOM     29  H   UNL     1      53.442   9.629  13.373  0.00  0.00    +0.000 HD
ENDBRANCH  22  25
ENDBRANCH  18  19
ENDBRANCH  17  18
ENDBRANCH   1  17
TORSDOF 9
ENDMDL
MODEL 8
REMARK VINA RESULT:    -6.308      3.584      6.287
REMARK INTER + INTRA:         -10.643
REMARK INTER:                  -9.028
REMARK INTRA:                  -1.615
REMARK UNBOUND:                -1.201
REMARK  Name = 
REMARK  10 active torsions:
REMARK  status: ('A' for Active; 'I' for Inactive)
REMARK    1  A    between atoms: C_1  and  C_2
REMARK    2  A    between atoms: C_2  and  C_3
REMARK    3  A    between atoms: C_3  and  O_4
REMARK    4  A    between atoms: C_3  and  C_5
REMARK    5  A    between atoms: C_3  and  C_16
REMARK    6  A    between atoms: C_5  and  O_6
REMARK    7  A    between atoms: O_6  and  C_7
REMARK    8  A    between atoms: C_10  and  C_11
REMARK    9  A    between atoms: C_20  and  O_21
REMARK   10  A    between atoms: O_21  and  C_22
REMARK                            x       y       z     vdW  Elec       q    Type
REMARK                         _______ _______ _______ _____ _____    ______ ____
ROOT
ATOM      1  C   UNL     1      48.597   4.601  17.035  0.00  0.00    +0.000 C 
ENDROOT
BRANCH   1   2
ATOM      2  C   UNL     1      49.495   5.767  16.600  0.00  0.00    +0.000 A 
ATOM      3  C   UNL     1      50.864   5.778  16.905  0.00  0.00    +0.000 A 
ATOM      4  C   UNL     1      51.701   6.785  16.411  0.00  0.00    +0.000 A 
ATOM      5  C   UNL     1      51.189   7.812  15.615  0.00  0.00    +0.000 A 
ATOM      6  C   UNL     1      49.829   7.845  15.335  0.00  0.00    +0.000 A 
ATOM      7  C   UNL     1      48.997   6.836  15.828  0.00  0.00    +0.000 A 
BRANCH   6   8
ATOM      8  O   UNL     1      49.203   8.773  14.541  0.00  0.00    +0.000 OA
BRANCH   8   9
ATOM      9  C   UNL     1      49.405   8.734  13.113  0.00  0.00    +0.000 C 
ATOM     10  C   UNL     1      48.155   8.919  12.225  0.00  0.00    +0.000 C 
ATOM     11  C   UNL     1      48.556   7.674  11.422  0.00  0.00    +0.000 C 
ATOM     12  C   UNL     1      49.540   7.302  12.537  0.00  0.00    +0.000 C 
ENDBRANCH   8   9
ENDBRANCH   6   8
ENDBRANCH   1   2
BRANCH   1  14
ATOM     13  C   UNL     1      47.091   5.642  18.888  0.00  0.00    +0.000 C 
ATOM     14  C   UNL     1      48.205   4.669  18.530  0.00  0.00    +0.000 C 
ENDBRANCH   1  14
BRANCH   1  15
ATOM     15  O   UNL     1      49.351   3.377  16.884  0.00  0.00    +0.000 OA
ATOM     16  H   UNL     1      50.190   3.517  17.359  0.00  0.00    +0.000 HD
ENDBRANCH   1  15
BRANCH   1  17
ATOM     17  C   UNL     1      47.374   4.483  16.095  0.00  0.00    +0.000 C 
BRANCH  17  18
ATOM     18  O   UNL     1      47.708   3.814  14.867  0.00  0.00    +0.000 OA
BRANCH  18  19
ATOM     19  C   UNL     1      46.761   4.093  13.896  0.00  0.00    +0.000 A 
ATOM     20  C   UNL     1      46.503   5.421  13.616  0.00  0.00    +0.000 A 
ATOM     21  C   UNL     1      45.584   5.708  12.606  0.00  0.00    +0.000 A 
ATOM     22  C   UNL     1      44.957   4.669  11.907  0.00  0.00    +0.000 A 
ATOM     23  C   UNL     1      45.274   3.375  12.278  0.00  0.00    +0.000 A 
ATOM     24  N   UNL     1      46.160   3.068  13.255  0.00  0.00    +0.000 NA
BRANCH  22  25
ATOM     25  C   UNL     1      44.012   4.980  10.811  0.00  0.00    +0.000 C 
ATOM     26  N   UNL     1      43.210   6.081  10.908  0.00  0.00    +0.000 N 
ATOM     27  O   UNL     1      43.936   4.256   9.825  0.00  0.00    +0.000 OA
ATOM     28  H   UNL     1      43.188   6.743  11.671  0.00  0.00    +0.000 HD
ATOM     29  H   UNL     1      42.571   6.241  10.143  0.00  0.00    +0.000 HD
ENDBRANCH  22  25
ENDBRANCH  18  19
ENDBRANCH  17  18
ENDBRANCH   1  17
TORSDOF 9
ENDMDL
MODEL 9
REMARK VINA RESULT:    -6.245      2.407      3.088
REMARK INTER + INTRA:         -10.549
REMARK INTER:                  -9.789
REMARK INTRA:                  -0.759
REMARK UNBOUND:                -1.201
REMARK  Name = 
REMARK  10 active torsions:
REMARK  status: ('A' for Active; 'I' for Inactive)
REMARK    1  A    between atoms: C_1  and  C_2
REMARK    2  A    between atoms: C_2  and  C_3
REMARK    3  A    between atoms: C_3  and  O_4
REMARK    4  A    between atoms: C_3  and  C_5
REMARK    5  A    between atoms: C_3  and  C_16
REMARK    6  A    between atoms: C_5  and  O_6
REMARK    7  A    between atoms: O_6  and  C_7
REMARK    8  A    between atoms: C_10  and  C_11
REMARK    9  A    between atoms: C_20  and  O_21
REMARK   10  A    between atoms: O_21  and  C_22
REMARK                            x       y       z     vdW  Elec       q    Type
REMARK                         _______ _______ _______ _____ _____    ______ ____
ROOT
ATOM      1  C   UNL     1      44.609   6.028  11.982  0.00  0.00    +0.000 C 
ENDROOT
BRANCH   1   2
ATOM      2  C   UNL     1      45.596   7.202  11.959  0.00  0.00    +0.000 A 
ATOM      3  C   UNL     1      45.143   8.529  11.980  0.00  0.00    +0.000 A 
ATOM      4  C   UNL     1      46.045   9.594  12.073  0.00  0.00    +0.000 A 
ATOM      5  C   UNL     1      47.421   9.361  12.129  0.00  0.00    +0.000 A 
ATOM      6  C   UNL     1      47.895   8.058  12.066  0.00  0.00    +0.000 A 
ATOM      7  C   UNL     1      46.991   6.996  11.977  0.00  0.00    +0.000 A 
BRANCH   6   8
ATOM      8  O   UNL     1      49.215   7.687  12.147  0.00  0.00    +0.000 OA
BRANCH   8   9
ATOM      9  C   UNL     1      49.836   7.560  13.443  0.00  0.00    +0.000 C 
ATOM     10  C   UNL     1      48.920   7.167  14.622  0.00  0.00    +0.000 C 
ATOM     11  C   UNL     1      49.497   8.327  15.443  0.00  0.00    +0.000 C 
ATOM     12  C   UNL     1      50.085   8.914  14.155  0.00  0.00    +0.000 C 
ENDBRANCH   8   9
ENDBRANCH   6   8
ENDBRANCH   1   2
BRANCH   1  14
ATOM     13  C   UNL     1      42.034   5.648  11.890  0.00  0.00    +0.000 C 
ATOM     14  C   UNL     1      43.250   6.370  11.327  0.00  0.00    +0.000 C 
ENDBRANCH   1  14
BRANCH   1  15
ATOM     15  O   UNL     1      44.311   5.723  13.364  0.00  0.00    +0.000 OA
ATOM     16  H   UNL     1      43.637   5.019  13.345  0.00  0.00    +0.000 HD
ENDBRANCH   1  15
BRANCH   1  17
ATOM     17  C   UNL     1      45.266   4.760  11.385  0.00  0.00    +0.000 C 
BRANCH  17  18
ATOM     18  O   UNL     1      44.421   4.134  10.404  0.00  0.00    +0.000 OA
BRANCH  18  19
ATOM     19  C   UNL     1      45.183   3.656   9.351  0.00  0.00    +0.000 A 
ATOM     20  C   UNL     1      45.308   2.287   9.221  0.00  0.00    +0.000 A 
ATOM     21  C   UNL     1      46.036   1.798   8.135  0.00  0.00    +0.000 A 
ATOM     22  C   UNL     1      46.609   2.685   7.214  0.00  0.00    +0.000 A 
ATOM     23  C   UNL     1      46.438   4.037   7.447  0.00  0.00    +0.000 A 
ATOM     24  N   UNL     1      45.739   4.538   8.493  0.00  0.00    +0.000 NA
BRANCH  22  25
ATOM     25  C   UNL     1      47.346   2.159   6.044  0.00  0.00    +0.000 C 
ATOM     26  N   UNL     1      48.706   2.275   5.998  0.00  0.00    +0.000 N 
ATOM     27  O   UNL     1      46.749   1.630   5.112  0.00  0.00    +0.000 OA
ATOM     28  H   UNL     1      49.297   2.691   6.703  0.00  0.00    +0.000 HD
ATOM     29  H   UNL     1      49.161   1.917   5.170  0.00  0.00    +0.000 HD
ENDBRANCH  22  25
ENDBRANCH  18  19
ENDBRANCH  17  18
ENDBRANCH   1  17
TORSDOF 9
ENDMDL
