MODEL 1
REMARK VINA RESULT:    -8.594      0.000      0.000
REMARK INTER + INTRA:         -13.846
REMARK INTER:                 -12.614
REMARK INTRA:                  -1.233
REMARK UNBOUND:                -1.233
REMARK  Name = 
REMARK  9 active torsions:
REMARK  status: ('A' for Active; 'I' for Inactive)
REMARK    1  A    between atoms: C_1  and  C_2
REMARK    2  A    between atoms: C_2  and  C_3
REMARK    3  A    between atoms: C_3  and  N_4
REMARK    4  A    between atoms: C_3  and  C_12
REMARK    5  A    between atoms: N_4  and  C_5
REMARK    6  A    between atoms: C_5  and  C_6
REMARK    7  A    between atoms: C_15  and  C_16
REMARK    8  A    between atoms: C_16  and  N_17
REMARK    9  A    between atoms: C_18  and  C_20
REMARK                            x       y       z     vdW  Elec       q    Type
REMARK                         _______ _______ _______ _____ _____    ______ ____
ROOT
ATOM      1  C   UNL     1      45.429   4.998  11.542  0.00  0.00    +0.000 A 
ATOM      2  C   UNL     1      45.861   4.634  12.833  0.00  0.00    +0.000 A 
ATOM      3  C   UNL     1      46.800   5.414  13.529  0.00  0.00    +0.000 A 
ATOM      4  C   UNL     1      47.350   6.561  12.944  0.00  0.00    +0.000 A 
ATOM      5  C   UNL     1      46.960   6.903  11.652  0.00  0.00    +0.000 A 
ATOM      6  C   UNL     1      45.983   6.164  10.992  0.00  0.00    +0.000 A 
ENDROOT
BRANCH   1   7
ATOM      7  C   UNL     1      44.406   4.131  10.780  0.00  0.00    +0.000 C 
BRANCH   7   9
ATOM      8  C   UNL     1      42.423   5.442  11.845  0.00  0.00    +0.000 C 
ATOM      9  C   UNL     1      43.005   4.084  11.461  0.00  0.00    +0.000 C 
ENDBRANCH   7   9
BRANCH   7  10
ATOM     10  N   UNL     1      44.952   2.766  10.630  0.00  0.00    +0.000 NA
ATOM     11  H   UNL     1      45.968   2.804  10.691  0.00  0.00    +0.000 HD
BRANCH  10  12
ATOM     12  C   UNL     1      44.608   2.109   9.370  0.00  0.00    +0.000 C 
BRANCH  12  13
ATOM     13  C   UNL     1      45.694   2.273   8.333  0.00  0.00    +0.000 A 
ATOM     14  C   UNL     1      46.507   1.178   7.992  0.00  0.00    +0.000 A 
ATOM     15  C   UNL     1      47.445   1.280   6.965  0.00  0.00    +0.000 A 
ATOM     16  C   UNL     1      47.580   2.478   6.267  0.00  0.00    +0.000 A 
ATOM     17  C   UNL     1      46.789   3.574   6.603  0.00  0.00    +0.000 A 
ATOM     18  C   UNL     1      45.848   3.474   7.626  0.00  0.00    +0.000 A 
ENDBRANCH  12  13
ENDBRANCH  10  12
ENDBRANCH   7  10
ENDBRANCH   1   7
BRANCH   4  19
ATOM     19  C   UNL     1      48.357   7.428  13.647  0.00  0.00    +0.000 C 
BRANCH  19  20
ATOM     20  N   UNL     1      48.184   7.373  15.075  0.00  0.00    +0.000 N 
ATOM     21  C   UNL     1      49.198   6.932  15.887  0.00  0.00    +0.000 C 
ATOM     22  O   UNL     1      50.294   6.606  15.444  0.00  0.00    +0.000 OA
ATOM     23  H   UNL     1      47.230   7.368  15.421  0.00  0.00    +0.000 HD
BRANCH  21  24
ATOM     24  C   UNL     1      48.921   6.937  17.326  0.00  0.00    +0.000 A 
ATOM     25  C   UNL     1      48.632   8.135  17.965  0.00  0.00    +0.000 A 
ATOM     26  S   UNL     1      48.267   7.955  19.621  0.00  0.00    +0.000 S 
ATOM     27  C   UNL     1      48.541   6.275  19.554  0.00  0.00    +0.000 A 
ATOM     28  N   UNL     1      48.423   5.501  20.668  0.00  0.00    +0.000 NA
ATOM     29  C   UNL     1      48.684   4.252  20.478  0.00  0.00    +0.000 A 
ATOM     30  N   UNL     1      49.054   3.706  19.277  0.00  0.00    +0.000 N 
ATOM     31  C   UNL     1      49.161   4.435  18.122  0.00  0.00    +0.000 A 
ATOM     32  O   UNL     1      49.457   3.916  17.054  0.00  0.00    +0.000 OA
ATOM     33  C   UNL     1      48.887   5.855  18.282  0.00  0.00    +0.000 A 
ATOM     34  H   UNL     1      49.235   2.714  19.197  0.00  0.00    +0.000 HD
ENDBRANCH  21  24
ENDBRANCH  19  20
ENDBRANCH   4  19
TORSDOF 8
ENDMDL
MODEL 2
REMARK VINA RESULT:    -8.469      1.318      2.155
REMARK INTER + INTRA:         -13.662
REMARK INTER:                 -12.256
REMARK INTRA:                  -1.406
REMARK UNBOUND:                -1.233
REMARK  Name = 
REMARK  9 active torsions:
REMARK  status: ('A' for Active; 'I' for Inactive)
REMARK    1  A    between atoms: C_1  and  C_2
REMARK    2  A    between atoms: C_2  and  C_3
REMARK    3  A    between atoms: C_3  and  N_4
REMARK    4  A    between atoms: C_3  and  C_12
REMARK    5  A    between atoms: N_4  and  C_5
REMARK    6  A    between atoms: C_5  and  C_6
REMARK    7  A    between atoms: C_15  and  C_16
REMARK    8  A    between atoms: C_16  and  N_17
REMARK    9  A    between atoms: C_18  and  C_20
REMARK                            x       y       z     vdW  Elec       q    Type
REMARK                         _______ _______ _______ _____ _____    ______ ____
ROOT
ATOM      1  C   UNL     1      45.448   4.900  11.639  0.00  0.00    +0.000 A 
ATOM      2  C   UNL     1      46.013   6.090  11.139  0.00  0.00    +0.000 A 
ATOM      3  C   UNL     1      46.951   6.819  11.891  0.00  0.00    +0.000 A 
ATOM      4  C   UNL     1      47.328   6.391  13.170  0.00  0.00    +0.000 A 
ATOM      5  C   UNL     1      46.742   5.239  13.688  0.00  0.00    +0.000 A 
ATOM      6  C   UNL     1      45.863   4.487  12.914  0.00  0.00    +0.000 A 
ENDROOT
BRANCH   1   7
ATOM      7  C   UNL     1      44.412   4.112  10.812  0.00  0.00    +0.000 C 
BRANCH   7   9
ATOM      8  C   UNL     1      42.459   5.472  11.872  0.00  0.00    +0.000 C 
ATOM      9  C   UNL     1      42.988   4.105  11.447  0.00  0.00    +0.000 C 
ENDBRANCH   7   9
BRANCH   7  10
ATOM     10  N   UNL     1      44.899   2.730  10.626  0.00  0.00    +0.000 NA
ATOM     11  H   UNL     1      45.915   2.720  10.706  0.00  0.00    +0.000 HD
BRANCH  10  12
ATOM     12  C   UNL     1      44.551   2.131   9.339  0.00  0.00    +0.000 C 
BRANCH  12  13
ATOM     13  C   UNL     1      45.652   2.304   8.319  0.00  0.00    +0.000 A 
ATOM     14  C   UNL     1      46.498   1.224   8.013  0.00  0.00    +0.000 A 
ATOM     15  C   UNL     1      47.453   1.332   7.002  0.00  0.00    +0.000 A 
ATOM     16  C   UNL     1      47.571   2.520   6.284  0.00  0.00    +0.000 A 
ATOM     17  C   UNL     1      46.745   3.601   6.585  0.00  0.00    +0.000 A 
ATOM     18  C   UNL     1      45.788   3.496   7.593  0.00  0.00    +0.000 A 
ENDBRANCH  12  13
ENDBRANCH  10  12
ENDBRANCH   7  10
ENDBRANCH   1   7
BRANCH   4  19
ATOM     19  C   UNL     1      48.326   7.134  14.013  0.00  0.00    +0.000 C 
BRANCH  19  20
ATOM     20  N   UNL     1      48.158   6.829  15.409  0.00  0.00    +0.000 N 
ATOM     21  C   UNL     1      49.229   6.453  16.179  0.00  0.00    +0.000 C 
ATOM     22  O   UNL     1      50.368   6.398  15.729  0.00  0.00    +0.000 OA
ATOM     23  H   UNL     1      47.217   6.603  15.719  0.00  0.00    +0.000 HD
BRANCH  21  24
ATOM     24  C   UNL     1      48.947   6.186  17.593  0.00  0.00    +0.000 A 
ATOM     25  C   UNL     1      49.234   4.937  18.126  0.00  0.00    +0.000 A 
ATOM     26  S   UNL     1      48.911   4.818  19.796  0.00  0.00    +0.000 S 
ATOM     27  C   UNL     1      48.323   6.414  19.852  0.00  0.00    +0.000 A 
ATOM     28  N   UNL     1      47.849   6.946  21.012  0.00  0.00    +0.000 NA
ATOM     29  C   UNL     1      47.411   8.155  20.903  0.00  0.00    +0.000 A 
ATOM     30  N   UNL     1      47.402   8.880  19.741  0.00  0.00    +0.000 N 
ATOM     31  C   UNL     1      47.891   8.402  18.554  0.00  0.00    +0.000 A 
ATOM     32  O   UNL     1      47.905   9.084  17.538  0.00  0.00    +0.000 OA
ATOM     33  C   UNL     1      48.389   7.036  18.618  0.00  0.00    +0.000 A 
ATOM     34  H   UNL     1      47.051   9.829  19.729  0.00  0.00    +0.000 HD
ENDBRANCH  21  24
ENDBRANCH  19  20
ENDBRANCH   4  19
TORSDOF 8
ENDMDL
MODEL 3
REMARK VINA RESULT:    -8.266      1.546      1.819
REMARK INTER + INTRA:         -13.365
REMARK INTER:                 -11.836
REMARK INTRA:                  -1.529
REMARK UNBOUND:                -1.233
REMARK  Name = 
REMARK  9 active torsions:
REMARK  status: ('A' for Active; 'I' for Inactive)
REMARK    1  A    between atoms: C_1  and  C_2
REMARK    2  A    between atoms: C_2  and  C_3
REMARK    3  A    between atoms: C_3  and  N_4
REMARK    4  A    between atoms: C_3  and  C_12
REMARK    5  A    between atoms: N_4  and  C_5
REMARK    6  A    between atoms: C_5  and  C_6
REMARK    7  A    between atoms: C_15  and  C_16
REMARK    8  A    between atoms: C_16  and  N_17
REMARK    9  A    between atoms: C_18  and  C_20
REMARK                            x       y       z     vdW  Elec       q    Type
REMARK                         _______ _______ _______ _____ _____    ______ ____
ROOT
ATOM      1  C   UNL     1      44.542   5.640  11.152  0.00  0.00    +0.000 A 
ATOM      2  C   UNL     1      44.070   6.739  11.897  0.00  0.00    +0.000 A 
ATOM      3  C   UNL     1      44.959   7.592  12.573  0.00  0.00    +0.000 A 
ATOM      4  C   UNL     1      46.339   7.353  12.544  0.00  0.00    +0.000 A 
ATOM      5  C   UNL     1      46.810   6.244  11.845  0.00  0.00    +0.000 A 
ATOM      6  C   UNL     1      45.931   5.442  11.125  0.00  0.00    +0.000 A 
ENDROOT
BRANCH   1   7
ATOM      7  C   UNL     1      43.560   4.704  10.421  0.00  0.00    +0.000 C 
BRANCH   7   9
ATOM      8  C   UNL     1      43.606   3.459  12.709  0.00  0.00    +0.000 C 
ATOM      9  C   UNL     1      43.193   3.429  11.240  0.00  0.00    +0.000 C 
ENDBRANCH   7   9
BRANCH   7  10
ATOM     10  N   UNL     1      44.139   4.327   9.115  0.00  0.00    +0.000 NA
ATOM     11  H   UNL     1      43.495   4.596   8.373  0.00  0.00    +0.000 HD
BRANCH  10  12
ATOM     12  C   UNL     1      44.416   2.899   8.962  0.00  0.00    +0.000 C 
BRANCH  12  13
ATOM     13  C   UNL     1      45.678   2.649   8.171  0.00  0.00    +0.000 A 
ATOM     14  C   UNL     1      46.260   1.371   8.166  0.00  0.00    +0.000 A 
ATOM     15  C   UNL     1      47.365   1.094   7.361  0.00  0.00    +0.000 A 
ATOM     16  C   UNL     1      47.899   2.092   6.550  0.00  0.00    +0.000 A 
ATOM     17  C   UNL     1      47.337   3.367   6.553  0.00  0.00    +0.000 A 
ATOM     18  C   UNL     1      46.232   3.646   7.355  0.00  0.00    +0.000 A 
ENDBRANCH  12  13
ENDBRANCH  10  12
ENDBRANCH   7  10
ENDBRANCH   1   7
BRANCH   4  19
ATOM     19  C   UNL     1      47.330   8.235  13.250  0.00  0.00    +0.000 C 
BRANCH  19  20
ATOM     20  N   UNL     1      47.763   7.644  14.489  0.00  0.00    +0.000 N 
ATOM     21  C   UNL     1      49.003   7.067  14.595  0.00  0.00    +0.000 C 
ATOM     22  O   UNL     1      49.803   7.064  13.665  0.00  0.00    +0.000 OA
ATOM     23  H   UNL     1      47.039   7.395  15.155  0.00  0.00    +0.000 HD
BRANCH  21  24
ATOM     24  C   UNL     1      49.349   6.514  15.908  0.00  0.00    +0.000 A 
ATOM     25  C   UNL     1      50.385   7.077  16.639  0.00  0.00    +0.000 A 
ATOM     26  S   UNL     1      50.610   6.361  18.170  0.00  0.00    +0.000 S 
ATOM     27  C   UNL     1      49.366   5.234  17.885  0.00  0.00    +0.000 A 
ATOM     28  N   UNL     1      49.052   4.288  18.811  0.00  0.00    +0.000 NA
ATOM     29  C   UNL     1      48.108   3.484  18.453  0.00  0.00    +0.000 A 
ATOM     30  N   UNL     1      47.451   3.539  17.252  0.00  0.00    +0.000 N 
ATOM     31  C   UNL     1      47.710   4.486  16.297  0.00  0.00    +0.000 A 
ATOM     32  O   UNL     1      47.082   4.536  15.247  0.00  0.00    +0.000 OA
ATOM     33  C   UNL     1      48.775   5.414  16.646  0.00  0.00    +0.000 A 
ATOM     34  H   UNL     1      46.712   2.881  17.039  0.00  0.00    +0.000 HD
ENDBRANCH  21  24
ENDBRANCH  19  20
ENDBRANCH   4  19
TORSDOF 8
ENDMDL
MODEL 4
REMARK VINA RESULT:    -7.579      1.703      2.208
REMARK INTER + INTRA:         -12.356
REMARK INTER:                 -11.344
REMARK INTRA:                  -1.012
REMARK UNBOUND:                -1.233
REMARK  Name = 
REMARK  9 active torsions:
REMARK  status: ('A' for Active; 'I' for Inactive)
REMARK    1  A    between atoms: C_1  and  C_2
REMARK    2  A    between atoms: C_2  and  C_3
REMARK    3  A    between atoms: C_3  and  N_4
REMARK    4  A    between atoms: C_3  and  C_12
REMARK    5  A    between atoms: N_4  and  C_5
REMARK    6  A    between atoms: C_5  and  C_6
REMARK    7  A    between atoms: C_15  and  C_16
REMARK    8  A    between atoms: C_16  and  N_17
REMARK    9  A    between atoms: C_18  and  C_20
REMARK                            x       y       z     vdW  Elec       q    Type
REMARK                         _______ _______ _______ _____ _____    ______ ____
ROOT
ATOM      1  C   UNL     1      45.472   5.032  11.659  0.00  0.00    +0.000 A 
ATOM      2  C   UNL     1      45.959   4.548  12.890  0.00  0.00    +0.000 A 
ATOM      3  C   UNL     1      46.923   5.264  13.620  0.00  0.00    +0.000 A 
ATOM      4  C   UNL     1      47.444   6.467  13.127  0.00  0.00    +0.000 A 
ATOM      5  C   UNL     1      46.998   6.930  11.892  0.00  0.00    +0.000 A 
ATOM      6  C   UNL     1      45.997   6.252  11.205  0.00  0.00    +0.000 A 
ENDROOT
BRANCH   1   7
ATOM      7  C   UNL     1      44.422   4.237  10.859  0.00  0.00    +0.000 C 
BRANCH   7   9
ATOM      8  C   UNL     1      42.867   5.141  12.744  0.00  0.00    +0.000 C 
ATOM      9  C   UNL     1      43.000   4.269  11.499  0.00  0.00    +0.000 C 
ENDBRANCH   7   9
BRANCH   7  10
ATOM     10  N   UNL     1      44.887   2.842  10.712  0.00  0.00    +0.000 NA
ATOM     11  H   UNL     1      45.905   2.823  10.759  0.00  0.00    +0.000 HD
BRANCH  10  12
ATOM     12  C   UNL     1      44.491   2.198   9.461  0.00  0.00    +0.000 C 
BRANCH  12  13
ATOM     13  C   UNL     1      45.571   2.293   8.409  0.00  0.00    +0.000 A 
ATOM     14  C   UNL     1      45.860   3.533   7.812  0.00  0.00    +0.000 A 
ATOM     15  C   UNL     1      46.921   3.662   6.917  0.00  0.00    +0.000 A 
ATOM     16  C   UNL     1      47.707   2.553   6.609  0.00  0.00    +0.000 A 
ATOM     17  C   UNL     1      47.425   1.317   7.185  0.00  0.00    +0.000 A 
ATOM     18  C   UNL     1      46.366   1.185   8.083  0.00  0.00    +0.000 A 
ENDBRANCH  12  13
ENDBRANCH  10  12
ENDBRANCH   7  10
ENDBRANCH   1   7
BRANCH   4  19
ATOM     19  C   UNL     1      48.475   7.269  13.870  0.00  0.00    +0.000 C 
BRANCH  19  20
ATOM     20  N   UNL     1      48.970   6.550  15.014  0.00  0.00    +0.000 N 
ATOM     21  C   UNL     1      48.930   7.110  16.265  0.00  0.00    +0.000 C 
ATOM     22  O   UNL     1      48.442   8.217  16.469  0.00  0.00    +0.000 OA
ATOM     23  H   UNL     1      49.609   5.783  14.831  0.00  0.00    +0.000 HD
BRANCH  21  24
ATOM     24  C   UNL     1      49.441   6.281  17.361  0.00  0.00    +0.000 A 
ATOM     25  C   UNL     1      48.572   5.837  18.348  0.00  0.00    +0.000 A 
ATOM     26  S   UNL     1      49.314   4.829  19.507  0.00  0.00    +0.000 S 
ATOM     27  C   UNL     1      50.835   4.999  18.761  0.00  0.00    +0.000 A 
ATOM     28  N   UNL     1      51.940   4.396  19.278  0.00  0.00    +0.000 NA
ATOM     29  C   UNL     1      53.029   4.631  18.627  0.00  0.00    +0.000 A 
ATOM     30  N   UNL     1      53.114   5.415  17.507  0.00  0.00    +0.000 N 
ATOM     31  C   UNL     1      52.029   6.023  16.931  0.00  0.00    +0.000 A 
ATOM     32  O   UNL     1      52.126   6.688  15.908  0.00  0.00    +0.000 OA
ATOM     33  C   UNL     1      50.774   5.798  17.633  0.00  0.00    +0.000 A 
ATOM     34  H   UNL     1      54.001   5.550  17.039  0.00  0.00    +0.000 HD
ENDBRANCH  21  24
ENDBRANCH  19  20
ENDBRANCH   4  19
TORSDOF 8
ENDMDL
MODEL 5
REMARK VINA RESULT:    -7.369      2.281      2.783
REMARK INTER + INTRA:         -12.049
REMARK INTER:                 -10.839
REMARK INTRA:                  -1.210
REMARK UNBOUND:                -1.233
REMARK  Name = 
REMARK  9 active torsions:
REMARK  status: ('A' for Active; 'I' for Inactive)
REMARK    1  A    between atoms: C_1  and  C_2
REMARK    2  A    between atoms: C_2  and  C_3
REMARK    3  A    between atoms: C_3  and  N_4
REMARK    4  A    between atoms: C_3  and  C_12
REMARK    5  A    between atoms: N_4  and  C_5
REMARK    6  A    between atoms: C_5  and  C_6
REMARK    7  A    between atoms: C_15  and  C_16
REMARK    8  A    between atoms: C_16  and  N_17
REMARK    9  A    between atoms: C_18  and  C_20
REMARK                            x       y       z     vdW  Elec       q    Type
REMARK                         _______ _______ _______ _____ _____    ______ ____
ROOT
ATOM      1  C   UNL     1      46.062   5.685  12.425  0.00  0.00    +0.000 A 
ATOM      2  C   UNL     1      46.457   4.856  13.493  0.00  0.00    +0.000 A 
ATOM      3  C   UNL     1      47.312   5.331  14.501  0.00  0.00    +0.000 A 
ATOM      4  C   UNL     1      47.815   6.637  14.454  0.00  0.00    +0.000 A 
ATOM      5  C   UNL     1      47.464   7.449  13.379  0.00  0.00    +0.000 A 
ATOM      6  C   UNL     1      46.566   6.995  12.418  0.00  0.00    +0.000 A 
ENDROOT
BRANCH   1   7
ATOM      7  C   UNL     1      45.131   5.153  11.317  0.00  0.00    +0.000 C 
BRANCH   7   9
ATOM      8  C   UNL     1      42.835   5.271  12.542  0.00  0.00    +0.000 C 
ATOM      9  C   UNL     1      43.693   5.752  11.375  0.00  0.00    +0.000 C 
ENDBRANCH   7   9
BRANCH   7  10
ATOM     10  N   UNL     1      45.078   3.679  11.402  0.00  0.00    +0.000 NA
ATOM     11  H   UNL     1      46.027   3.313  11.464  0.00  0.00    +0.000 HD
BRANCH  10  12
ATOM     12  C   UNL     1      44.427   3.028  10.266  0.00  0.00    +0.000 C 
BRANCH  12  13
ATOM     13  C   UNL     1      45.349   2.917   9.075  0.00  0.00    +0.000 A 
ATOM     14  C   UNL     1      45.842   1.660   8.685  0.00  0.00    +0.000 A 
ATOM     15  C   UNL     1      46.609   1.523   7.528  0.00  0.00    +0.000 A 
ATOM     16  C   UNL     1      46.891   2.642   6.747  0.00  0.00    +0.000 A 
ATOM     17  C   UNL     1      46.417   3.895   7.128  0.00  0.00    +0.000 A 
ATOM     18  C   UNL     1      45.648   4.035   8.282  0.00  0.00    +0.000 A 
ENDBRANCH  12  13
ENDBRANCH  10  12
ENDBRANCH   7  10
ENDBRANCH   1   7
BRANCH   4  19
ATOM     19  C   UNL     1      48.733   7.192  15.507  0.00  0.00    +0.000 C 
BRANCH  19  20
ATOM     20  N   UNL     1      49.740   6.234  15.878  0.00  0.00    +0.000 N 
ATOM     21  C   UNL     1      50.280   6.236  17.139  0.00  0.00    +0.000 C 
ATOM     22  O   UNL     1      49.906   7.017  18.007  0.00  0.00    +0.000 OA
ATOM     23  H   UNL     1      50.244   5.783  15.121  0.00  0.00    +0.000 HD
BRANCH  21  24
ATOM     24  C   UNL     1      51.283   5.203  17.415  0.00  0.00    +0.000 A 
ATOM     25  C   UNL     1      52.577   5.575  17.749  0.00  0.00    +0.000 A 
ATOM     26  S   UNL     1      53.597   4.256  18.106  0.00  0.00    +0.000 S 
ATOM     27  C   UNL     1      52.358   3.137  17.768  0.00  0.00    +0.000 A 
ATOM     28  N   UNL     1      52.580   1.797  17.856  0.00  0.00    +0.000 NA
ATOM     29  C   UNL     1      51.562   1.068  17.548  0.00  0.00    +0.000 A 
ATOM     30  N   UNL     1      50.343   1.554  17.158  0.00  0.00    +0.000 N 
ATOM     31  C   UNL     1      50.058   2.893  17.079  0.00  0.00    +0.000 A 
ATOM     32  O   UNL     1      48.948   3.301  16.764  0.00  0.00    +0.000 OA
ATOM     33  C   UNL     1      51.178   3.763  17.407  0.00  0.00    +0.000 A 
ATOM     34  H   UNL     1      49.582   0.924  16.939  0.00  0.00    +0.000 HD
ENDBRANCH  21  24
ENDBRANCH  19  20
ENDBRANCH   4  19
TORSDOF 8
ENDMDL
MODEL 6
REMARK VINA RESULT:    -7.234      3.329      5.184
REMARK INTER + INTRA:         -11.851
REMARK INTER:                 -10.557
REMARK INTRA:                  -1.293
REMARK UNBOUND:                -1.233
REMARK  Name = 
REMARK  9 active torsions:
REMARK  status: ('A' for Active; 'I' for Inactive)
REMARK    1  A    between atoms: C_1  and  C_2
REMARK    2  A    between atoms: C_2  and  C_3
REMARK    3  A    between atoms: C_3  and  N_4
REMARK    4  A    between atoms: C_3  and  C_12
REMARK    5  A    between atoms: N_4  and  C_5
REMARK    6  A    between atoms: C_5  and  C_6
REMARK    7  A    between atoms: C_15  and  C_16
REMARK    8  A    between atoms: C_16  and  N_17
REMARK    9  A    between atoms: C_18  and  C_20
REMARK                            x       y       z     vdW  Elec       q    Type
REMARK                         _______ _______ _______ _____ _____    ______ ____
ROOT
ATOM      1  C   UNL     1      45.601   4.843  11.846  0.00  0.00    +0.000 A 
ATOM      2  C   UNL     1      46.203   6.077  11.531  0.00  0.00    +0.000 A 
ATOM      3  C   UNL     1      47.095   6.697  12.422  0.00  0.00    +0.000 A 
ATOM      4  C   UNL     1      47.388   6.112  13.662  0.00  0.00    +0.000 A 
ATOM      5  C   UNL     1      46.763   4.914  13.997  0.00  0.00    +0.000 A 
ATOM      6  C   UNL     1      45.931   4.273  13.085  0.00  0.00    +0.000 A 
ENDROOT
BRANCH   1   7
ATOM      7  C   UNL     1      44.615   4.175  10.866  0.00  0.00    +0.000 C 
BRANCH   7   9
ATOM      8  C   UNL     1      42.643   5.600  11.799  0.00  0.00    +0.000 C 
ATOM      9  C   UNL     1      43.133   4.226  11.347  0.00  0.00    +0.000 C 
ENDBRANCH   7   9
BRANCH   7  10
ATOM     10  N   UNL     1      45.035   2.776  10.644  0.00  0.00    +0.000 NA
ATOM     11  H   UNL     1      46.053   2.724  10.673  0.00  0.00    +0.000 HD
BRANCH  10  12
ATOM     12  C   UNL     1      44.600   2.206   9.369  0.00  0.00    +0.000 C 
BRANCH  12  13
ATOM     13  C   UNL     1      45.689   2.264   8.324  0.00  0.00    +0.000 A 
ATOM     14  C   UNL     1      46.456   1.120   8.047  0.00  0.00    +0.000 A 
ATOM     15  C   UNL     1      47.394   1.123   7.016  0.00  0.00    +0.000 A 
ATOM     16  C   UNL     1      47.575   2.271   6.247  0.00  0.00    +0.000 A 
ATOM     17  C   UNL     1      46.829   3.416   6.518  0.00  0.00    +0.000 A 
ATOM     18  C   UNL     1      45.889   3.415   7.547  0.00  0.00    +0.000 A 
ENDBRANCH  12  13
ENDBRANCH  10  12
ENDBRANCH   7  10
ENDBRANCH   1   7
BRANCH   4  19
ATOM     19  C   UNL     1      48.334   6.734  14.649  0.00  0.00    +0.000 C 
BRANCH  19  20
ATOM     20  N   UNL     1      49.413   7.413  13.981  0.00  0.00    +0.000 N 
ATOM     21  C   UNL     1      49.410   8.779  13.855  0.00  0.00    +0.000 C 
ATOM     22  O   UNL     1      48.523   9.477  14.333  0.00  0.00    +0.000 OA
ATOM     23  H   UNL     1      49.988   6.856  13.357  0.00  0.00    +0.000 HD
BRANCH  21  24
ATOM     24  C   UNL     1      50.569   9.367  13.175  0.00  0.00    +0.000 A 
ATOM     25  C   UNL     1      51.151  10.520  13.684  0.00  0.00    +0.000 A 
ATOM     26  S   UNL     1      52.526  11.030  12.815  0.00  0.00    +0.000 S 
ATOM     27  C   UNL     1      52.356   9.761  11.693  0.00  0.00    +0.000 A 
ATOM     28  N   UNL     1      53.217   9.630  10.647  0.00  0.00    +0.000 NA
ATOM     29  C   UNL     1      52.955   8.640   9.862  0.00  0.00    +0.000 A 
ATOM     30  N   UNL     1      51.910   7.770  10.027  0.00  0.00    +0.000 N 
ATOM     31  C   UNL     1      51.032   7.840  11.077  0.00  0.00    +0.000 A 
ATOM     32  O   UNL     1      50.129   7.026  11.222  0.00  0.00    +0.000 OA
ATOM     33  C   UNL     1      51.276   8.947  11.988  0.00  0.00    +0.000 A 
ATOM     34  H   UNL     1      51.768   7.007   9.378  0.00  0.00    +0.000 HD
ENDBRANCH  21  24
ENDBRANCH  19  20
ENDBRANCH   4  19
TORSDOF 8
ENDMDL
MODEL 7
REMARK VINA RESULT:    -7.230      3.319      5.524
REMARK INTER + INTRA:         -11.844
REMARK INTER:                  -9.987
REMARK INTRA:                  -1.857
REMARK UNBOUND:                -1.233
REMARK  Name = 
REMARK  9 active torsions:
REMARK  status: ('A' for Active; 'I' for Inactive)
REMARK    1  A    between atoms: C_1  and  C_2
REMARK    2  A    between atoms: C_2  and  C_3
REMARK    3  A    between atoms: C_3  and  N_4
REMARK    4  A    between atoms: C_3  and  C_12
REMARK    5  A    between atoms: N_4  and  C_5
REMARK    6  A    between atoms: C_5  and  C_6
REMARK    7  A    between atoms: C_15  and  C_16
REMARK    8  A    between atoms: C_16  and  N_17
REMARK    9  A    between atoms: C_18  and  C_20
REMARK                            x       y       z     vdW  Elec       q    Type
REMARK                         _______ _______ _______ _____ _____    ______ ____
ROOT
ATOM      1  C   UNL     1      47.442   5.937  13.926  0.00  0.00    +0.000 A 
ATOM      2  C   UNL     1      46.935   4.624  13.870  0.00  0.00    +0.000 A 
ATOM      3  C   UNL     1      47.042   3.758  14.972  0.00  0.00    +0.000 A 
ATOM      4  C   UNL     1      47.682   4.173  16.147  0.00  0.00    +0.000 A 
ATOM      5  C   UNL     1      48.223   5.455  16.194  0.00  0.00    +0.000 A 
ATOM      6  C   UNL     1      48.057   6.330  15.125  0.00  0.00    +0.000 A 
ENDROOT
BRANCH   1   7
ATOM      7  C   UNL     1      47.329   6.878  12.710  0.00  0.00    +0.000 C 
BRANCH   7   9
ATOM      8  C   UNL     1      49.701   7.564  11.881  0.00  0.00    +0.000 C 
ATOM      9  C   UNL     1      48.448   7.961  12.658  0.00  0.00    +0.000 C 
ENDBRANCH   7   9
BRANCH   7  10
ATOM     10  N   UNL     1      45.996   7.517  12.721  0.00  0.00    +0.000 NA
ATOM     11  H   UNL     1      45.489   7.218  13.552  0.00  0.00    +0.000 HD
BRANCH  10  12
ATOM     12  C   UNL     1      45.164   7.205  11.560  0.00  0.00    +0.000 C 
BRANCH  12  13
ATOM     13  C   UNL     1      44.516   5.845  11.678  0.00  0.00    +0.000 A 
ATOM     14  C   UNL     1      44.778   4.858  10.712  0.00  0.00    +0.000 A 
ATOM     15  C   UNL     1      44.273   3.567  10.858  0.00  0.00    +0.000 A 
ATOM     16  C   UNL     1      43.502   3.247  11.973  0.00  0.00    +0.000 A 
ATOM     17  C   UNL     1      43.226   4.218  12.932  0.00  0.00    +0.000 A 
ATOM     18  C   UNL     1      43.731   5.509  12.790  0.00  0.00    +0.000 A 
ENDBRANCH  12  13
ENDBRANCH  10  12
ENDBRANCH   7  10
ENDBRANCH   1   7
BRANCH   4  19
ATOM     19  C   UNL     1      47.823   3.285  17.351  0.00  0.00    +0.000 C 
BRANCH  19  20
ATOM     20  N   UNL     1      49.206   3.107  17.708  0.00  0.00    +0.000 N 
ATOM     21  C   UNL     1      50.005   2.242  17.006  0.00  0.00    +0.000 C 
ATOM     22  O   UNL     1      49.595   1.619  16.033  0.00  0.00    +0.000 OA
ATOM     23  H   UNL     1      49.476   3.387  18.646  0.00  0.00    +0.000 HD
BRANCH  21  24
ATOM     24  C   UNL     1      51.402   2.154  17.443  0.00  0.00    +0.000 A 
ATOM     25  C   UNL     1      51.976   0.909  17.659  0.00  0.00    +0.000 A 
ATOM     26  S   UNL     1      53.623   0.983  18.095  0.00  0.00    +0.000 S 
ATOM     27  C   UNL     1      53.610   2.686  18.065  0.00  0.00    +0.000 A 
ATOM     28  N   UNL     1      54.726   3.401  18.376  0.00  0.00    +0.000 NA
ATOM     29  C   UNL     1      54.566   4.680  18.339  0.00  0.00    +0.000 A 
ATOM     30  N   UNL     1      53.393   5.311  18.020  0.00  0.00    +0.000 N 
ATOM     31  C   UNL     1      52.249   4.639  17.673  0.00  0.00    +0.000 A 
ATOM     32  O   UNL     1      51.224   5.228  17.356  0.00  0.00    +0.000 OA
ATOM     33  C   UNL     1      52.372   3.190  17.710  0.00  0.00    +0.000 A 
ATOM     34  H   UNL     1      53.339   6.321  18.000  0.00  0.00    +0.000 HD
ENDBRANCH  21  24
ENDBRANCH  19  20
ENDBRANCH   4  19
TORSDOF 8
ENDMDL
MODEL 8
REMARK VINA RESULT:    -7.140      3.172      9.012
REMARK INTER + INTRA:         -11.711
REMARK INTER:                  -9.589
REMARK INTRA:                  -2.122
REMARK UNBOUND:                -1.233
REMARK  Name = 
REMARK  9 active torsions:
REMARK  status: ('A' for Active; 'I' for Inactive)
REMARK    1  A    between atoms: C_1  and  C_2
REMARK    2  A    between atoms: C_2  and  C_3
REMARK    3  A    between atoms: C_3  and  N_4
REMARK    4  A    between atoms: C_3  and  C_12
REMARK    5  A    between atoms: N_4  and  C_5
REMARK    6  A    between atoms: C_5  and  C_6
REMARK    7  A    between atoms: C_15  and  C_16
REMARK    8  A    between atoms: C_16  and  N_17
REMARK    9  A    between atoms: C_18  and  C_20
REMARK                            x       y       z     vdW  Elec       q    Type
REMARK                         _______ _______ _______ _____ _____    ______ ____
ROOT
ATOM      1  C   UNL     1      49.005   8.106  16.185  0.00  0.00    +0.000 A 
ATOM      2  C   UNL     1      49.245   6.925  15.455  0.00  0.00    +0.000 A 
ATOM      3  C   UNL     1      48.825   6.801  14.120  0.00  0.00    +0.000 A 
ATOM      4  C   UNL     1      48.133   7.843  13.488  0.00  0.00    +0.000 A 
ATOM      5  C   UNL     1      47.856   8.996  14.217  0.00  0.00    +0.000 A 
ATOM      6  C   UNL     1      48.329   9.139  15.517  0.00  0.00    +0.000 A 
ENDROOT
BRANCH   1   7
ATOM      7  C   UNL     1      49.460   8.231  17.653  0.00  0.00    +0.000 C 
BRANCH   7   9
ATOM      8  C   UNL     1      51.982   8.800  17.972  0.00  0.00    +0.000 C 
ATOM      9  C   UNL     1      50.910   7.716  17.898  0.00  0.00    +0.000 C 
ENDBRANCH   7   9
BRANCH   7  10
ATOM     10  N   UNL     1      48.503   7.505  18.514  0.00  0.00    +0.000 NA
ATOM     11  H   UNL     1      48.151   8.139  19.230  0.00  0.00    +0.000 HD
BRANCH  10  12
ATOM     12  C   UNL     1      49.063   6.338  19.194  0.00  0.00    +0.000 C 
BRANCH  12  13
ATOM     13  C   UNL     1      48.757   5.055  18.457  0.00  0.00    +0.000 A 
ATOM     14  C   UNL     1      47.456   4.811  17.988  0.00  0.00    +0.000 A 
ATOM     15  C   UNL     1      47.176   3.682  17.217  0.00  0.00    +0.000 A 
ATOM     16  C   UNL     1      48.197   2.786  16.906  0.00  0.00    +0.000 A 
ATOM     17  C   UNL     1      49.489   3.011  17.374  0.00  0.00    +0.000 A 
ATOM     18  C   UNL     1      49.772   4.139  18.142  0.00  0.00    +0.000 A 
ENDBRANCH  12  13
ENDBRANCH  10  12
ENDBRANCH   7  10
ENDBRANCH   1   7
BRANCH   4  19
ATOM     19  C   UNL     1      47.664   7.759  12.064  0.00  0.00    +0.000 C 
BRANCH  19  20
ATOM     20  N   UNL     1      46.965   6.525  11.817  0.00  0.00    +0.000 N 
ATOM     21  C   UNL     1      45.607   6.442  11.986  0.00  0.00    +0.000 C 
ATOM     22  O   UNL     1      44.930   7.411  12.312  0.00  0.00    +0.000 OA
ATOM     23  H   UNL     1      47.521   5.675  11.822  0.00  0.00    +0.000 HD
BRANCH  21  24
ATOM     24  C   UNL     1      44.996   5.143  11.687  0.00  0.00    +0.000 A 
ATOM     25  C   UNL     1      44.315   4.459  12.684  0.00  0.00    +0.000 A 
ATOM     26  S   UNL     1      43.608   3.002  12.152  0.00  0.00    +0.000 S 
ATOM     27  C   UNL     1      44.237   3.206  10.583  0.00  0.00    +0.000 A 
ATOM     28  N   UNL     1      44.019   2.276   9.614  0.00  0.00    +0.000 NA
ATOM     29  C   UNL     1      44.576   2.546   8.482  0.00  0.00    +0.000 A 
ATOM     30  N   UNL     1      45.331   3.661   8.230  0.00  0.00    +0.000 N 
ATOM     31  C   UNL     1      45.558   4.640   9.161  0.00  0.00    +0.000 A 
ATOM     32  O   UNL     1      46.206   5.645   8.899  0.00  0.00    +0.000 OA
ATOM     33  C   UNL     1      44.961   4.380  10.462  0.00  0.00    +0.000 A 
ATOM     34  H   UNL     1      45.731   3.816   7.314  0.00  0.00    +0.000 HD
ENDBRANCH  21  24
ENDBRANCH  19  20
ENDBRANCH   4  19
TORSDOF 8
ENDMDL
MODEL 9
REMARK VINA RESULT:    -6.889      1.992      2.934
REMARK INTER + INTRA:         -11.343
REMARK INTER:                  -9.999
REMARK INTRA:                  -1.344
REMARK UNBOUND:                -1.233
REMARK  Name = 
REMARK  9 active torsions:
REMARK  status: ('A' for Active; 'I' for Inactive)
REMARK    1  A    between atoms: C_1  and  C_2
REMARK    2  A    between atoms: C_2  and  C_3
REMARK    3  A    between atoms: C_3  and  N_4
REMARK    4  A    between atoms: C_3  and  C_12
REMARK    5  A    between atoms: N_4  and  C_5
REMARK    6  A    between atoms: C_5  and  C_6
REMARK    7  A    between atoms: C_15  and  C_16
REMARK    8  A    between atoms: C_16  and  N_17
REMARK    9  A    between atoms: C_18  and  C_20
REMARK                            x       y       z     vdW  Elec       q    Type
REMARK                         _______ _______ _______ _____ _____    ______ ____
ROOT
ATOM      1  C   UNL     1      45.680   6.706  11.688  0.00  0.00    +0.000 A 
ATOM      2  C   UNL     1      45.344   7.695  12.633  0.00  0.00    +0.000 A 
ATOM      3  C   UNL     1      46.339   8.439  13.289  0.00  0.00    +0.000 A 
ATOM      4  C   UNL     1      47.695   8.196  13.037  0.00  0.00    +0.000 A 
ATOM      5  C   UNL     1      48.036   7.191  12.136  0.00  0.00    +0.000 A 
ATOM      6  C   UNL     1      47.047   6.502  11.442  0.00  0.00    +0.000 A 
ENDROOT
BRANCH   1   7
ATOM      7  C   UNL     1      44.583   5.887  10.980  0.00  0.00    +0.000 C 
BRANCH   7   9
ATOM      8  C   UNL     1      42.819   5.033  12.697  0.00  0.00    +0.000 C 
ATOM      9  C   UNL     1      44.039   4.706  11.839  0.00  0.00    +0.000 C 
ENDBRANCH   7   9
BRANCH   7  10
ATOM     10  N   UNL     1      45.113   5.386   9.694  0.00  0.00    +0.000 NA
ATOM     11  H   UNL     1      45.038   6.121   8.993  0.00  0.00    +0.000 HD
BRANCH  10  12
ATOM     12  C   UNL     1      44.426   4.206   9.173  0.00  0.00    +0.000 C 
BRANCH  12  13
ATOM     13  C   UNL     1      45.366   3.289   8.426  0.00  0.00    +0.000 A 
ATOM     14  C   UNL     1      46.285   3.826   7.508  0.00  0.00    +0.000 A 
ATOM     15  C   UNL     1      47.229   3.010   6.886  0.00  0.00    +0.000 A 
ATOM     16  C   UNL     1      47.266   1.648   7.176  0.00  0.00    +0.000 A 
ATOM     17  C   UNL     1      46.354   1.101   8.076  0.00  0.00    +0.000 A 
ATOM     18  C   UNL     1      45.411   1.914   8.701  0.00  0.00    +0.000 A 
ENDBRANCH  12  13
ENDBRANCH  10  12
ENDBRANCH   7  10
ENDBRANCH   1   7
BRANCH   4  19
ATOM     19  C   UNL     1      48.797   8.963  13.713  0.00  0.00    +0.000 C 
BRANCH  19  20
ATOM     20  N   UNL     1      48.724   8.828  15.143  0.00  0.00    +0.000 N 
ATOM     21  C   UNL     1      49.238   7.721  15.770  0.00  0.00    +0.000 C 
ATOM     22  O   UNL     1      49.808   6.828  15.153  0.00  0.00    +0.000 OA
ATOM     23  H   UNL     1      48.033   9.397  15.623  0.00  0.00    +0.000 HD
BRANCH  21  24
ATOM     24  C   UNL     1      49.128   7.697  17.232  0.00  0.00    +0.000 A 
ATOM     25  C   UNL     1      48.504   6.625  17.855  0.00  0.00    +0.000 A 
ATOM     26  S   UNL     1      48.524   6.720  19.557  0.00  0.00    +0.000 S 
ATOM     27  C   UNL     1      49.318   8.226  19.519  0.00  0.00    +0.000 A 
ATOM     28  N   UNL     1      49.618   8.890  20.668  0.00  0.00    +0.000 NA
ATOM     29  C   UNL     1      50.195  10.030  20.489  0.00  0.00    +0.000 A 
ATOM     30  N   UNL     1      50.497  10.568  19.267  0.00  0.00    +0.000 N 
ATOM     31  C   UNL     1      50.241   9.930  18.081  0.00  0.00    +0.000 A 
ATOM     32  O   UNL     1      50.556  10.416  17.003  0.00  0.00    +0.000 OA
ATOM     33  C   UNL     1      49.580   8.642  18.225  0.00  0.00    +0.000 A 
ATOM     34  H   UNL     1      50.960  11.465  19.199  0.00  0.00    +0.000 HD
ENDBRANCH  21  24
ENDBRANCH  19  20
ENDBRANCH   4  19
TORSDOF 8
ENDMDL
