MODEL 1
REMARK VINA RESULT:    -8.298      0.000      0.000
REMARK INTER + INTRA:         -12.709
REMARK INTER:                 -11.694
REMARK INTRA:                  -1.015
REMARK UNBOUND:                -1.015
REMARK  Name = 
REMARK  7 active torsions:
REMARK  status: ('A' for Active; 'I' for Inactive)
REMARK    1  A    between atoms: C_2  and  C_20
REMARK    2  A    between atoms: N_3  and  C_4
REMARK    3  A    between atoms: C_4  and  C_5
REMARK    4  A    between atoms: C_8  and  C_9
REMARK    5  A    between atoms: C_9  and  N_10
REMARK    6  A    between atoms: N_10  and  C_11
REMARK    7  A    between atoms: C_11  and  C_12
REMARK                            x       y       z     vdW  Elec       q    Type
REMARK                         _______ _______ _______ _____ _____    ______ ____
ROOT
ATOM      1  C   UNL     1      45.980   6.894  12.321  0.00  0.00    +0.000 A 
ATOM      2  C   UNL     1      46.280   6.499  11.013  0.00  0.00    +0.000 A 
ATOM      3  C   UNL     1      45.551   5.479  10.398  0.00  0.00    +0.000 A 
ATOM      4  C   UNL     1      44.503   4.835  11.075  0.00  0.00    +0.000 A 
ATOM      5  C   UNL     1      44.185   5.250  12.373  0.00  0.00    +0.000 A 
ATOM      6  C   UNL     1      44.912   6.275  12.989  0.00  0.00    +0.000 A 
ENDROOT
BRANCH   1   7
ATOM      7  C   UNL     1      46.768   7.996  12.980  0.00  0.00    +0.000 C 
BRANCH   7  10
ATOM      8  O   UNL     1      48.852   6.152  13.412  0.00  0.00    +0.000 OA
ATOM      9  C   UNL     1      48.344   6.714  14.377  0.00  0.00    +0.000 C 
ATOM     10  N   UNL     1      47.280   7.569  14.256  0.00  0.00    +0.000 N 
ATOM     11  H   UNL     1      47.018   8.145  15.050  0.00  0.00    +0.000 HD
BRANCH   9  12
ATOM     12  C   UNL     1      48.816   6.458  15.746  0.00  0.00    +0.000 A 
ATOM     13  C   UNL     1      49.753   7.306  16.319  0.00  0.00    +0.000 A 
ATOM     14  S   UNL     1      50.205   6.857  17.901  0.00  0.00    +0.000 S 
ATOM     15  C   UNL     1      49.127   5.540  17.894  0.00  0.00    +0.000 A 
ATOM     16  N   UNL     1      48.996   4.739  18.986  0.00  0.00    +0.000 NA
ATOM     17  C   UNL     1      48.111   3.808  18.861  0.00  0.00    +0.000 A 
ATOM     18  N   UNL     1      47.355   3.594  17.737  0.00  0.00    +0.000 N 
ATOM     19  C   UNL     1      47.511   4.327  16.586  0.00  0.00    +0.000 A 
ATOM     20  O   UNL     1      46.918   4.019  15.557  0.00  0.00    +0.000 OA
ATOM     21  C   UNL     1      48.455   5.425  16.690  0.00  0.00    +0.000 A 
ATOM     22  H   UNL     1      46.702   2.826  17.691  0.00  0.00    +0.000 HD
ENDBRANCH   9  12
ENDBRANCH   7  10
ENDBRANCH   1   7
BRANCH   4  23
ATOM     23  C   UNL     1      43.754   3.695  10.413  0.00  0.00    +0.000 C 
BRANCH  23  24
ATOM     24  N   UNL     1      44.600   2.509  10.386  0.00  0.00    +0.000 NA
ATOM     25  H   UNL     1      44.281   1.857  11.102  0.00  0.00    +0.000 HD
BRANCH  24  26
ATOM     26  C   UNL     1      44.668   1.843   9.091  0.00  0.00    +0.000 C 
BRANCH  26  27
ATOM     27  C   UNL     1      45.929   2.330   8.344  0.00  0.00    +0.000 C 
ATOM     28  C   UNL     1      46.684   1.163   7.686  0.00  0.00    +0.000 C 
ATOM     29  C   UNL     1      47.873   1.681   6.874  0.00  0.00    +0.000 C 
ATOM     30  C   UNL     1      47.451   2.771   5.892  0.00  0.00    +0.000 C 
ATOM     31  N   UNL     1      46.774   3.864   6.581  0.00  0.00    +0.000 NA
ATOM     32  C   UNL     1      45.580   3.392   7.286  0.00  0.00    +0.000 C 
ATOM     33  H   UNL     1      46.499   4.577   5.907  0.00  0.00    +0.000 HD
ENDBRANCH  26  27
ENDBRANCH  24  26
ENDBRANCH  23  24
ENDBRANCH   4  23
TORSDOF 7
ENDMDL
MODEL 2
REMARK VINA RESULT:    -8.167      1.391      1.548
REMARK INTER + INTRA:         -12.524
REMARK INTER:                 -11.494
REMARK INTRA:                  -1.030
REMARK UNBOUND:                -1.015
REMARK  Name = 
REMARK  7 active torsions:
REMARK  status: ('A' for Active; 'I' for Inactive)
REMARK    1  A    between atoms: C_2  and  C_20
REMARK    2  A    between atoms: N_3  and  C_4
REMARK    3  A    between atoms: C_4  and  C_5
REMARK    4  A    between atoms: C_8  and  C_9
REMARK    5  A    between atoms: C_9  and  N_10
REMARK    6  A    between atoms: N_10  and  C_11
REMARK    7  A    between atoms: C_11  and  C_12
REMARK                            x       y       z     vdW  Elec       q    Type
REMARK                         _______ _______ _______ _____ _____    ______ ____
ROOT
ATOM      1  C   UNL     1      46.914   5.711  12.746  0.00  0.00    +0.000 A 
ATOM      2  C   UNL     1      46.259   6.182  11.604  0.00  0.00    +0.000 A 
ATOM      3  C   UNL     1      45.181   5.476  11.065  0.00  0.00    +0.000 A 
ATOM      4  C   UNL     1      44.730   4.286  11.659  0.00  0.00    +0.000 A 
ATOM      5  C   UNL     1      45.368   3.831  12.818  0.00  0.00    +0.000 A 
ATOM      6  C   UNL     1      46.445   4.539  13.362  0.00  0.00    +0.000 A 
ENDROOT
BRANCH   1   7
ATOM      7  C   UNL     1      48.074   6.476  13.325  0.00  0.00    +0.000 C 
BRANCH   7  10
ATOM      8  O   UNL     1      50.240   6.849  15.085  0.00  0.00    +0.000 OA
ATOM      9  C   UNL     1      49.108   6.747  15.546  0.00  0.00    +0.000 C 
ATOM     10  N   UNL     1      48.012   6.493  14.764  0.00  0.00    +0.000 N 
ATOM     11  H   UNL     1      47.086   6.601  15.163  0.00  0.00    +0.000 HD
BRANCH   9  12
ATOM     12  C   UNL     1      48.862   6.836  16.994  0.00  0.00    +0.000 A 
ATOM     13  C   UNL     1      48.534   8.059  17.561  0.00  0.00    +0.000 A 
ATOM     14  S   UNL     1      48.300   7.990  19.248  0.00  0.00    +0.000 S 
ATOM     15  C   UNL     1      48.581   6.312  19.274  0.00  0.00    +0.000 A 
ATOM     16  N   UNL     1      48.501   5.608  20.436  0.00  0.00    +0.000 NA
ATOM     17  C   UNL     1      48.691   4.338  20.304  0.00  0.00    +0.000 A 
ATOM     18  N   UNL     1      48.970   3.709  19.118  0.00  0.00    +0.000 N 
ATOM     19  C   UNL     1      49.139   4.389  17.937  0.00  0.00    +0.000 A 
ATOM     20  O   UNL     1      49.526   3.812  16.926  0.00  0.00    +0.000 OA
ATOM     21  C   UNL     1      48.881   5.816  18.018  0.00  0.00    +0.000 A 
ATOM     22  H   UNL     1      49.142   2.715  19.087  0.00  0.00    +0.000 HD
ENDBRANCH   9  12
ENDBRANCH   7  10
ENDBRANCH   1   7
BRANCH   4  23
ATOM     23  C   UNL     1      43.593   3.505  11.033  0.00  0.00    +0.000 C 
BRANCH  23  24
ATOM     24  N   UNL     1      43.863   3.303   9.616  0.00  0.00    +0.000 NA
ATOM     25  H   UNL     1      44.359   4.116   9.253  0.00  0.00    +0.000 HD
BRANCH  24  26
ATOM     26  C   UNL     1      44.598   2.082   9.307  0.00  0.00    +0.000 C 
BRANCH  26  27
ATOM     27  C   UNL     1      45.864   2.450   8.503  0.00  0.00    +0.000 C 
ATOM     28  C   UNL     1      46.504   1.212   7.855  0.00  0.00    +0.000 C 
ATOM     29  C   UNL     1      47.698   1.615   6.987  0.00  0.00    +0.000 C 
ATOM     30  C   UNL     1      47.323   2.706   5.987  0.00  0.00    +0.000 C 
ATOM     31  N   UNL     1      46.756   3.866   6.666  0.00  0.00    +0.000 NA
ATOM     32  C   UNL     1      45.556   3.506   7.425  0.00  0.00    +0.000 C 
ATOM     33  H   UNL     1      46.510   4.579   5.979  0.00  0.00    +0.000 HD
ENDBRANCH  26  27
ENDBRANCH  24  26
ENDBRANCH  23  24
ENDBRANCH   4  23
TORSDOF 7
ENDMDL
MODEL 3
REMARK VINA RESULT:    -7.663      1.918      2.477
REMARK INTER + INTRA:         -11.813
REMARK INTER:                 -10.672
REMARK INTRA:                  -1.142
REMARK UNBOUND:                -1.015
REMARK  Name = 
REMARK  7 active torsions:
REMARK  status: ('A' for Active; 'I' for Inactive)
REMARK    1  A    between atoms: C_2  and  C_20
REMARK    2  A    between atoms: N_3  and  C_4
REMARK    3  A    between atoms: C_4  and  C_5
REMARK    4  A    between atoms: C_8  and  C_9
REMARK    5  A    between atoms: C_9  and  N_10
REMARK    6  A    between atoms: N_10  and  C_11
REMARK    7  A    between atoms: C_11  and  C_12
REMARK                            x       y       z     vdW  Elec       q    Type
REMARK                         _______ _______ _______ _____ _____    ______ ____
ROOT
ATOM      1  C   UNL     1      46.623   6.459  12.766  0.00  0.00    +0.000 A 
ATOM      2  C   UNL     1      46.065   5.401  13.491  0.00  0.00    +0.000 A 
ATOM      3  C   UNL     1      45.214   4.487  12.866  0.00  0.00    +0.000 A 
ATOM      4  C   UNL     1      44.907   4.606  11.501  0.00  0.00    +0.000 A 
ATOM      5  C   UNL     1      45.489   5.649  10.770  0.00  0.00    +0.000 A 
ATOM      6  C   UNL     1      46.344   6.562  11.394  0.00  0.00    +0.000 A 
ENDROOT
BRANCH   1   7
ATOM      7  C   UNL     1      47.541   7.441  13.443  0.00  0.00    +0.000 C 
BRANCH   7  10
ATOM      8  O   UNL     1      49.987   6.833  14.699  0.00  0.00    +0.000 OA
ATOM      9  C   UNL     1      48.966   6.880  15.376  0.00  0.00    +0.000 C 
ATOM     10  N   UNL     1      47.728   7.099  14.829  0.00  0.00    +0.000 N 
ATOM     11  H   UNL     1      46.949   7.311  15.444  0.00  0.00    +0.000 HD
BRANCH   9  12
ATOM     12  C   UNL     1      49.000   6.645  16.827  0.00  0.00    +0.000 A 
ATOM     13  C   UNL     1      49.477   5.437  17.316  0.00  0.00    +0.000 A 
ATOM     14  S   UNL     1      49.431   5.321  19.016  0.00  0.00    +0.000 S 
ATOM     15  C   UNL     1      48.817   6.901  19.163  0.00  0.00    +0.000 A 
ATOM     16  N   UNL     1      48.575   7.446  20.386  0.00  0.00    +0.000 NA
ATOM     17  C   UNL     1      48.154   8.666  20.352  0.00  0.00    +0.000 A 
ATOM     18  N   UNL     1      47.939   9.387  19.205  0.00  0.00    +0.000 N 
ATOM     19  C   UNL     1      48.094   8.851  17.950  0.00  0.00    +0.000 A 
ATOM     20  O   UNL     1      47.758   9.479  16.951  0.00  0.00    +0.000 OA
ATOM     21  C   UNL     1      48.619   7.498  17.930  0.00  0.00    +0.000 A 
ATOM     22  H   UNL     1      47.577  10.328  19.246  0.00  0.00    +0.000 HD
ENDBRANCH   9  12
ENDBRANCH   7  10
ENDBRANCH   1   7
BRANCH   4  23
ATOM     23  C   UNL     1      43.942   3.637  10.848  0.00  0.00    +0.000 C 
BRANCH  23  24
ATOM     24  N   UNL     1      44.631   2.385  10.560  0.00  0.00    +0.000 NA
ATOM     25  H   UNL     1      44.271   1.658  11.176  0.00  0.00    +0.000 HD
BRANCH  24  26
ATOM     26  C   UNL     1      44.550   1.956   9.169  0.00  0.00    +0.000 C 
BRANCH  26  27
ATOM     27  C   UNL     1      45.833   2.399   8.433  0.00  0.00    +0.000 C 
ATOM     28  C   UNL     1      46.550   1.208   7.777  0.00  0.00    +0.000 C 
ATOM     29  C   UNL     1      47.763   1.685   6.975  0.00  0.00    +0.000 C 
ATOM     30  C   UNL     1      47.388   2.791   5.992  0.00  0.00    +0.000 C 
ATOM     31  N   UNL     1      46.745   3.907   6.680  0.00  0.00    +0.000 NA
ATOM     32  C   UNL     1      45.530   3.475   7.375  0.00  0.00    +0.000 C 
ATOM     33  H   UNL     1      46.500   4.631   6.005  0.00  0.00    +0.000 HD
ENDBRANCH  26  27
ENDBRANCH  24  26
ENDBRANCH  23  24
ENDBRANCH   4  23
TORSDOF 7
ENDMDL
MODEL 4
REMARK VINA RESULT:    -7.374      1.766      2.296
REMARK INTER + INTRA:         -11.406
REMARK INTER:                 -10.167
REMARK INTRA:                  -1.240
REMARK UNBOUND:                -1.015
REMARK  Name = 
REMARK  7 active torsions:
REMARK  status: ('A' for Active; 'I' for Inactive)
REMARK    1  A    between atoms: C_2  and  C_20
REMARK    2  A    between atoms: N_3  and  C_4
REMARK    3  A    between atoms: C_4  and  C_5
REMARK    4  A    between atoms: C_8  and  C_9
REMARK    5  A    between atoms: C_9  and  N_10
REMARK    6  A    between atoms: N_10  and  C_11
REMARK    7  A    between atoms: C_11  and  C_12
REMARK                            x       y       z     vdW  Elec       q    Type
REMARK                         _______ _______ _______ _____ _____    ______ ____
ROOT
ATOM      1  C   UNL     1      46.966   6.795  12.720  0.00  0.00    +0.000 A 
ATOM      2  C   UNL     1      45.731   7.334  12.347  0.00  0.00    +0.000 A 
ATOM      3  C   UNL     1      44.563   6.578  12.472  0.00  0.00    +0.000 A 
ATOM      4  C   UNL     1      44.603   5.269  12.980  0.00  0.00    +0.000 A 
ATOM      5  C   UNL     1      45.836   4.742  13.380  0.00  0.00    +0.000 A 
ATOM      6  C   UNL     1      47.006   5.499  13.258  0.00  0.00    +0.000 A 
ENDROOT
BRANCH   1   7
ATOM      7  C   UNL     1      48.222   7.613  12.584  0.00  0.00    +0.000 C 
BRANCH   7  10
ATOM      8  O   UNL     1      48.719   8.618  15.167  0.00  0.00    +0.000 OA
ATOM      9  C   UNL     1      49.367   7.657  14.767  0.00  0.00    +0.000 C 
ATOM     10  N   UNL     1      49.236   7.155  13.499  0.00  0.00    +0.000 N 
ATOM     11  H   UNL     1      49.653   6.257  13.279  0.00  0.00    +0.000 HD
BRANCH   9  12
ATOM     12  C   UNL     1      50.380   7.012  15.617  0.00  0.00    +0.000 A 
ATOM     13  C   UNL     1      51.704   7.421  15.537  0.00  0.00    +0.000 A 
ATOM     14  S   UNL     1      52.749   6.559  16.573  0.00  0.00    +0.000 S 
ATOM     15  C   UNL     1      51.460   5.643  17.202  0.00  0.00    +0.000 A 
ATOM     16  N   UNL     1      51.671   4.717  18.176  0.00  0.00    +0.000 NA
ATOM     17  C   UNL     1      50.600   4.128  18.593  0.00  0.00    +0.000 A 
ATOM     18  N   UNL     1      49.339   4.369  18.113  0.00  0.00    +0.000 N 
ATOM     19  C   UNL     1      49.091   5.234  17.075  0.00  0.00    +0.000 A 
ATOM     20  O   UNL     1      47.972   5.320  16.579  0.00  0.00    +0.000 OA
ATOM     21  C   UNL     1      50.254   5.966  16.606  0.00  0.00    +0.000 A 
ATOM     22  H   UNL     1      48.546   3.849  18.458  0.00  0.00    +0.000 HD
ENDBRANCH   9  12
ENDBRANCH   7  10
ENDBRANCH   1   7
BRANCH   4  23
ATOM     23  C   UNL     1      43.335   4.444  13.063  0.00  0.00    +0.000 C 
BRANCH  23  24
ATOM     24  N   UNL     1      42.927   4.043  11.722  0.00  0.00    +0.000 NA
ATOM     25  H   UNL     1      43.142   4.795  11.070  0.00  0.00    +0.000 HD
BRANCH  24  26
ATOM     26  C   UNL     1      43.514   2.790  11.261  0.00  0.00    +0.000 C 
BRANCH  26  27
ATOM     27  C   UNL     1      44.624   3.106  10.234  0.00  0.00    +0.000 C 
ATOM     28  C   UNL     1      44.885   1.916   9.297  0.00  0.00    +0.000 C 
ATOM     29  C   UNL     1      45.918   2.287   8.231  0.00  0.00    +0.000 C 
ATOM     30  C   UNL     1      45.535   3.571   7.499  0.00  0.00    +0.000 C 
ATOM     31  N   UNL     1      45.337   4.670   8.439  0.00  0.00    +0.000 NA
ATOM     32  C   UNL     1      44.283   4.359   9.408  0.00  0.00    +0.000 C 
ATOM     33  H   UNL     1      45.079   5.515   7.930  0.00  0.00    +0.000 HD
ENDBRANCH  26  27
ENDBRANCH  24  26
ENDBRANCH  23  24
ENDBRANCH   4  23
TORSDOF 7
ENDMDL
MODEL 5
REMARK VINA RESULT:    -6.951      2.658      3.334
REMARK INTER + INTRA:         -10.810
REMARK INTER:                  -9.636
REMARK INTRA:                  -1.174
REMARK UNBOUND:                -1.015
REMARK  Name = 
REMARK  7 active torsions:
REMARK  status: ('A' for Active; 'I' for Inactive)
REMARK    1  A    between atoms: C_2  and  C_20
REMARK    2  A    between atoms: N_3  and  C_4
REMARK    3  A    between atoms: C_4  and  C_5
REMARK    4  A    between atoms: C_8  and  C_9
REMARK    5  A    between atoms: C_9  and  N_10
REMARK    6  A    between atoms: N_10  and  C_11
REMARK    7  A    between atoms: C_11  and  C_12
REMARK                            x       y       z     vdW  Elec       q    Type
REMARK                         _______ _______ _______ _____ _____    ______ ____
ROOT
ATOM      1  C   UNL     1      45.510   7.237  12.543  0.00  0.00    +0.000 A 
ATOM      2  C   UNL     1      45.900   6.193  13.389  0.00  0.00    +0.000 A 
ATOM      3  C   UNL     1      45.749   4.864  12.987  0.00  0.00    +0.000 A 
ATOM      4  C   UNL     1      45.212   4.548  11.728  0.00  0.00    +0.000 A 
ATOM      5  C   UNL     1      44.849   5.594  10.872  0.00  0.00    +0.000 A 
ATOM      6  C   UNL     1      45.003   6.926  11.271  0.00  0.00    +0.000 A 
ENDROOT
BRANCH   1   7
ATOM      7  C   UNL     1      45.675   8.668  12.980  0.00  0.00    +0.000 C 
BRANCH   7  10
ATOM      8  O   UNL     1      47.848   9.824  11.611  0.00  0.00    +0.000 OA
ATOM      9  C   UNL     1      47.979   9.525  12.793  0.00  0.00    +0.000 C 
ATOM     10  N   UNL     1      46.995   8.895  13.509  0.00  0.00    +0.000 N 
ATOM     11  H   UNL     1      47.081   8.837  14.518  0.00  0.00    +0.000 HD
BRANCH   9  12
ATOM     12  C   UNL     1      49.239   9.778  13.508  0.00  0.00    +0.000 A 
ATOM     13  C   UNL     1      49.748  11.067  13.569  0.00  0.00    +0.000 A 
ATOM     14  S   UNL     1      51.222  11.182  14.419  0.00  0.00    +0.000 S 
ATOM     15  C   UNL     1      51.207   9.519  14.779  0.00  0.00    +0.000 A 
ATOM     16  N   UNL     1      52.196   8.957  15.526  0.00  0.00    +0.000 NA
ATOM     17  C   UNL     1      52.035   7.698  15.762  0.00  0.00    +0.000 A 
ATOM     18  N   UNL     1      50.985   6.945  15.306  0.00  0.00    +0.000 N 
ATOM     19  C   UNL     1      50.009   7.452  14.483  0.00  0.00    +0.000 A 
ATOM     20  O   UNL     1      49.163   6.718  13.980  0.00  0.00    +0.000 OA
ATOM     21  C   UNL     1      50.110   8.879  14.231  0.00  0.00    +0.000 A 
ATOM     22  H   UNL     1      50.935   5.956  15.497  0.00  0.00    +0.000 HD
ENDBRANCH   9  12
ENDBRANCH   7  10
ENDBRANCH   1   7
BRANCH   4  23
ATOM     23  C   UNL     1      45.008   3.102  11.326  0.00  0.00    +0.000 C 
BRANCH  23  24
ATOM     24  N   UNL     1      44.279   3.045  10.066  0.00  0.00    +0.000 NA
ATOM     25  H   UNL     1      44.370   3.940   9.588  0.00  0.00    +0.000 HD
BRANCH  24  26
ATOM     26  C   UNL     1      44.680   1.957   9.183  0.00  0.00    +0.000 C 
BRANCH  26  27
ATOM     27  C   UNL     1      45.931   2.392   8.389  0.00  0.00    +0.000 C 
ATOM     28  C   UNL     1      46.603   1.199   7.690  0.00  0.00    +0.000 C 
ATOM     29  C   UNL     1      47.781   1.670   6.834  0.00  0.00    +0.000 C 
ATOM     30  C   UNL     1      47.371   2.788   5.879  0.00  0.00    +0.000 C 
ATOM     31  N   UNL     1      46.774   3.905   6.606  0.00  0.00    +0.000 NA
ATOM     32  C   UNL     1      45.589   3.480   7.355  0.00  0.00    +0.000 C 
ATOM     33  H   UNL     1      46.505   4.637   5.949  0.00  0.00    +0.000 HD
ENDBRANCH  26  27
ENDBRANCH  24  26
ENDBRANCH  23  24
ENDBRANCH   4  23
TORSDOF 7
ENDMDL
MODEL 6
REMARK VINA RESULT:    -6.919      1.639      2.251
REMARK INTER + INTRA:         -10.764
REMARK INTER:                  -9.545
REMARK INTRA:                  -1.220
REMARK UNBOUND:                -1.015
REMARK  Name = 
REMARK  7 active torsions:
REMARK  status: ('A' for Active; 'I' for Inactive)
REMARK    1  A    between atoms: C_2  and  C_20
REMARK    2  A    between atoms: N_3  and  C_4
REMARK    3  A    between atoms: C_4  and  C_5
REMARK    4  A    between atoms: C_8  and  C_9
REMARK    5  A    between atoms: C_9  and  N_10
REMARK    6  A    between atoms: N_10  and  C_11
REMARK    7  A    between atoms: C_11  and  C_12
REMARK                            x       y       z     vdW  Elec       q    Type
REMARK                         _______ _______ _______ _____ _____    ______ ____
ROOT
ATOM      1  C   UNL     1      47.744   7.962  13.053  0.00  0.00    +0.000 A 
ATOM      2  C   UNL     1      47.768   6.658  12.549  0.00  0.00    +0.000 A 
ATOM      3  C   UNL     1      46.634   6.114  11.942  0.00  0.00    +0.000 A 
ATOM      4  C   UNL     1      45.452   6.863  11.820  0.00  0.00    +0.000 A 
ATOM      5  C   UNL     1      45.439   8.178  12.300  0.00  0.00    +0.000 A 
ATOM      6  C   UNL     1      46.575   8.726  12.904  0.00  0.00    +0.000 A 
ENDROOT
BRANCH   1   7
ATOM      7  C   UNL     1      48.969   8.545  13.706  0.00  0.00    +0.000 C 
BRANCH   7  10
ATOM      8  O   UNL     1      48.063   9.066  16.321  0.00  0.00    +0.000 OA
ATOM      9  C   UNL     1      48.779   8.090  16.121  0.00  0.00    +0.000 C 
ATOM     10  N   UNL     1      49.319   7.809  14.893  0.00  0.00    +0.000 N 
ATOM     11  H   UNL     1      49.746   6.902  14.739  0.00  0.00    +0.000 HD
BRANCH   9  12
ATOM     12  C   UNL     1      49.154   7.182  17.215  0.00  0.00    +0.000 A 
ATOM     13  C   UNL     1      49.800   7.686  18.335  0.00  0.00    +0.000 A 
ATOM     14  S   UNL     1      50.178   6.498  19.499  0.00  0.00    +0.000 S 
ATOM     15  C   UNL     1      49.448   5.274  18.569  0.00  0.00    +0.000 A 
ATOM     16  N   UNL     1      49.398   3.991  19.018  0.00  0.00    +0.000 NA
ATOM     17  C   UNL     1      48.775   3.176  18.234  0.00  0.00    +0.000 A 
ATOM     18  N   UNL     1      48.211   3.524  17.034  0.00  0.00    +0.000 N 
ATOM     19  C   UNL     1      48.307   4.788  16.505  0.00  0.00    +0.000 A 
ATOM     20  O   UNL     1      47.914   5.028  15.368  0.00  0.00    +0.000 OA
ATOM     21  C   UNL     1      48.950   5.759  17.372  0.00  0.00    +0.000 A 
ATOM     22  H   UNL     1      47.766   2.831  16.450  0.00  0.00    +0.000 HD
ENDBRANCH   9  12
ENDBRANCH   7  10
ENDBRANCH   1   7
BRANCH   4  23
ATOM     23  C   UNL     1      44.215   6.242  11.205  0.00  0.00    +0.000 C 
BRANCH  23  24
ATOM     24  N   UNL     1      44.586   5.507  10.003  0.00  0.00    +0.000 NA
ATOM     25  H   UNL     1      45.600   5.517   9.907  0.00  0.00    +0.000 HD
BRANCH  24  26
ATOM     26  C   UNL     1      44.085   4.138   9.952  0.00  0.00    +0.000 C 
BRANCH  26  27
ATOM     27  C   UNL     1      44.733   3.413   8.752  0.00  0.00    +0.000 C 
ATOM     28  C   UNL     1      45.818   4.276   8.087  0.00  0.00    +0.000 C 
ATOM     29  C   UNL     1      46.510   3.499   6.964  0.00  0.00    +0.000 C 
ATOM     30  C   UNL     1      47.016   2.142   7.448  0.00  0.00    +0.000 C 
ATOM     31  N   UNL     1      45.934   1.358   8.035  0.00  0.00    +0.000 NA
ATOM     32  C   UNL     1      45.326   2.056   9.171  0.00  0.00    +0.000 C 
ATOM     33  H   UNL     1      46.295   0.460   8.354  0.00  0.00    +0.000 HD
ENDBRANCH  26  27
ENDBRANCH  24  26
ENDBRANCH  23  24
ENDBRANCH   4  23
TORSDOF 7
ENDMDL
MODEL 7
REMARK VINA RESULT:    -6.827      2.586      3.781
REMARK INTER + INTRA:         -10.635
REMARK INTER:                  -8.974
REMARK INTRA:                  -1.662
REMARK UNBOUND:                -1.015
REMARK  Name = 
REMARK  7 active torsions:
REMARK  status: ('A' for Active; 'I' for Inactive)
REMARK    1  A    between atoms: C_2  and  C_20
REMARK    2  A    between atoms: N_3  and  C_4
REMARK    3  A    between atoms: C_4  and  C_5
REMARK    4  A    between atoms: C_8  and  C_9
REMARK    5  A    between atoms: C_9  and  N_10
REMARK    6  A    between atoms: N_10  and  C_11
REMARK    7  A    between atoms: C_11  and  C_12
REMARK                            x       y       z     vdW  Elec       q    Type
REMARK                         _______ _______ _______ _____ _____    ______ ____
ROOT
ATOM      1  C   UNL     1      48.395   7.983  12.870  0.00  0.00    +0.000 A 
ATOM      2  C   UNL     1      47.734   6.917  12.251  0.00  0.00    +0.000 A 
ATOM      3  C   UNL     1      46.429   7.073  11.779  0.00  0.00    +0.000 A 
ATOM      4  C   UNL     1      45.758   8.300  11.909  0.00  0.00    +0.000 A 
ATOM      5  C   UNL     1      46.432   9.374  12.503  0.00  0.00    +0.000 A 
ATOM      6  C   UNL     1      47.740   9.220  12.972  0.00  0.00    +0.000 A 
ENDROOT
BRANCH   1   7
ATOM      7  C   UNL     1      49.803   7.810  13.376  0.00  0.00    +0.000 C 
BRANCH   7  10
ATOM      8  O   UNL     1      49.602   8.530  16.091  0.00  0.00    +0.000 OA
ATOM      9  C   UNL     1      49.666   7.342  15.793  0.00  0.00    +0.000 C 
ATOM     10  N   UNL     1      49.838   6.914  14.502  0.00  0.00    +0.000 N 
ATOM     11  H   UNL     1      49.701   5.932  14.287  0.00  0.00    +0.000 HD
BRANCH   9  12
ATOM     12  C   UNL     1      49.621   6.293  16.822  0.00  0.00    +0.000 A 
ATOM     13  C   UNL     1      50.455   6.378  17.928  0.00  0.00    +0.000 A 
ATOM     14  S   UNL     1      50.289   5.074  19.013  0.00  0.00    +0.000 S 
ATOM     15  C   UNL     1      49.060   4.372  18.068  0.00  0.00    +0.000 A 
ATOM     16  N   UNL     1      48.449   3.221  18.459  0.00  0.00    +0.000 NA
ATOM     17  C   UNL     1      47.504   2.826  17.673  0.00  0.00    +0.000 A 
ATOM     18  N   UNL     1      47.125   3.467  16.523  0.00  0.00    +0.000 N 
ATOM     19  C   UNL     1      47.767   4.585  16.048  0.00  0.00    +0.000 A 
ATOM     20  O   UNL     1      47.493   5.050  14.947  0.00  0.00    +0.000 OA
ATOM     21  C   UNL     1      48.802   5.106  16.924  0.00  0.00    +0.000 A 
ATOM     22  H   UNL     1      46.400   3.087  15.933  0.00  0.00    +0.000 HD
ENDBRANCH   9  12
ENDBRANCH   7  10
ENDBRANCH   1   7
BRANCH   4  23
ATOM     23  C   UNL     1      44.325   8.440  11.438  0.00  0.00    +0.000 C 
BRANCH  23  24
ATOM     24  N   UNL     1      43.901   7.202  10.797  0.00  0.00    +0.000 NA
ATOM     25  H   UNL     1      44.693   6.564  10.750  0.00  0.00    +0.000 HD
BRANCH  24  26
ATOM     26  C   UNL     1      42.763   6.549  11.434  0.00  0.00    +0.000 C 
BRANCH  26  27
ATOM     27  C   UNL     1      43.043   5.033  11.526  0.00  0.00    +0.000 C 
ATOM     28  C   UNL     1      44.015   4.569  10.429  0.00  0.00    +0.000 C 
ATOM     29  C   UNL     1      44.350   3.086  10.601  0.00  0.00    +0.000 C 
ATOM     30  C   UNL     1      44.831   2.778  12.017  0.00  0.00    +0.000 C 
ATOM     31  N   UNL     1      43.850   3.209  13.008  0.00  0.00    +0.000 NA
ATOM     32  C   UNL     1      43.592   4.647  12.911  0.00  0.00    +0.000 C 
ATOM     33  H   UNL     1      44.193   2.997  13.945  0.00  0.00    +0.000 HD
ENDBRANCH  26  27
ENDBRANCH  24  26
ENDBRANCH  23  24
ENDBRANCH   4  23
TORSDOF 7
ENDMDL
MODEL 8
REMARK VINA RESULT:    -6.694      2.791      8.709
REMARK INTER + INTRA:         -10.447
REMARK INTER:                  -9.103
REMARK INTRA:                  -1.345
REMARK UNBOUND:                -1.015
REMARK  Name = 
REMARK  7 active torsions:
REMARK  status: ('A' for Active; 'I' for Inactive)
REMARK    1  A    between atoms: C_2  and  C_20
REMARK    2  A    between atoms: N_3  and  C_4
REMARK    3  A    between atoms: C_4  and  C_5
REMARK    4  A    between atoms: C_8  and  C_9
REMARK    5  A    between atoms: C_9  and  N_10
REMARK    6  A    between atoms: N_10  and  C_11
REMARK    7  A    between atoms: C_11  and  C_12
REMARK                            x       y       z     vdW  Elec       q    Type
REMARK                         _______ _______ _______ _____ _____    ______ ____
ROOT
ATOM      1  C   UNL     1      48.321   8.033  13.175  0.00  0.00    +0.000 A 
ATOM      2  C   UNL     1      49.581   7.514  13.493  0.00  0.00    +0.000 A 
ATOM      3  C   UNL     1      50.127   7.713  14.763  0.00  0.00    +0.000 A 
ATOM      4  C   UNL     1      49.424   8.429  15.745  0.00  0.00    +0.000 A 
ATOM      5  C   UNL     1      48.152   8.923  15.435  0.00  0.00    +0.000 A 
ATOM      6  C   UNL     1      47.602   8.721  14.165  0.00  0.00    +0.000 A 
ENDROOT
BRANCH   1   7
ATOM      7  C   UNL     1      47.736   7.815  11.805  0.00  0.00    +0.000 C 
BRANCH   7  10
ATOM      8  O   UNL     1      44.933   7.584  11.956  0.00  0.00    +0.000 OA
ATOM      9  C   UNL     1      45.605   6.574  11.774  0.00  0.00    +0.000 C 
ATOM     10  N   UNL     1      46.976   6.592  11.760  0.00  0.00    +0.000 N 
ATOM     11  H   UNL     1      47.476   5.776  11.425  0.00  0.00    +0.000 HD
BRANCH   9  12
ATOM     12  C   UNL     1      44.975   5.256  11.613  0.00  0.00    +0.000 A 
ATOM     13  C   UNL     1      44.271   4.698  12.672  0.00  0.00    +0.000 A 
ATOM     14  S   UNL     1      43.620   3.160  12.325  0.00  0.00    +0.000 S 
ATOM     15  C   UNL     1      44.214   3.207  10.731  0.00  0.00    +0.000 A 
ATOM     16  N   UNL     1      43.973   2.185   9.866  0.00  0.00    +0.000 NA
ATOM     17  C   UNL     1      44.441   2.371   8.677  0.00  0.00    +0.000 A 
ATOM     18  N   UNL     1      45.142   3.480   8.279  0.00  0.00    +0.000 N 
ATOM     19  C   UNL     1      45.477   4.497   9.139  0.00  0.00    +0.000 A 
ATOM     20  O   UNL     1      46.223   5.404   8.784  0.00  0.00    +0.000 OA
ATOM     21  C   UNL     1      44.927   4.365  10.476  0.00  0.00    +0.000 A 
ATOM     22  H   UNL     1      45.511   3.550   7.342  0.00  0.00    +0.000 HD
ENDBRANCH   9  12
ENDBRANCH   7  10
ENDBRANCH   1   7
BRANCH   4  23
ATOM     23  C   UNL     1      50.051   8.680  17.102  0.00  0.00    +0.000 C 
BRANCH  23  24
ATOM     24  N   UNL     1      49.165   8.182  18.147  0.00  0.00    +0.000 NA
ATOM     25  H   UNL     1      48.286   7.889  17.725  0.00  0.00    +0.000 HD
BRANCH  24  26
ATOM     26  C   UNL     1      49.725   7.103  18.951  0.00  0.00    +0.000 C 
BRANCH  26  27
ATOM     27  C   UNL     1      48.755   5.901  18.922  0.00  0.00    +0.000 C 
ATOM     28  C   UNL     1      48.286   5.587  17.492  0.00  0.00    +0.000 C 
ATOM     29  C   UNL     1      47.404   4.336  17.478  0.00  0.00    +0.000 C 
ATOM     30  C   UNL     1      48.086   3.160  18.172  0.00  0.00    +0.000 C 
ATOM     31  N   UNL     1      48.474   3.509  19.535  0.00  0.00    +0.000 NA
ATOM     32  C   UNL     1      49.393   4.650  19.551  0.00  0.00    +0.000 C 
ATOM     33  H   UNL     1      48.930   2.712  19.977  0.00  0.00    +0.000 HD
ENDBRANCH  26  27
ENDBRANCH  24  26
ENDBRANCH  23  24
ENDBRANCH   4  23
TORSDOF 7
ENDMDL
MODEL 9
REMARK VINA RESULT:    -6.681      4.294      9.455
REMARK INTER + INTRA:         -10.430
REMARK INTER:                  -9.394
REMARK INTRA:                  -1.036
REMARK UNBOUND:                -1.015
REMARK  Name = 
REMARK  7 active torsions:
REMARK  status: ('A' for Active; 'I' for Inactive)
REMARK    1  A    between atoms: C_2  and  C_20
REMARK    2  A    between atoms: N_3  and  C_4
REMARK    3  A    between atoms: C_4  and  C_5
REMARK    4  A    between atoms: C_8  and  C_9
REMARK    5  A    between atoms: C_9  and  N_10
REMARK    6  A    between atoms: N_10  and  C_11
REMARK    7  A    between atoms: C_11  and  C_12
REMARK                            x       y       z     vdW  Elec       q    Type
REMARK                         _______ _______ _______ _____ _____    ______ ____
ROOT
ATOM      1  C   UNL     1      48.851   4.066  17.096  0.00  0.00    +0.000 A 
ATOM      2  C   UNL     1      49.265   5.402  17.106  0.00  0.00    +0.000 A 
ATOM      3  C   UNL     1      50.570   5.736  17.476  0.00  0.00    +0.000 A 
ATOM      4  C   UNL     1      51.492   4.741  17.838  0.00  0.00    +0.000 A 
ATOM      5  C   UNL     1      51.085   3.402  17.799  0.00  0.00    +0.000 A 
ATOM      6  C   UNL     1      49.780   3.066  17.425  0.00  0.00    +0.000 A 
ENDROOT
BRANCH   1   7
ATOM      7  C   UNL     1      47.444   3.712  16.696  0.00  0.00    +0.000 C 
BRANCH   7  10
ATOM      8  O   UNL     1      47.125   3.179  13.949  0.00  0.00    +0.000 OA
ATOM      9  C   UNL     1      46.761   4.263  14.392  0.00  0.00    +0.000 C 
ATOM     10  N   UNL     1      46.947   4.626  15.700  0.00  0.00    +0.000 N 
ATOM     11  H   UNL     1      46.469   5.447  16.057  0.00  0.00    +0.000 HD
BRANCH   9  12
ATOM     12  C   UNL     1      46.146   5.276  13.521  0.00  0.00    +0.000 A 
ATOM     13  C   UNL     1      46.802   6.479  13.298  0.00  0.00    +0.000 A 
ATOM     14  S   UNL     1      45.945   7.547  12.282  0.00  0.00    +0.000 S 
ATOM     15  C   UNL     1      44.689   6.420  12.063  0.00  0.00    +0.000 A 
ATOM     16  N   UNL     1      43.629   6.702  11.258  0.00  0.00    +0.000 NA
ATOM     17  C   UNL     1      42.774   5.741  11.146  0.00  0.00    +0.000 A 
ATOM     18  N   UNL     1      42.875   4.528  11.778  0.00  0.00    +0.000 N 
ATOM     19  C   UNL     1      43.884   4.231  12.661  0.00  0.00    +0.000 A 
ATOM     20  O   UNL     1      43.866   3.192  13.313  0.00  0.00    +0.000 OA
ATOM     21  C   UNL     1      44.905   5.257  12.781  0.00  0.00    +0.000 A 
ATOM     22  H   UNL     1      42.154   3.830  11.675  0.00  0.00    +0.000 HD
ENDBRANCH   9  12
ENDBRANCH   7  10
ENDBRANCH   1   7
BRANCH   4  23
ATOM     23  C   UNL     1      52.889   5.121  18.285  0.00  0.00    +0.000 C 
BRANCH  23  24
ATOM     24  N   UNL     1      53.850   4.172  17.739  0.00  0.00    +0.000 NA
ATOM     25  H   UNL     1      54.449   4.653  17.070  0.00  0.00    +0.000 HD
BRANCH  24  26
ATOM     26  C   UNL     1      54.659   3.486  18.740  0.00  0.00    +0.000 C 
BRANCH  26  27
ATOM     27  C   UNL     1      54.239   2.000  18.789  0.00  0.00    +0.000 C 
ATOM     28  C   UNL     1      54.117   1.399  17.380  0.00  0.00    +0.000 C 
ATOM     29  C   UNL     1      53.796  -0.095  17.458  0.00  0.00    +0.000 C 
ATOM     30  C   UNL     1      54.782  -0.837  18.358  0.00  0.00    +0.000 C 
ATOM     31  N   UNL     1      54.825  -0.241  19.690  0.00  0.00    +0.000 NA
ATOM     32  C   UNL     1      55.223   1.167  19.631  0.00  0.00    +0.000 C 
ATOM     33  H   UNL     1      55.491  -0.749  20.271  0.00  0.00    +0.000 HD
ENDBRANCH  26  27
ENDBRANCH  24  26
ENDBRANCH  23  24
ENDBRANCH   4  23
TORSDOF 7
ENDMDL
