MODEL 1
REMARK VINA RESULT:    -7.755      0.000      0.000
REMARK INTER + INTRA:         -10.633
REMARK INTER:                 -10.022
REMARK INTRA:                  -0.611
REMARK UNBOUND:                -0.611
REMARK  Name = 
REMARK  5 active torsions:
REMARK  status: ('A' for Active; 'I' for Inactive)
REMARK    1  A    between atoms: C_2  and  C_18
REMARK    2  A    between atoms: N_3  and  C_4
REMARK    3  A    between atoms: C_4  and  C_5
REMARK    4  A    between atoms: C_8  and  C_9
REMARK    5  A    between atoms: C_9  and  N_10
REMARK                            x       y       z     vdW  Elec       q    Type
REMARK                         _______ _______ _______ _____ _____    ______ ____
ROOT
ATOM      1  O   UNL     1      46.387   3.229  13.463  0.00  0.00    +0.000 OA
ATOM      2  C   UNL     1      46.245   4.444  13.547  0.00  0.00    +0.000 C 
ATOM      3  N   UNL     1      45.070   5.086  13.224  0.00  0.00    +0.000 N 
ATOM      4  H   UNL     1      45.085   6.087  13.090  0.00  0.00    +0.000 HD
ENDROOT
BRANCH   2   5
ATOM      5  C   UNL     1      47.304   5.328  14.038  0.00  0.00    +0.000 A 
ATOM      6  C   UNL     1      47.915   6.287  13.244  0.00  0.00    +0.000 A 
ATOM      7  S   UNL     1      49.050   7.242  14.091  0.00  0.00    +0.000 S 
ATOM      8  C   UNL     1      48.751   6.408  15.545  0.00  0.00    +0.000 A 
ATOM      9  N   UNL     1      49.398   6.749  16.691  0.00  0.00    +0.000 NA
ATOM     10  C   UNL     1      49.060   6.040  17.717  0.00  0.00    +0.000 A 
ATOM     11  N   UNL     1      48.149   5.020  17.699  0.00  0.00    +0.000 N 
ATOM     12  C   UNL     1      47.532   4.579  16.546  0.00  0.00    +0.000 A 
ATOM     13  O   UNL     1      46.868   3.547  16.539  0.00  0.00    +0.000 OA
ATOM     14  C   UNL     1      47.820   5.397  15.382  0.00  0.00    +0.000 A 
ATOM     15  H   UNL     1      47.969   4.470  18.528  0.00  0.00    +0.000 HD
ENDBRANCH   2   5
BRANCH   3  16
ATOM     16  C   UNL     1      43.951   4.376  12.631  0.00  0.00    +0.000 C 
BRANCH  16  17
ATOM     17  C   UNL     1      44.219   4.031  11.184  0.00  0.00    +0.000 A 
ATOM     18  C   UNL     1      43.975   2.741  10.725  0.00  0.00    +0.000 A 
ATOM     19  C   UNL     1      44.372   2.397   9.437  0.00  0.00    +0.000 A 
ATOM     20  C   UNL     1      45.043   3.331   8.642  0.00  0.00    +0.000 A 
ATOM     21  C   UNL     1      45.198   4.611   9.163  0.00  0.00    +0.000 A 
ATOM     22  N   UNL     1      44.801   4.981  10.406  0.00  0.00    +0.000 NA
BRANCH  20  23
ATOM     23  C   UNL     1      45.689   2.918   7.340  0.00  0.00    +0.000 C 
BRANCH  23  24
ATOM     24  N   UNL     1      47.057   2.395   7.513  0.00  0.00    +0.000 NA
ATOM     25  C   UNL     1      48.004   3.003   6.549  0.00  0.00    +0.000 C 
ATOM     26  C   UNL     1      47.932   2.426   5.122  0.00  0.00    +0.000 C 
ATOM     27  O   UNL     1      48.059   0.999   5.113  0.00  0.00    +0.000 OA
ATOM     28  C   UNL     1      47.069   0.396   5.954  0.00  0.00    +0.000 C 
ATOM     29  C   UNL     1      47.181   0.923   7.392  0.00  0.00    +0.000 C 
ENDBRANCH  23  24
ENDBRANCH  20  23
ENDBRANCH  16  17
ENDBRANCH   3  16
TORSDOF 5
ENDMDL
MODEL 2
REMARK VINA RESULT:    -7.404      1.635      2.522
REMARK INTER + INTRA:         -10.180
REMARK INTER:                  -9.618
REMARK INTRA:                  -0.562
REMARK UNBOUND:                -0.611
REMARK  Name = 
REMARK  5 active torsions:
REMARK  status: ('A' for Active; 'I' for Inactive)
REMARK    1  A    between atoms: C_2  and  C_18
REMARK    2  A    between atoms: N_3  and  C_4
REMARK    3  A    between atoms: C_4  and  C_5
REMARK    4  A    between atoms: C_8  and  C_9
REMARK    5  A    between atoms: C_9  and  N_10
REMARK                            x       y       z     vdW  Elec       q    Type
REMARK                         _______ _______ _______ _____ _____    ______ ____
ROOT
ATOM      1  O   UNL     1      46.535   3.192  13.475  0.00  0.00    +0.000 OA
ATOM      2  C   UNL     1      46.334   4.378  13.709  0.00  0.00    +0.000 C 
ATOM      3  N   UNL     1      45.185   5.034  13.324  0.00  0.00    +0.000 N 
ATOM      4  H   UNL     1      45.177   6.045  13.334  0.00  0.00    +0.000 HD
ENDROOT
BRANCH   2   5
ATOM      5  C   UNL     1      47.283   5.206  14.456  0.00  0.00    +0.000 A 
ATOM      6  C   UNL     1      47.576   4.997  15.795  0.00  0.00    +0.000 A 
ATOM      7  S   UNL     1      48.783   6.045  16.394  0.00  0.00    +0.000 S 
ATOM      8  C   UNL     1      48.955   6.804  14.880  0.00  0.00    +0.000 A 
ATOM      9  N   UNL     1      49.860   7.804  14.699  0.00  0.00    +0.000 NA
ATOM     10  C   UNL     1      49.889   8.274  13.495  0.00  0.00    +0.000 A 
ATOM     11  N   UNL     1      49.093   7.848  12.468  0.00  0.00    +0.000 N 
ATOM     12  C   UNL     1      48.102   6.900  12.623  0.00  0.00    +0.000 A 
ATOM     13  O   UNL     1      47.292   6.682  11.728  0.00  0.00    +0.000 OA
ATOM     14  C   UNL     1      48.086   6.285  13.938  0.00  0.00    +0.000 A 
ATOM     15  H   UNL     1      49.131   8.295  11.562  0.00  0.00    +0.000 HD
ENDBRANCH   2   5
BRANCH   3  16
ATOM     16  C   UNL     1      44.183   4.393  12.492  0.00  0.00    +0.000 C 
BRANCH  16  17
ATOM     17  C   UNL     1      44.729   4.064  11.121  0.00  0.00    +0.000 A 
ATOM     18  C   UNL     1      45.227   5.080  10.313  0.00  0.00    +0.000 A 
ATOM     19  C   UNL     1      45.581   4.787   9.001  0.00  0.00    +0.000 A 
ATOM     20  C   UNL     1      45.392   3.495   8.501  0.00  0.00    +0.000 A 
ATOM     21  C   UNL     1      44.938   2.531   9.394  0.00  0.00    +0.000 A 
ATOM     22  N   UNL     1      44.607   2.782  10.685  0.00  0.00    +0.000 NA
BRANCH  20  23
ATOM     23  C   UNL     1      45.544   3.205   7.026  0.00  0.00    +0.000 C 
BRANCH  23  24
ATOM     24  N   UNL     1      46.950   3.058   6.607  0.00  0.00    +0.000 NA
ATOM     25  C   UNL     1      47.081   2.993   5.132  0.00  0.00    +0.000 C 
ATOM     26  C   UNL     1      46.722   1.628   4.512  0.00  0.00    +0.000 C 
ATOM     27  O   UNL     1      47.446   0.554   5.125  0.00  0.00    +0.000 OA
ATOM     28  C   UNL     1      47.231   0.540   6.541  0.00  0.00    +0.000 C 
ATOM     29  C   UNL     1      47.647   1.878   7.169  0.00  0.00    +0.000 C 
ENDBRANCH  23  24
ENDBRANCH  20  23
ENDBRANCH  16  17
ENDBRANCH   3  16
TORSDOF 5
ENDMDL
MODEL 3
REMARK VINA RESULT:    -7.013      3.825      6.368
REMARK INTER + INTRA:          -9.674
REMARK INTER:                  -8.879
REMARK INTRA:                  -0.795
REMARK UNBOUND:                -0.611
REMARK  Name = 
REMARK  5 active torsions:
REMARK  status: ('A' for Active; 'I' for Inactive)
REMARK    1  A    between atoms: C_2  and  C_18
REMARK    2  A    between atoms: N_3  and  C_4
REMARK    3  A    between atoms: C_4  and  C_5
REMARK    4  A    between atoms: C_8  and  C_9
REMARK    5  A    between atoms: C_9  and  N_10
REMARK                            x       y       z     vdW  Elec       q    Type
REMARK                         _______ _______ _______ _____ _____    ______ ____
ROOT
ATOM      1  O   UNL     1      49.843   6.195  18.348  0.00  0.00    +0.000 OA
ATOM      2  C   UNL     1      50.724   5.924  17.541  0.00  0.00    +0.000 C 
ATOM      3  N   UNL     1      50.842   6.551  16.321  0.00  0.00    +0.000 N 
ATOM      4  H   UNL     1      51.431   6.132  15.614  0.00  0.00    +0.000 HD
ENDROOT
BRANCH   2   5
ATOM      5  C   UNL     1      51.762   4.928  17.814  0.00  0.00    +0.000 A 
ATOM      6  C   UNL     1      53.028   5.263  18.268  0.00  0.00    +0.000 A 
ATOM      7  S   UNL     1      54.011   3.905  18.593  0.00  0.00    +0.000 S 
ATOM      8  C   UNL     1      52.771   2.829  18.144  0.00  0.00    +0.000 A 
ATOM      9  N   UNL     1      52.956   1.484  18.208  0.00  0.00    +0.000 NA
ATOM     10  C   UNL     1      51.924   0.793  17.850  0.00  0.00    +0.000 A 
ATOM     11  N   UNL     1      50.736   1.322  17.425  0.00  0.00    +0.000 N 
ATOM     12  C   UNL     1      50.529   2.676  17.259  0.00  0.00    +0.000 A 
ATOM     13  O   UNL     1      49.520   3.096  16.702  0.00  0.00    +0.000 OA
ATOM     14  C   UNL     1      51.633   3.495  17.725  0.00  0.00    +0.000 A 
ATOM     15  H   UNL     1      49.986   0.723  17.110  0.00  0.00    +0.000 HD
ENDBRANCH   2   5
BRANCH   3  16
ATOM     16  C   UNL     1      49.844   7.493  15.847  0.00  0.00    +0.000 C 
BRANCH  16  17
ATOM     17  C   UNL     1      48.960   6.877  14.787  0.00  0.00    +0.000 A 
ATOM     18  C   UNL     1      48.793   7.521  13.566  0.00  0.00    +0.000 A 
ATOM     19  C   UNL     1      47.858   7.025  12.663  0.00  0.00    +0.000 A 
ATOM     20  C   UNL     1      47.075   5.920  13.009  0.00  0.00    +0.000 A 
ATOM     21  C   UNL     1      47.346   5.308  14.228  0.00  0.00    +0.000 A 
ATOM     22  N   UNL     1      48.266   5.755  15.118  0.00  0.00    +0.000 NA
BRANCH  20  23
ATOM     23  C   UNL     1      45.899   5.506  12.155  0.00  0.00    +0.000 C 
BRANCH  23  24
ATOM     24  N   UNL     1      45.006   4.544  12.827  0.00  0.00    +0.000 NA
ATOM     25  C   UNL     1      45.033   3.216  12.171  0.00  0.00    +0.000 C 
ATOM     26  C   UNL     1      44.209   3.121  10.871  0.00  0.00    +0.000 C 
ATOM     27  O   UNL     1      42.856   3.555  11.062  0.00  0.00    +0.000 OA
ATOM     28  C   UNL     1      42.820   4.887  11.589  0.00  0.00    +0.000 C 
ATOM     29  C   UNL     1      43.589   4.969  12.916  0.00  0.00    +0.000 C 
ENDBRANCH  23  24
ENDBRANCH  20  23
ENDBRANCH  16  17
ENDBRANCH   3  16
TORSDOF 5
ENDMDL
MODEL 4
REMARK VINA RESULT:    -6.864      4.015      5.698
REMARK INTER + INTRA:          -9.482
REMARK INTER:                  -8.327
REMARK INTRA:                  -1.155
REMARK UNBOUND:                -0.611
REMARK  Name = 
REMARK  5 active torsions:
REMARK  status: ('A' for Active; 'I' for Inactive)
REMARK    1  A    between atoms: C_2  and  C_18
REMARK    2  A    between atoms: N_3  and  C_4
REMARK    3  A    between atoms: C_4  and  C_5
REMARK    4  A    between atoms: C_8  and  C_9
REMARK    5  A    between atoms: C_9  and  N_10
REMARK                            x       y       z     vdW  Elec       q    Type
REMARK                         _______ _______ _______ _____ _____    ______ ____
ROOT
ATOM      1  O   UNL     1      48.659   8.682  16.821  0.00  0.00    +0.000 OA
ATOM      2  C   UNL     1      49.148   7.612  16.474  0.00  0.00    +0.000 C 
ATOM      3  N   UNL     1      49.637   7.388  15.206  0.00  0.00    +0.000 N 
ATOM      4  H   UNL     1      49.808   6.435  14.914  0.00  0.00    +0.000 HD
ENDROOT
BRANCH   2   5
ATOM      5  C   UNL     1      49.293   6.479  17.390  0.00  0.00    +0.000 A 
ATOM      6  C   UNL     1      50.048   6.538  18.551  0.00  0.00    +0.000 A 
ATOM      7  S   UNL     1      49.972   5.108  19.480  0.00  0.00    +0.000 S 
ATOM      8  C   UNL     1      48.921   4.370  18.362  0.00  0.00    +0.000 A 
ATOM      9  N   UNL     1      48.448   3.113  18.573  0.00  0.00    +0.000 NA
ATOM     10  C   UNL     1      47.650   2.690  17.649  0.00  0.00    +0.000 A 
ATOM     11  N   UNL     1      47.294   3.399  16.535  0.00  0.00    +0.000 N 
ATOM     12  C   UNL     1      47.814   4.641  16.233  0.00  0.00    +0.000 A 
ATOM     13  O   UNL     1      47.615   5.160  15.139  0.00  0.00    +0.000 OA
ATOM     14  C   UNL     1      48.654   5.191  17.281  0.00  0.00    +0.000 A 
ATOM     15  H   UNL     1      46.705   2.988  15.824  0.00  0.00    +0.000 HD
ENDBRANCH   2   5
BRANCH   3  16
ATOM     16  C   UNL     1      49.487   8.367  14.145  0.00  0.00    +0.000 C 
BRANCH  16  17
ATOM     17  C   UNL     1      48.259   8.092  13.308  0.00  0.00    +0.000 A 
ATOM     18  C   UNL     1      47.050   8.697  13.635  0.00  0.00    +0.000 A 
ATOM     19  C   UNL     1      45.899   8.315  12.954  0.00  0.00    +0.000 A 
ATOM     20  C   UNL     1      45.963   7.307  11.988  0.00  0.00    +0.000 A 
ATOM     21  C   UNL     1      47.221   6.796  11.689  0.00  0.00    +0.000 A 
ATOM     22  N   UNL     1      48.364   7.164  12.320  0.00  0.00    +0.000 NA
BRANCH  20  23
ATOM     23  C   UNL     1      44.703   6.712  11.404  0.00  0.00    +0.000 C 
BRANCH  23  24
ATOM     24  N   UNL     1      43.905   5.963  12.393  0.00  0.00    +0.000 NA
ATOM     25  C   UNL     1      44.743   5.031  13.183  0.00  0.00    +0.000 C 
ATOM     26  C   UNL     1      45.121   3.726  12.454  0.00  0.00    +0.000 C 
ATOM     27  O   UNL     1      43.969   3.046  11.939  0.00  0.00    +0.000 OA
ATOM     28  C   UNL     1      43.214   3.908  11.079  0.00  0.00    +0.000 C 
ATOM     29  C   UNL     1      42.783   5.180  11.823  0.00  0.00    +0.000 C 
ENDBRANCH  23  24
ENDBRANCH  20  23
ENDBRANCH  16  17
ENDBRANCH   3  16
TORSDOF 5
ENDMDL
MODEL 5
REMARK VINA RESULT:    -6.850      4.469      9.753
REMARK INTER + INTRA:          -9.464
REMARK INTER:                  -8.813
REMARK INTRA:                  -0.651
REMARK UNBOUND:                -0.611
REMARK  Name = 
REMARK  5 active torsions:
REMARK  status: ('A' for Active; 'I' for Inactive)
REMARK    1  A    between atoms: C_2  and  C_18
REMARK    2  A    between atoms: N_3  and  C_4
REMARK    3  A    between atoms: C_4  and  C_5
REMARK    4  A    between atoms: C_8  and  C_9
REMARK    5  A    between atoms: C_9  and  N_10
REMARK                            x       y       z     vdW  Elec       q    Type
REMARK                         _______ _______ _______ _____ _____    ______ ____
ROOT
ATOM      1  O   UNL     1      46.946   3.159  13.909  0.00  0.00    +0.000 OA
ATOM      2  C   UNL     1      46.718   4.272  14.368  0.00  0.00    +0.000 C 
ATOM      3  N   UNL     1      46.967   4.607  15.681  0.00  0.00    +0.000 N 
ATOM      4  H   UNL     1      46.549   5.448  16.055  0.00  0.00    +0.000 HD
ENDROOT
BRANCH   2   5
ATOM      5  C   UNL     1      46.193   5.369  13.553  0.00  0.00    +0.000 A 
ATOM      6  C   UNL     1      46.917   6.518  13.275  0.00  0.00    +0.000 A 
ATOM      7  S   UNL     1      46.105   7.593  12.226  0.00  0.00    +0.000 S 
ATOM      8  C   UNL     1      44.763   6.550  12.106  0.00  0.00    +0.000 A 
ATOM      9  N   UNL     1      43.695   6.874  11.329  0.00  0.00    +0.000 NA
ATOM     10  C   UNL     1      42.761   5.982  11.323  0.00  0.00    +0.000 A 
ATOM     11  N   UNL     1      42.790   4.811  12.029  0.00  0.00    +0.000 N 
ATOM     12  C   UNL     1      43.809   4.478  12.898  0.00  0.00    +0.000 A 
ATOM     13  O   UNL     1      43.710   3.513  13.648  0.00  0.00    +0.000 OA
ATOM     14  C   UNL     1      44.921   5.412  12.876  0.00  0.00    +0.000 A 
ATOM     15  H   UNL     1      42.001   4.180  12.021  0.00  0.00    +0.000 HD
ENDBRANCH   2   5
BRANCH   3  16
ATOM     16  C   UNL     1      47.397   3.618  16.653  0.00  0.00    +0.000 C 
BRANCH  16  17
ATOM     17  C   UNL     1      48.890   3.681  16.884  0.00  0.00    +0.000 A 
ATOM     18  C   UNL     1      49.607   2.507  17.092  0.00  0.00    +0.000 A 
ATOM     19  C   UNL     1      50.946   2.591  17.457  0.00  0.00    +0.000 A 
ATOM     20  C   UNL     1      51.539   3.842  17.650  0.00  0.00    +0.000 A 
ATOM     21  C   UNL     1      50.761   4.961  17.370  0.00  0.00    +0.000 A 
ATOM     22  N   UNL     1      49.460   4.910  16.990  0.00  0.00    +0.000 NA
BRANCH  20  23
ATOM     23  C   UNL     1      52.911   3.962  18.270  0.00  0.00    +0.000 C 
BRANCH  23  24
ATOM     24  N   UNL     1      52.950   3.530  19.679  0.00  0.00    +0.000 NA
ATOM     25  C   UNL     1      52.401   4.565  20.587  0.00  0.00    +0.000 C 
ATOM     26  C   UNL     1      53.359   5.734  20.887  0.00  0.00    +0.000 C 
ATOM     27  O   UNL     1      54.631   5.277  21.364  0.00  0.00    +0.000 OA
ATOM     28  C   UNL     1      55.223   4.363  20.433  0.00  0.00    +0.000 C 
ATOM     29  C   UNL     1      54.296   3.165  20.181  0.00  0.00    +0.000 C 
ENDBRANCH  23  24
ENDBRANCH  20  23
ENDBRANCH  16  17
ENDBRANCH   3  16
TORSDOF 5
ENDMDL
MODEL 6
REMARK VINA RESULT:    -6.736      3.684      9.347
REMARK INTER + INTRA:          -9.316
REMARK INTER:                  -8.469
REMARK INTRA:                  -0.847
REMARK UNBOUND:                -0.611
REMARK  Name = 
REMARK  5 active torsions:
REMARK  status: ('A' for Active; 'I' for Inactive)
REMARK    1  A    between atoms: C_2  and  C_18
REMARK    2  A    between atoms: N_3  and  C_4
REMARK    3  A    between atoms: C_4  and  C_5
REMARK    4  A    between atoms: C_8  and  C_9
REMARK    5  A    between atoms: C_9  and  N_10
REMARK                            x       y       z     vdW  Elec       q    Type
REMARK                         _______ _______ _______ _____ _____    ______ ____
ROOT
ATOM      1  O   UNL     1      45.806   7.852  11.797  0.00  0.00    +0.000 OA
ATOM      2  C   UNL     1      46.326   6.758  11.611  0.00  0.00    +0.000 C 
ATOM      3  N   UNL     1      47.552   6.411  12.134  0.00  0.00    +0.000 N 
ATOM      4  H   UNL     1      48.027   5.601  11.760  0.00  0.00    +0.000 HD
ENDROOT
BRANCH   2   5
ATOM      5  C   UNL     1      45.672   5.696  10.843  0.00  0.00    +0.000 A 
ATOM      6  C   UNL     1      45.842   5.538   9.476  0.00  0.00    +0.000 A 
ATOM      7  S   UNL     1      45.041   4.167   8.848  0.00  0.00    +0.000 S 
ATOM      8  C   UNL     1      44.450   3.739  10.387  0.00  0.00    +0.000 A 
ATOM      9  N   UNL     1      43.688   2.625  10.556  0.00  0.00    +0.000 NA
ATOM     10  C   UNL     1      43.324   2.419  11.779  0.00  0.00    +0.000 A 
ATOM     11  N   UNL     1      43.641   3.226  12.838  0.00  0.00    +0.000 N 
ATOM     12  C   UNL     1      44.336   4.410  12.704  0.00  0.00    +0.000 A 
ATOM     13  O   UNL     1      44.436   5.193  13.642  0.00  0.00    +0.000 OA
ATOM     14  C   UNL     1      44.835   4.643  11.360  0.00  0.00    +0.000 A 
ATOM     15  H   UNL     1      43.279   3.034  13.762  0.00  0.00    +0.000 HD
ENDBRANCH   2   5
BRANCH   3  16
ATOM     16  C   UNL     1      48.381   7.373  12.838  0.00  0.00    +0.000 C 
BRANCH  16  17
ATOM     17  C   UNL     1      48.457   7.061  14.315  0.00  0.00    +0.000 A 
ATOM     18  C   UNL     1      48.993   7.998  15.192  0.00  0.00    +0.000 A 
ATOM     19  C   UNL     1      49.200   7.639  16.520  0.00  0.00    +0.000 A 
ATOM     20  C   UNL     1      48.910   6.338  16.942  0.00  0.00    +0.000 A 
ATOM     21  C   UNL     1      48.329   5.484  16.010  0.00  0.00    +0.000 A 
ATOM     22  N   UNL     1      48.095   5.814  14.716  0.00  0.00    +0.000 NA
BRANCH  20  23
ATOM     23  C   UNL     1      49.341   5.853  18.307  0.00  0.00    +0.000 C 
BRANCH  23  24
ATOM     24  N   UNL     1      48.272   5.139  19.031  0.00  0.00    +0.000 NA
ATOM     25  C   UNL     1      47.210   6.061  19.494  0.00  0.00    +0.000 C 
ATOM     26  C   UNL     1      47.565   6.872  20.756  0.00  0.00    +0.000 C 
ATOM     27  O   UNL     1      47.997   6.029  21.832  0.00  0.00    +0.000 OA
ATOM     28  C   UNL     1      49.103   5.214  21.425  0.00  0.00    +0.000 C 
ATOM     29  C   UNL     1      48.730   4.359  20.205  0.00  0.00    +0.000 C 
ENDBRANCH  23  24
ENDBRANCH  20  23
ENDBRANCH  16  17
ENDBRANCH   3  16
TORSDOF 5
ENDMDL
MODEL 7
REMARK VINA RESULT:    -6.382      4.103      9.685
REMARK INTER + INTRA:          -8.859
REMARK INTER:                  -7.963
REMARK INTRA:                  -0.896
REMARK UNBOUND:                -0.611
REMARK  Name = 
REMARK  5 active torsions:
REMARK  status: ('A' for Active; 'I' for Inactive)
REMARK    1  A    between atoms: C_2  and  C_18
REMARK    2  A    between atoms: N_3  and  C_4
REMARK    3  A    between atoms: C_4  and  C_5
REMARK    4  A    between atoms: C_8  and  C_9
REMARK    5  A    between atoms: C_9  and  N_10
REMARK                            x       y       z     vdW  Elec       q    Type
REMARK                         _______ _______ _______ _____ _____    ______ ____
ROOT
ATOM      1  O   UNL     1      47.827   7.025  11.590  0.00  0.00    +0.000 OA
ATOM      2  C   UNL     1      46.989   6.753  12.442  0.00  0.00    +0.000 C 
ATOM      3  N   UNL     1      47.236   6.845  13.794  0.00  0.00    +0.000 N 
ATOM      4  H   UNL     1      46.599   6.393  14.436  0.00  0.00    +0.000 HD
ENDROOT
BRANCH   2   5
ATOM      5  C   UNL     1      45.626   6.340  12.102  0.00  0.00    +0.000 A 
ATOM      6  C   UNL     1      44.682   7.210  11.576  0.00  0.00    +0.000 A 
ATOM      7  S   UNL     1      43.205   6.448  11.185  0.00  0.00    +0.000 S 
ATOM      8  C   UNL     1      43.786   4.932  11.699  0.00  0.00    +0.000 A 
ATOM      9  N   UNL     1      43.006   3.821  11.614  0.00  0.00    +0.000 NA
ATOM     10  C   UNL     1      43.584   2.742  12.027  0.00  0.00    +0.000 A 
ATOM     11  N   UNL     1      44.857   2.674  12.524  0.00  0.00    +0.000 N 
ATOM     12  C   UNL     1      45.654   3.785  12.711  0.00  0.00    +0.000 A 
ATOM     13  O   UNL     1      46.710   3.707  13.330  0.00  0.00    +0.000 OA
ATOM     14  C   UNL     1      45.077   5.010  12.188  0.00  0.00    +0.000 A 
ATOM     15  H   UNL     1      45.230   1.805  12.879  0.00  0.00    +0.000 HD
ENDBRANCH   2   5
BRANCH   3  16
ATOM     16  C   UNL     1      48.560   7.146  14.309  0.00  0.00    +0.000 C 
BRANCH  16  17
ATOM     17  C   UNL     1      48.717   6.678  15.738  0.00  0.00    +0.000 A 
ATOM     18  C   UNL     1      48.919   7.609  16.751  0.00  0.00    +0.000 A 
ATOM     19  C   UNL     1      49.216   7.157  18.033  0.00  0.00    +0.000 A 
ATOM     20  C   UNL     1      49.350   5.787  18.275  0.00  0.00    +0.000 A 
ATOM     21  C   UNL     1      49.080   4.928  17.215  0.00  0.00    +0.000 A 
ATOM     22  N   UNL     1      48.765   5.338  15.961  0.00  0.00    +0.000 NA
BRANCH  20  23
ATOM     23  C   UNL     1      49.899   5.282  19.589  0.00  0.00    +0.000 C 
BRANCH  23  24
ATOM     24  N   UNL     1      51.162   5.937  19.978  0.00  0.00    +0.000 NA
ATOM     25  C   UNL     1      52.329   5.331  19.297  0.00  0.00    +0.000 C 
ATOM     26  C   UNL     1      52.803   3.993  19.896  0.00  0.00    +0.000 C 
ATOM     27  O   UNL     1      53.045   4.091  21.305  0.00  0.00    +0.000 OA
ATOM     28  C   UNL     1      51.879   4.568  21.988  0.00  0.00    +0.000 C 
ATOM     29  C   UNL     1      51.442   5.932  21.433  0.00  0.00    +0.000 C 
ENDBRANCH  23  24
ENDBRANCH  20  23
ENDBRANCH  16  17
ENDBRANCH   3  16
TORSDOF 5
ENDMDL
MODEL 8
REMARK VINA RESULT:    -6.206      4.542      8.126
REMARK INTER + INTRA:          -8.631
REMARK INTER:                  -7.769
REMARK INTRA:                  -0.863
REMARK UNBOUND:                -0.611
REMARK  Name = 
REMARK  5 active torsions:
REMARK  status: ('A' for Active; 'I' for Inactive)
REMARK    1  A    between atoms: C_2  and  C_18
REMARK    2  A    between atoms: N_3  and  C_4
REMARK    3  A    between atoms: C_4  and  C_5
REMARK    4  A    between atoms: C_8  and  C_9
REMARK    5  A    between atoms: C_9  and  N_10
REMARK                            x       y       z     vdW  Elec       q    Type
REMARK                         _______ _______ _______ _____ _____    ______ ____
ROOT
ATOM      1  O   UNL     1      43.612   7.321  11.126  0.00  0.00    +0.000 OA
ATOM      2  C   UNL     1      44.330   6.482  11.659  0.00  0.00    +0.000 C 
ATOM      3  N   UNL     1      45.319   6.806  12.562  0.00  0.00    +0.000 N 
ATOM      4  H   UNL     1      46.019   6.113  12.784  0.00  0.00    +0.000 HD
ENDROOT
BRANCH   2   5
ATOM      5  C   UNL     1      44.180   5.046  11.414  0.00  0.00    +0.000 A 
ATOM      6  C   UNL     1      43.469   4.207  12.257  0.00  0.00    +0.000 A 
ATOM      7  S   UNL     1      43.374   2.600  11.688  0.00  0.00    +0.000 S 
ATOM      8  C   UNL     1      44.274   2.981  10.294  0.00  0.00    +0.000 A 
ATOM      9  N   UNL     1      44.543   2.033   9.356  0.00  0.00    +0.000 NA
ATOM     10  C   UNL     1      45.222   2.470   8.347  0.00  0.00    +0.000 A 
ATOM     11  N   UNL     1      45.663   3.756   8.197  0.00  0.00    +0.000 N 
ATOM     12  C   UNL     1      45.492   4.730   9.159  0.00  0.00    +0.000 A 
ATOM     13  O   UNL     1      46.062   5.813   9.070  0.00  0.00    +0.000 OA
ATOM     14  C   UNL     1      44.665   4.307  10.275  0.00  0.00    +0.000 A 
ATOM     15  H   UNL     1      46.235   4.019   7.407  0.00  0.00    +0.000 HD
ENDBRANCH   2   5
BRANCH   3  16
ATOM     16  C   UNL     1      45.669   8.186  12.848  0.00  0.00    +0.000 C 
BRANCH  16  17
ATOM     17  C   UNL     1      47.029   8.539  12.290  0.00  0.00    +0.000 A 
ATOM     18  C   UNL     1      47.896   7.527  11.892  0.00  0.00    +0.000 A 
ATOM     19  C   UNL     1      49.197   7.858  11.528  0.00  0.00    +0.000 A 
ATOM     20  C   UNL     1      49.627   9.186  11.609  0.00  0.00    +0.000 A 
ATOM     21  C   UNL     1      48.678  10.137  11.967  0.00  0.00    +0.000 A 
ATOM     22  N   UNL     1      47.396   9.847  12.305  0.00  0.00    +0.000 NA
BRANCH  20  23
ATOM     23  C   UNL     1      51.087   9.539  11.448  0.00  0.00    +0.000 C 
BRANCH  23  24
ATOM     24  N   UNL     1      51.992   8.428  11.798  0.00  0.00    +0.000 NA
ATOM     25  C   UNL     1      52.764   8.715  13.029  0.00  0.00    +0.000 C 
ATOM     26  C   UNL     1      53.959   9.669  12.835  0.00  0.00    +0.000 C 
ATOM     27  O   UNL     1      54.835   9.226  11.790  0.00  0.00    +0.000 OA
ATOM     28  C   UNL     1      54.115   9.058  10.563  0.00  0.00    +0.000 C 
ATOM     29  C   UNL     1      52.962   8.059  10.739  0.00  0.00    +0.000 C 
ENDBRANCH  23  24
ENDBRANCH  20  23
ENDBRANCH  16  17
ENDBRANCH   3  16
TORSDOF 5
ENDMDL
MODEL 9
REMARK VINA RESULT:    -6.182      3.431      8.464
REMARK INTER + INTRA:          -8.601
REMARK INTER:                  -8.108
REMARK INTRA:                  -0.493
REMARK UNBOUND:                -0.611
REMARK  Name = 
REMARK  5 active torsions:
REMARK  status: ('A' for Active; 'I' for Inactive)
REMARK    1  A    between atoms: C_2  and  C_18
REMARK    2  A    between atoms: N_3  and  C_4
REMARK    3  A    between atoms: C_4  and  C_5
REMARK    4  A    between atoms: C_8  and  C_9
REMARK    5  A    between atoms: C_9  and  N_10
REMARK                            x       y       z     vdW  Elec       q    Type
REMARK                         _______ _______ _______ _____ _____    ______ ____
ROOT
ATOM      1  O   UNL     1      44.217   3.712   8.794  0.00  0.00    +0.000 OA
ATOM      2  C   UNL     1      44.840   2.768   9.265  0.00  0.00    +0.000 C 
ATOM      3  N   UNL     1      44.790   2.426  10.598  0.00  0.00    +0.000 N 
ATOM      4  H   UNL     1      45.492   1.799  10.965  0.00  0.00    +0.000 HD
ENDROOT
BRANCH   2   5
ATOM      5  C   UNL     1      45.672   1.886   8.444  0.00  0.00    +0.000 A 
ATOM      6  C   UNL     1      45.714   0.511   8.617  0.00  0.00    +0.000 A 
ATOM      7  S   UNL     1      46.693  -0.286   7.468  0.00  0.00    +0.000 S 
ATOM      8  C   UNL     1      47.084   1.183   6.699  0.00  0.00    +0.000 A 
ATOM      9  N   UNL     1      47.891   1.205   5.605  0.00  0.00    +0.000 NA
ATOM     10  C   UNL     1      48.087   2.387   5.121  0.00  0.00    +0.000 A 
ATOM     11  N   UNL     1      47.564   3.541   5.635  0.00  0.00    +0.000 N 
ATOM     12  C   UNL     1      46.813   3.581   6.792  0.00  0.00    +0.000 A 
ATOM     13  O   UNL     1      46.522   4.649   7.320  0.00  0.00    +0.000 OA
ATOM     14  C   UNL     1      46.499   2.268   7.327  0.00  0.00    +0.000 A 
ATOM     15  H   UNL     1      47.800   4.440   5.238  0.00  0.00    +0.000 HD
ENDBRANCH   2   5
BRANCH   3  16
ATOM     16  C   UNL     1      44.093   3.248  11.571  0.00  0.00    +0.000 C 
BRANCH  16  17
ATOM     17  C   UNL     1      45.028   4.232  12.236  0.00  0.00    +0.000 A 
ATOM     18  C   UNL     1      45.155   5.519  11.725  0.00  0.00    +0.000 A 
ATOM     19  C   UNL     1      46.131   6.360  12.250  0.00  0.00    +0.000 A 
ATOM     20  C   UNL     1      46.992   5.891  13.246  0.00  0.00    +0.000 A 
ATOM     21  C   UNL     1      46.759   4.609  13.733  0.00  0.00    +0.000 A 
ATOM     22  N   UNL     1      45.801   3.775  13.257  0.00  0.00    +0.000 NA
BRANCH  20  23
ATOM     23  C   UNL     1      48.201   6.694  13.666  0.00  0.00    +0.000 C 
BRANCH  23  24
ATOM     24  N   UNL     1      48.353   7.950  12.908  0.00  0.00    +0.000 NA
ATOM     25  C   UNL     1      49.602   7.965  12.112  0.00  0.00    +0.000 C 
ATOM     26  C   UNL     1      50.880   8.263  12.921  0.00  0.00    +0.000 C 
ATOM     27  O   UNL     1      50.762   9.469  13.685  0.00  0.00    +0.000 OA
ATOM     28  C   UNL     1      49.618   9.415  14.546  0.00  0.00    +0.000 C 
ATOM     29  C   UNL     1      48.335   9.181  13.734  0.00  0.00    +0.000 C 
ENDBRANCH  23  24
ENDBRANCH  20  23
ENDBRANCH  16  17
ENDBRANCH   3  16
TORSDOF 5
ENDMDL
