MODEL 1
REMARK VINA RESULT:    -7.874      0.000      0.000
REMARK INTER + INTRA:         -12.170
REMARK INTER:                 -11.096
REMARK INTRA:                  -1.074
REMARK UNBOUND:                -1.074
REMARK  Name = 
REMARK  7 active torsions:
REMARK  status: ('A' for Active; 'I' for Inactive)
REMARK    1  A    between atoms: C_2  and  C_4
REMARK    2  A    between atoms: C_7  and  O_8
REMARK    3  A    between atoms: O_8  and  C_9
REMARK    4  A    between atoms: C_9  and  C_10
REMARK    5  A    between atoms: C_10  and  C_11
REMARK    6  A    between atoms: C_15  and  O_16
REMARK    7  A    between atoms: O_16  and  C_17
REMARK                            x       y       z     vdW  Elec       q    Type
REMARK                         _______ _______ _______ _____ _____    ______ ____
ROOT
ATOM      1  C   UNL     1      43.881   3.215  11.813  0.00  0.00    +0.000 C 
ENDROOT
BRANCH   1   2
ATOM      2  O   UNL     1      43.391   3.302  10.466  0.00  0.00    +0.000 OA
BRANCH   2   6
ATOM      3  C   UNL     1      46.368   2.676   7.681  0.00  0.00    +0.000 A 
ATOM      4  C   UNL     1      45.849   3.961   7.859  0.00  0.00    +0.000 A 
ATOM      5  C   UNL     1      44.838   4.161   8.804  0.00  0.00    +0.000 A 
ATOM      6  C   UNL     1      44.385   3.073   9.533  0.00  0.00    +0.000 A 
ATOM      7  N   UNL     1      44.865   1.820   9.371  0.00  0.00    +0.000 NA
ATOM      8  C   UNL     1      45.835   1.647   8.445  0.00  0.00    +0.000 A 
BRANCH   3  10
ATOM      9  N   UNL     1      47.542   3.121   5.600  0.00  0.00    +0.000 N 
ATOM     10  C   UNL     1      47.437   2.343   6.716  0.00  0.00    +0.000 C 
ATOM     11  O   UNL     1      48.228   1.435   6.929  0.00  0.00    +0.000 OA
ATOM     12  H   UNL     1      48.358   2.956   5.021  0.00  0.00    +0.000 HD
ATOM     13  H   UNL     1      47.088   4.020   5.516  0.00  0.00    +0.000 HD
ENDBRANCH   3  10
ENDBRANCH   2   6
ENDBRANCH   1   2
BRANCH   1  14
ATOM     14  C   UNL     1      43.846   4.604  12.450  0.00  0.00    +0.000 C 
BRANCH  14  15
ATOM     15  C   UNL     1      45.226   5.186  12.641  0.00  0.00    +0.000 A 
ATOM     16  C   UNL     1      45.755   6.084  11.708  0.00  0.00    +0.000 A 
ATOM     17  C   UNL     1      47.025   6.634  11.896  0.00  0.00    +0.000 A 
ATOM     18  C   UNL     1      47.790   6.284  13.013  0.00  0.00    +0.000 A 
ATOM     19  C   UNL     1      47.286   5.372  13.934  0.00  0.00    +0.000 A 
ATOM     20  C   UNL     1      46.009   4.829  13.749  0.00  0.00    +0.000 A 
BRANCH  19  21
ATOM     21  O   UNL     1      47.935   4.973  15.076  0.00  0.00    +0.000 OA
BRANCH  21  22
ATOM     22  C   UNL     1      47.252   4.109  16.013  0.00  0.00    +0.000 C 
ATOM     23  C   UNL     1      47.298   4.515  17.506  0.00  0.00    +0.000 C 
ATOM     24  C   UNL     1      47.722   3.085  17.866  0.00  0.00    +0.000 C 
ATOM     25  C   UNL     1      48.055   2.840  16.390  0.00  0.00    +0.000 C 
ENDBRANCH  21  22
ENDBRANCH  19  21
ENDBRANCH  14  15
ENDBRANCH   1  14
TORSDOF 7
ENDMDL
MODEL 2
REMARK VINA RESULT:    -6.955      1.988      3.753
REMARK INTER + INTRA:         -10.875
REMARK INTER:                 -10.004
REMARK INTRA:                  -0.871
REMARK UNBOUND:                -1.074
REMARK  Name = 
REMARK  7 active torsions:
REMARK  status: ('A' for Active; 'I' for Inactive)
REMARK    1  A    between atoms: C_2  and  C_4
REMARK    2  A    between atoms: C_7  and  O_8
REMARK    3  A    between atoms: O_8  and  C_9
REMARK    4  A    between atoms: C_9  and  C_10
REMARK    5  A    between atoms: C_10  and  C_11
REMARK    6  A    between atoms: C_15  and  O_16
REMARK    7  A    between atoms: O_16  and  C_17
REMARK                            x       y       z     vdW  Elec       q    Type
REMARK                         _______ _______ _______ _____ _____    ______ ____
ROOT
ATOM      1  C   UNL     1      44.032   4.605  10.582  0.00  0.00    +0.000 C 
ENDROOT
BRANCH   1   2
ATOM      2  O   UNL     1      43.667   3.495   9.747  0.00  0.00    +0.000 OA
BRANCH   2   6
ATOM      3  C   UNL     1      46.717   2.312   7.234  0.00  0.00    +0.000 A 
ATOM      4  C   UNL     1      46.146   1.385   8.110  0.00  0.00    +0.000 A 
ATOM      5  C   UNL     1      45.115   1.798   8.960  0.00  0.00    +0.000 A 
ATOM      6  C   UNL     1      44.693   3.117   8.902  0.00  0.00    +0.000 A 
ATOM      7  N   UNL     1      45.236   4.032   8.069  0.00  0.00    +0.000 NA
ATOM      8  C   UNL     1      46.239   3.615   7.264  0.00  0.00    +0.000 A 
BRANCH   3  10
ATOM      9  N   UNL     1      48.946   2.741   6.369  0.00  0.00    +0.000 N 
ATOM     10  C   UNL     1      47.808   1.993   6.290  0.00  0.00    +0.000 C 
ATOM     11  O   UNL     1      47.716   1.066   5.499  0.00  0.00    +0.000 OA
ATOM     12  H   UNL     1      49.725   2.423   5.803  0.00  0.00    +0.000 HD
ATOM     13  H   UNL     1      49.160   3.329   7.162  0.00  0.00    +0.000 HD
ENDBRANCH   3  10
ENDBRANCH   2   6
ENDBRANCH   1   2
BRANCH   1  14
ATOM     14  C   UNL     1      44.386   4.090  11.977  0.00  0.00    +0.000 C 
BRANCH  14  15
ATOM     15  C   UNL     1      45.560   4.822  12.581  0.00  0.00    +0.000 A 
ATOM     16  C   UNL     1      46.070   4.442  13.828  0.00  0.00    +0.000 A 
ATOM     17  C   UNL     1      47.167   5.110  14.377  0.00  0.00    +0.000 A 
ATOM     18  C   UNL     1      47.763   6.174  13.693  0.00  0.00    +0.000 A 
ATOM     19  C   UNL     1      47.248   6.578  12.465  0.00  0.00    +0.000 A 
ATOM     20  C   UNL     1      46.154   5.902  11.912  0.00  0.00    +0.000 A 
BRANCH  19  21
ATOM     21  O   UNL     1      47.763   7.592  11.695  0.00  0.00    +0.000 OA
BRANCH  21  22
ATOM     22  C   UNL     1      48.956   8.279  12.136  0.00  0.00    +0.000 C 
ATOM     23  C   UNL     1      49.263   9.646  11.479  0.00  0.00    +0.000 C 
ATOM     24  C   UNL     1      50.702   9.182  11.218  0.00  0.00    +0.000 C 
ATOM     25  C   UNL     1      50.258   7.741  11.493  0.00  0.00    +0.000 C 
ENDBRANCH  21  22
ENDBRANCH  19  21
ENDBRANCH  14  15
ENDBRANCH   1  14
TORSDOF 7
ENDMDL
MODEL 3
REMARK VINA RESULT:    -6.843      3.077      8.100
REMARK INTER + INTRA:         -10.718
REMARK INTER:                  -9.792
REMARK INTRA:                  -0.926
REMARK UNBOUND:                -1.074
REMARK  Name = 
REMARK  7 active torsions:
REMARK  status: ('A' for Active; 'I' for Inactive)
REMARK    1  A    between atoms: C_2  and  C_4
REMARK    2  A    between atoms: C_7  and  O_8
REMARK    3  A    between atoms: O_8  and  C_9
REMARK    4  A    between atoms: C_9  and  C_10
REMARK    5  A    between atoms: C_10  and  C_11
REMARK    6  A    between atoms: C_15  and  O_16
REMARK    7  A    between atoms: O_16  and  C_17
REMARK                            x       y       z     vdW  Elec       q    Type
REMARK                         _______ _______ _______ _____ _____    ______ ____
ROOT
ATOM      1  C   UNL     1      45.909   6.554  12.530  0.00  0.00    +0.000 C 
ENDROOT
BRANCH   1   2
ATOM      2  O   UNL     1      47.314   6.414  12.796  0.00  0.00    +0.000 OA
BRANCH   2   6
ATOM      3  C   UNL     1      48.014   4.627  16.447  0.00  0.00    +0.000 A 
ATOM      4  C   UNL     1      47.051   4.090  15.589  0.00  0.00    +0.000 A 
ATOM      5  C   UNL     1      46.820   4.706  14.355  0.00  0.00    +0.000 A 
ATOM      6  C   UNL     1      47.558   5.832  14.025  0.00  0.00    +0.000 A 
ATOM      7  N   UNL     1      48.487   6.374  14.842  0.00  0.00    +0.000 NA
ATOM      8  C   UNL     1      48.687   5.769  16.035  0.00  0.00    +0.000 A 
BRANCH   3  10
ATOM      9  N   UNL     1      47.457   3.189  18.325  0.00  0.00    +0.000 N 
ATOM     10  C   UNL     1      48.347   4.064  17.771  0.00  0.00    +0.000 C 
ATOM     11  O   UNL     1      49.399   4.332  18.333  0.00  0.00    +0.000 OA
ATOM     12  H   UNL     1      47.765   2.719  19.169  0.00  0.00    +0.000 HD
ATOM     13  H   UNL     1      46.720   2.749  17.791  0.00  0.00    +0.000 HD
ENDBRANCH   3  10
ENDBRANCH   2   6
ENDBRANCH   1   2
BRANCH   1  14
ATOM     14  C   UNL     1      45.681   6.550  11.019  0.00  0.00    +0.000 C 
BRANCH  14  15
ATOM     15  C   UNL     1      45.261   5.195  10.502  0.00  0.00    +0.000 A 
ATOM     16  C   UNL     1      44.658   4.264  11.355  0.00  0.00    +0.000 A 
ATOM     17  C   UNL     1      44.255   3.018  10.870  0.00  0.00    +0.000 A 
ATOM     18  C   UNL     1      44.460   2.680   9.529  0.00  0.00    +0.000 A 
ATOM     19  C   UNL     1      45.082   3.587   8.677  0.00  0.00    +0.000 A 
ATOM     20  C   UNL     1      45.477   4.840   9.163  0.00  0.00    +0.000 A 
BRANCH  19  21
ATOM     21  O   UNL     1      45.313   3.375   7.340  0.00  0.00    +0.000 OA
BRANCH  21  22
ATOM     22  C   UNL     1      46.666   3.150   6.884  0.00  0.00    +0.000 C 
ATOM     23  C   UNL     1      46.853   2.793   5.389  0.00  0.00    +0.000 C 
ATOM     24  C   UNL     1      47.741   1.611   5.797  0.00  0.00    +0.000 C 
ATOM     25  C   UNL     1      47.213   1.743   7.230  0.00  0.00    +0.000 C 
ENDBRANCH  21  22
ENDBRANCH  19  21
ENDBRANCH  14  15
ENDBRANCH   1  14
TORSDOF 7
ENDMDL
MODEL 4
REMARK VINA RESULT:    -6.793      2.625      4.551
REMARK INTER + INTRA:         -10.647
REMARK INTER:                  -9.674
REMARK INTRA:                  -0.973
REMARK UNBOUND:                -1.074
REMARK  Name = 
REMARK  7 active torsions:
REMARK  status: ('A' for Active; 'I' for Inactive)
REMARK    1  A    between atoms: C_2  and  C_4
REMARK    2  A    between atoms: C_7  and  O_8
REMARK    3  A    between atoms: O_8  and  C_9
REMARK    4  A    between atoms: C_9  and  C_10
REMARK    5  A    between atoms: C_10  and  C_11
REMARK    6  A    between atoms: C_15  and  O_16
REMARK    7  A    between atoms: O_16  and  C_17
REMARK                            x       y       z     vdW  Elec       q    Type
REMARK                         _______ _______ _______ _____ _____    ______ ____
ROOT
ATOM      1  C   UNL     1      44.351   3.563  11.734  0.00  0.00    +0.000 C 
ENDROOT
BRANCH   1   2
ATOM      2  O   UNL     1      43.973   3.949  10.403  0.00  0.00    +0.000 OA
BRANCH   2   6
ATOM      3  C   UNL     1      46.566   2.490   7.546  0.00  0.00    +0.000 A 
ATOM      4  C   UNL     1      46.337   3.866   7.632  0.00  0.00    +0.000 A 
ATOM      5  C   UNL     1      45.453   4.349   8.602  0.00  0.00    +0.000 A 
ATOM      6  C   UNL     1      44.834   3.442   9.448  0.00  0.00    +0.000 A 
ATOM      7  N   UNL     1      45.034   2.108   9.378  0.00  0.00    +0.000 NA
ATOM      8  C   UNL     1      45.883   1.661   8.425  0.00  0.00    +0.000 A 
BRANCH   3  10
ATOM      9  N   UNL     1      48.618   2.541   6.245  0.00  0.00    +0.000 N 
ATOM     10  C   UNL     1      47.477   1.864   6.566  0.00  0.00    +0.000 C 
ATOM     11  O   UNL     1      47.244   0.762   6.092  0.00  0.00    +0.000 OA
ATOM     12  H   UNL     1      49.286   2.036   5.674  0.00  0.00    +0.000 HD
ATOM     13  H   UNL     1      48.969   3.312   6.797  0.00  0.00    +0.000 HD
ENDBRANCH   3  10
ENDBRANCH   2   6
ENDBRANCH   1   2
BRANCH   1  14
ATOM     14  C   UNL     1      44.074   4.722  12.691  0.00  0.00    +0.000 C 
BRANCH  14  15
ATOM     15  C   UNL     1      45.087   5.834  12.557  0.00  0.00    +0.000 A 
ATOM     16  C   UNL     1      46.442   5.543  12.361  0.00  0.00    +0.000 A 
ATOM     17  C   UNL     1      47.374   6.573  12.221  0.00  0.00    +0.000 A 
ATOM     18  C   UNL     1      46.968   7.910  12.286  0.00  0.00    +0.000 A 
ATOM     19  C   UNL     1      45.628   8.212  12.507  0.00  0.00    +0.000 A 
ATOM     20  C   UNL     1      44.693   7.177  12.639  0.00  0.00    +0.000 A 
BRANCH  19  21
ATOM     21  O   UNL     1      45.111   9.482  12.567  0.00  0.00    +0.000 OA
BRANCH  21  22
ATOM     22  C   UNL     1      45.033  10.272  11.359  0.00  0.00    +0.000 C 
ATOM     23  C   UNL     1      44.455  11.702  11.490  0.00  0.00    +0.000 C 
ATOM     24  C   UNL     1      43.524  11.419  10.304  0.00  0.00    +0.000 C 
ATOM     25  C   UNL     1      43.817   9.924  10.465  0.00  0.00    +0.000 C 
ENDBRANCH  21  22
ENDBRANCH  19  21
ENDBRANCH  14  15
ENDBRANCH   1  14
TORSDOF 7
ENDMDL
MODEL 5
REMARK VINA RESULT:    -6.562      3.646      8.120
REMARK INTER + INTRA:         -10.322
REMARK INTER:                  -9.866
REMARK INTRA:                  -0.456
REMARK UNBOUND:                -1.074
REMARK  Name = 
REMARK  7 active torsions:
REMARK  status: ('A' for Active; 'I' for Inactive)
REMARK    1  A    between atoms: C_2  and  C_4
REMARK    2  A    between atoms: C_7  and  O_8
REMARK    3  A    between atoms: O_8  and  C_9
REMARK    4  A    between atoms: C_9  and  C_10
REMARK    5  A    between atoms: C_10  and  C_11
REMARK    6  A    between atoms: C_15  and  O_16
REMARK    7  A    between atoms: O_16  and  C_17
REMARK                            x       y       z     vdW  Elec       q    Type
REMARK                         _______ _______ _______ _____ _____    ______ ____
ROOT
ATOM      1  C   UNL     1      46.963   4.592  15.020  0.00  0.00    +0.000 C 
ENDROOT
BRANCH   1   2
ATOM      2  O   UNL     1      46.917   3.654  16.106  0.00  0.00    +0.000 OA
BRANCH   2   6
ATOM      3  C   UNL     1      50.679   2.549  17.385  0.00  0.00    +0.000 A 
ATOM      4  C   UNL     1      50.112   3.737  17.854  0.00  0.00    +0.000 A 
ATOM      5  C   UNL     1      48.837   4.103  17.411  0.00  0.00    +0.000 A 
ATOM      6  C   UNL     1      48.178   3.271  16.520  0.00  0.00    +0.000 A 
ATOM      7  N   UNL     1      48.710   2.123  16.046  0.00  0.00    +0.000 NA
ATOM      8  C   UNL     1      49.948   1.793  16.479  0.00  0.00    +0.000 A 
BRANCH   3  10
ATOM      9  N   UNL     1      52.691   2.770  18.730  0.00  0.00    +0.000 N 
ATOM     10  C   UNL     1      52.015   2.058  17.782  0.00  0.00    +0.000 C 
ATOM     11  O   UNL     1      52.481   1.029  17.315  0.00  0.00    +0.000 OA
ATOM     12  H   UNL     1      53.543   2.345  19.078  0.00  0.00    +0.000 HD
ATOM     13  H   UNL     1      52.243   3.460  19.317  0.00  0.00    +0.000 HD
ENDBRANCH   3  10
ENDBRANCH   2   6
ENDBRANCH   1   2
BRANCH   1  14
ATOM     14  C   UNL     1      46.949   3.829  13.696  0.00  0.00    +0.000 C 
BRANCH  14  15
ATOM     15  C   UNL     1      45.685   4.068  12.905  0.00  0.00    +0.000 A 
ATOM     16  C   UNL     1      44.867   5.168  13.186  0.00  0.00    +0.000 A 
ATOM     17  C   UNL     1      43.708   5.397  12.441  0.00  0.00    +0.000 A 
ATOM     18  C   UNL     1      43.343   4.523  11.413  0.00  0.00    +0.000 A 
ATOM     19  C   UNL     1      44.134   3.411  11.142  0.00  0.00    +0.000 A 
ATOM     20  C   UNL     1      45.301   3.188  11.883  0.00  0.00    +0.000 A 
BRANCH  19  21
ATOM     21  O   UNL     1      43.888   2.499  10.144  0.00  0.00    +0.000 OA
BRANCH  21  22
ATOM     22  C   UNL     1      44.363   2.769   8.807  0.00  0.00    +0.000 C 
ATOM     23  C   UNL     1      45.745   2.188   8.420  0.00  0.00    +0.000 C 
ATOM     24  C   UNL     1      46.160   3.566   7.887  0.00  0.00    +0.000 C 
ATOM     25  C   UNL     1      44.973   4.183   8.636  0.00  0.00    +0.000 C 
ENDBRANCH  21  22
ENDBRANCH  19  21
ENDBRANCH  14  15
ENDBRANCH   1  14
TORSDOF 7
ENDMDL
MODEL 6
REMARK VINA RESULT:    -6.457      3.544      8.479
REMARK INTER + INTRA:         -10.174
REMARK INTER:                  -9.478
REMARK INTRA:                  -0.696
REMARK UNBOUND:                -1.074
REMARK  Name = 
REMARK  7 active torsions:
REMARK  status: ('A' for Active; 'I' for Inactive)
REMARK    1  A    between atoms: C_2  and  C_4
REMARK    2  A    between atoms: C_7  and  O_8
REMARK    3  A    between atoms: O_8  and  C_9
REMARK    4  A    between atoms: C_9  and  C_10
REMARK    5  A    between atoms: C_10  and  C_11
REMARK    6  A    between atoms: C_15  and  O_16
REMARK    7  A    between atoms: O_16  and  C_17
REMARK                            x       y       z     vdW  Elec       q    Type
REMARK                         _______ _______ _______ _____ _____    ______ ____
ROOT
ATOM      1  C   UNL     1      47.233   4.932  13.739  0.00  0.00    +0.000 C 
ENDROOT
BRANCH   1   2
ATOM      2  O   UNL     1      46.811   4.044  14.786  0.00  0.00    +0.000 OA
BRANCH   2   6
ATOM      3  C   UNL     1      49.005   4.485  18.251  0.00  0.00    +0.000 A 
ATOM      4  C   UNL     1      48.080   3.443  18.148  0.00  0.00    +0.000 A 
ATOM      5  C   UNL     1      47.340   3.304  16.969  0.00  0.00    +0.000 A 
ATOM      6  C   UNL     1      47.551   4.210  15.941  0.00  0.00    +0.000 A 
ATOM      7  N   UNL     1      48.432   5.230  16.022  0.00  0.00    +0.000 NA
ATOM      8  C   UNL     1      49.130   5.352  17.174  0.00  0.00    +0.000 A 
BRANCH   3  10
ATOM      9  N   UNL     1      51.123   4.255  19.418  0.00  0.00    +0.000 N 
ATOM     10  C   UNL     1      49.844   4.730  19.442  0.00  0.00    +0.000 C 
ATOM     11  O   UNL     1      49.427   5.373  20.394  0.00  0.00    +0.000 OA
ATOM     12  H   UNL     1      51.717   4.546  20.187  0.00  0.00    +0.000 HD
ATOM     13  H   UNL     1      51.579   3.956  18.568  0.00  0.00    +0.000 HD
ENDBRANCH   3  10
ENDBRANCH   2   6
ENDBRANCH   1   2
BRANCH   1  14
ATOM     14  C   UNL     1      46.099   5.905  13.417  0.00  0.00    +0.000 C 
BRANCH  14  15
ATOM     15  C   UNL     1      45.236   5.427  12.274  0.00  0.00    +0.000 A 
ATOM     16  C   UNL     1      43.895   5.088  12.488  0.00  0.00    +0.000 A 
ATOM     17  C   UNL     1      43.095   4.663  11.426  0.00  0.00    +0.000 A 
ATOM     18  C   UNL     1      43.626   4.558  10.137  0.00  0.00    +0.000 A 
ATOM     19  C   UNL     1      44.964   4.866   9.916  0.00  0.00    +0.000 A 
ATOM     20  C   UNL     1      45.763   5.301  10.981  0.00  0.00    +0.000 A 
BRANCH  19  21
ATOM     21  O   UNL     1      45.587   4.822   8.693  0.00  0.00    +0.000 OA
BRANCH  21  22
ATOM     22  C   UNL     1      45.490   3.623   7.892  0.00  0.00    +0.000 C 
ATOM     23  C   UNL     1      45.945   2.299   8.551  0.00  0.00    +0.000 C 
ATOM     24  C   UNL     1      46.794   1.989   7.311  0.00  0.00    +0.000 C 
ATOM     25  C   UNL     1      46.651   3.454   6.882  0.00  0.00    +0.000 C 
ENDBRANCH  21  22
ENDBRANCH  19  21
ENDBRANCH  14  15
ENDBRANCH   1  14
TORSDOF 7
ENDMDL
MODEL 7
REMARK VINA RESULT:    -6.134      3.800      8.820
REMARK INTER + INTRA:          -9.718
REMARK INTER:                  -9.224
REMARK INTRA:                  -0.494
REMARK UNBOUND:                -1.074
REMARK  Name = 
REMARK  7 active torsions:
REMARK  status: ('A' for Active; 'I' for Inactive)
REMARK    1  A    between atoms: C_2  and  C_4
REMARK    2  A    between atoms: C_7  and  O_8
REMARK    3  A    between atoms: O_8  and  C_9
REMARK    4  A    between atoms: C_9  and  C_10
REMARK    5  A    between atoms: C_10  and  C_11
REMARK    6  A    between atoms: C_15  and  O_16
REMARK    7  A    between atoms: O_16  and  C_17
REMARK                            x       y       z     vdW  Elec       q    Type
REMARK                         _______ _______ _______ _____ _____    ______ ____
ROOT
ATOM      1  C   UNL     1      47.033   4.744  14.833  0.00  0.00    +0.000 C 
ENDROOT
BRANCH   1   2
ATOM      2  O   UNL     1      46.807   3.956  16.013  0.00  0.00    +0.000 OA
BRANCH   2   6
ATOM      3  C   UNL     1      49.524   4.760  19.009  0.00  0.00    +0.000 A 
ATOM      4  C   UNL     1      48.193   5.156  19.161  0.00  0.00    +0.000 A 
ATOM      5  C   UNL     1      47.281   4.881  18.137  0.00  0.00    +0.000 A 
ATOM      6  C   UNL     1      47.732   4.222  17.004  0.00  0.00    +0.000 A 
ATOM      7  N   UNL     1      49.016   3.838  16.832  0.00  0.00    +0.000 NA
ATOM      8  C   UNL     1      49.883   4.123  17.829  0.00  0.00    +0.000 A 
BRANCH   3  10
ATOM      9  N   UNL     1      51.716   4.249  19.926  0.00  0.00    +0.000 N 
ATOM     10  C   UNL     1      50.576   4.993  20.021  0.00  0.00    +0.000 C 
ATOM     11  O   UNL     1      50.452   5.851  20.883  0.00  0.00    +0.000 OA
ATOM     12  H   UNL     1      52.471   4.516  20.548  0.00  0.00    +0.000 HD
ATOM     13  H   UNL     1      51.962   3.730  19.095  0.00  0.00    +0.000 HD
ENDBRANCH   3  10
ENDBRANCH   2   6
ENDBRANCH   1   2
BRANCH   1  14
ATOM     14  C   UNL     1      46.943   3.843  13.602  0.00  0.00    +0.000 C 
BRANCH  14  15
ATOM     15  C   UNL     1      45.670   4.061  12.820  0.00  0.00    +0.000 A 
ATOM     16  C   UNL     1      44.830   5.140  13.114  0.00  0.00    +0.000 A 
ATOM     17  C   UNL     1      43.662   5.349  12.377  0.00  0.00    +0.000 A 
ATOM     18  C   UNL     1      43.311   4.475  11.344  0.00  0.00    +0.000 A 
ATOM     19  C   UNL     1      44.124   3.383  11.059  0.00  0.00    +0.000 A 
ATOM     20  C   UNL     1      45.300   3.181  11.793  0.00  0.00    +0.000 A 
BRANCH  19  21
ATOM     21  O   UNL     1      43.894   2.474  10.056  0.00  0.00    +0.000 OA
BRANCH  21  22
ATOM     22  C   UNL     1      44.411   2.736   8.732  0.00  0.00    +0.000 C 
ATOM     23  C   UNL     1      45.805   2.154   8.395  0.00  0.00    +0.000 C 
ATOM     24  C   UNL     1      46.235   3.529   7.866  0.00  0.00    +0.000 C 
ATOM     25  C   UNL     1      45.024   4.149   8.571  0.00  0.00    +0.000 C 
ENDBRANCH  21  22
ENDBRANCH  19  21
ENDBRANCH  14  15
ENDBRANCH   1  14
TORSDOF 7
ENDMDL
MODEL 8
REMARK VINA RESULT:    -5.892      4.164      7.066
REMARK INTER + INTRA:          -9.377
REMARK INTER:                  -8.266
REMARK INTRA:                  -1.111
REMARK UNBOUND:                -1.074
REMARK  Name = 
REMARK  7 active torsions:
REMARK  status: ('A' for Active; 'I' for Inactive)
REMARK    1  A    between atoms: C_2  and  C_4
REMARK    2  A    between atoms: C_7  and  O_8
REMARK    3  A    between atoms: O_8  and  C_9
REMARK    4  A    between atoms: C_9  and  C_10
REMARK    5  A    between atoms: C_10  and  C_11
REMARK    6  A    between atoms: C_15  and  O_16
REMARK    7  A    between atoms: O_16  and  C_17
REMARK                            x       y       z     vdW  Elec       q    Type
REMARK                         _______ _______ _______ _____ _____    ______ ____
ROOT
ATOM      1  C   UNL     1      48.627   7.747  11.753  0.00  0.00    +0.000 C 
ENDROOT
BRANCH   1   2
ATOM      2  O   UNL     1      48.231   6.967  12.892  0.00  0.00    +0.000 OA
BRANCH   2   6
ATOM      3  C   UNL     1      44.973   4.589  12.030  0.00  0.00    +0.000 A 
ATOM      4  C   UNL     1      45.417   5.520  11.087  0.00  0.00    +0.000 A 
ATOM      5  C   UNL     1      46.521   6.323  11.391  0.00  0.00    +0.000 A 
ATOM      6  C   UNL     1      47.138   6.166  12.623  0.00  0.00    +0.000 A 
ATOM      7  N   UNL     1      46.721   5.280  13.553  0.00  0.00    +0.000 NA
ATOM      8  C   UNL     1      45.645   4.521  13.243  0.00  0.00    +0.000 A 
BRANCH   3  10
ATOM      9  N   UNL     1      43.806   2.515  12.522  0.00  0.00    +0.000 N 
ATOM     10  C   UNL     1      43.822   3.687  11.822  0.00  0.00    +0.000 C 
ATOM     11  O   UNL     1      42.895   3.995  11.088  0.00  0.00    +0.000 OA
ATOM     12  H   UNL     1      42.950   1.976  12.462  0.00  0.00    +0.000 HD
ATOM     13  H   UNL     1      44.406   2.346  13.317  0.00  0.00    +0.000 HD
ENDBRANCH   3  10
ENDBRANCH   2   6
ENDBRANCH   1   2
BRANCH   1  14
ATOM     14  C   UNL     1      48.920   9.178  12.201  0.00  0.00    +0.000 C 
BRANCH  14  15
ATOM     15  C   UNL     1      47.912  10.167  11.665  0.00  0.00    +0.000 A 
ATOM     16  C   UNL     1      48.300  11.158  10.757  0.00  0.00    +0.000 A 
ATOM     17  C   UNL     1      47.362  12.061  10.251  0.00  0.00    +0.000 A 
ATOM     18  C   UNL     1      46.025  11.993  10.654  0.00  0.00    +0.000 A 
ATOM     19  C   UNL     1      45.632  11.029  11.577  0.00  0.00    +0.000 A 
ATOM     20  C   UNL     1      46.572  10.120  12.077  0.00  0.00    +0.000 A 
BRANCH  19  21
ATOM     21  O   UNL     1      44.347  10.854  12.027  0.00  0.00    +0.000 OA
BRANCH  21  22
ATOM     22  C   UNL     1      43.245  11.038  11.111  0.00  0.00    +0.000 C 
ATOM     23  C   UNL     1      41.855  11.323  11.730  0.00  0.00    +0.000 C 
ATOM     24  C   UNL     1      41.250  10.230  10.839  0.00  0.00    +0.000 C 
ATOM     25  C   UNL     1      42.665   9.712  10.559  0.00  0.00    +0.000 C 
ENDBRANCH  21  22
ENDBRANCH  19  21
ENDBRANCH  14  15
ENDBRANCH   1  14
TORSDOF 7
ENDMDL
MODEL 9
REMARK VINA RESULT:    -5.782      2.820      4.828
REMARK INTER + INTRA:          -9.223
REMARK INTER:                  -7.957
REMARK INTRA:                  -1.266
REMARK UNBOUND:                -1.074
REMARK  Name = 
REMARK  7 active torsions:
REMARK  status: ('A' for Active; 'I' for Inactive)
REMARK    1  A    between atoms: C_2  and  C_4
REMARK    2  A    between atoms: C_7  and  O_8
REMARK    3  A    between atoms: O_8  and  C_9
REMARK    4  A    between atoms: C_9  and  C_10
REMARK    5  A    between atoms: C_10  and  C_11
REMARK    6  A    between atoms: C_15  and  O_16
REMARK    7  A    between atoms: O_16  and  C_17
REMARK                            x       y       z     vdW  Elec       q    Type
REMARK                         _______ _______ _______ _____ _____    ______ ____
ROOT
ATOM      1  C   UNL     1      48.760   7.351  11.847  0.00  0.00    +0.000 C 
ENDROOT
BRANCH   1   2
ATOM      2  O   UNL     1      47.376   7.637  12.105  0.00  0.00    +0.000 OA
BRANCH   2   6
ATOM      3  C   UNL     1      44.986   4.299  11.710  0.00  0.00    +0.000 A 
ATOM      4  C   UNL     1      45.688   4.508  12.900  0.00  0.00    +0.000 A 
ATOM      5  C   UNL     1      46.498   5.642  13.021  0.00  0.00    +0.000 A 
ATOM      6  C   UNL     1      46.575   6.522  11.953  0.00  0.00    +0.000 A 
ATOM      7  N   UNL     1      45.912   6.336  10.791  0.00  0.00    +0.000 NA
ATOM      8  C   UNL     1      45.143   5.228  10.691  0.00  0.00    +0.000 A 
BRANCH   3  10
ATOM      9  N   UNL     1      43.728   2.396  12.547  0.00  0.00    +0.000 N 
ATOM     10  C   UNL     1      44.100   3.143  11.466  0.00  0.00    +0.000 C 
ATOM     11  O   UNL     1      43.676   2.888  10.348  0.00  0.00    +0.000 OA
ATOM     12  H   UNL     1      43.021   1.690  12.374  0.00  0.00    +0.000 HD
ATOM     13  H   UNL     1      43.839   2.718  13.498  0.00  0.00    +0.000 HD
ENDBRANCH   3  10
ENDBRANCH   2   6
ENDBRANCH   1   2
BRANCH   1  14
ATOM     14  C   UNL     1      49.631   8.265  12.708  0.00  0.00    +0.000 C 
BRANCH  14  15
ATOM     15  C   UNL     1      49.266   8.200  14.171  0.00  0.00    +0.000 A 
ATOM     16  C   UNL     1      48.781   9.332  14.836  0.00  0.00    +0.000 A 
ATOM     17  C   UNL     1      48.427   9.264  16.185  0.00  0.00    +0.000 A 
ATOM     18  C   UNL     1      48.565   8.066  16.893  0.00  0.00    +0.000 A 
ATOM     19  C   UNL     1      49.072   6.941  16.251  0.00  0.00    +0.000 A 
ATOM     20  C   UNL     1      49.417   7.009  14.896  0.00  0.00    +0.000 A 
BRANCH  19  21
ATOM     21  O   UNL     1      49.230   5.709  16.837  0.00  0.00    +0.000 OA
BRANCH  21  22
ATOM     22  C   UNL     1      48.071   5.020  17.358  0.00  0.00    +0.000 C 
ATOM     23  C   UNL     1      48.331   3.814  18.292  0.00  0.00    +0.000 C 
ATOM     24  C   UNL     1      47.350   2.976  17.461  0.00  0.00    +0.000 C 
ATOM     25  C   UNL     1      47.431   4.031  16.352  0.00  0.00    +0.000 C 
ENDBRANCH  21  22
ENDBRANCH  19  21
ENDBRANCH  14  15
ENDBRANCH   1  14
TORSDOF 7
ENDMDL
