MODEL 1
REMARK VINA RESULT:    -8.271      0.000      0.000
REMARK INTER + INTRA:         -13.150
REMARK INTER:                 -12.139
REMARK INTRA:                  -1.011
REMARK UNBOUND:                -1.011
REMARK  Name = 
REMARK  9 active torsions:
REMARK  status: ('A' for Active; 'I' for Inactive)
REMARK    1  A    between atoms: C_1  and  C_2
REMARK    2  A    between atoms: C_2  and  N_3
REMARK    3  A    between atoms: C_2  and  C_20
REMARK    4  A    between atoms: N_3  and  C_4
REMARK    5  A    between atoms: C_4  and  C_5
REMARK    6  A    between atoms: C_8  and  C_9
REMARK    7  A    between atoms: C_9  and  N_10
REMARK    8  A    between atoms: N_10  and  C_11
REMARK    9  A    between atoms: C_11  and  C_12
REMARK                            x       y       z     vdW  Elec       q    Type
REMARK                         _______ _______ _______ _____ _____    ______ ____
ROOT
ATOM      1  C   UNL     1      47.714   5.374  14.510  0.00  0.00    +0.000 C 
ENDROOT
BRANCH   1   2
ATOM      2  C   UNL     1      46.677   5.080  13.453  0.00  0.00    +0.000 A 
ATOM      3  C   UNL     1      46.129   3.801  13.294  0.00  0.00    +0.000 A 
ATOM      4  C   UNL     1      45.152   3.570  12.321  0.00  0.00    +0.000 A 
ATOM      5  C   UNL     1      44.691   4.612  11.500  0.00  0.00    +0.000 A 
ATOM      6  C   UNL     1      45.230   5.892  11.673  0.00  0.00    +0.000 A 
ATOM      7  C   UNL     1      46.212   6.121  12.636  0.00  0.00    +0.000 A 
BRANCH   5   8
ATOM      8  C   UNL     1      43.654   4.363  10.430  0.00  0.00    +0.000 C 
BRANCH   8   9
ATOM      9  N   UNL     1      44.122   3.375   9.462  0.00  0.00    +0.000 NA
ATOM     10  H   UNL     1      43.313   2.903   9.058  0.00  0.00    +0.000 HD
BRANCH   9  11
ATOM     11  C   UNL     1      44.894   4.000   8.392  0.00  0.00    +0.000 C 
BRANCH  11  12
ATOM     12  C   UNL     1      45.923   3.041   7.843  0.00  0.00    +0.000 A 
ATOM     13  C   UNL     1      45.922   1.696   8.222  0.00  0.00    +0.000 A 
ATOM     14  C   UNL     1      46.893   0.856   7.698  0.00  0.00    +0.000 A 
ATOM     15  N   UNL     1      47.851   1.255   6.836  0.00  0.00    +0.000 NA
ATOM     16  C   UNL     1      47.835   2.557   6.478  0.00  0.00    +0.000 A 
ATOM     17  C   UNL     1      46.903   3.474   6.942  0.00  0.00    +0.000 A 
ENDBRANCH  11  12
ENDBRANCH   9  11
ENDBRANCH   8   9
ENDBRANCH   5   8
ENDBRANCH   1   2
BRANCH   1  18
ATOM     18  N   UNL     1      47.239   5.090  15.868  0.00  0.00    +0.000 NA
ATOM     19  H   UNL     1      47.423   5.909  16.446  0.00  0.00    +0.000 HD
BRANCH  18  21
ATOM     20  C   UNL     1      47.065   3.148  17.434  0.00  0.00    +0.000 C 
ATOM     21  C   UNL     1      47.948   3.945  16.461  0.00  0.00    +0.000 C 
BRANCH  21  22
ATOM     22  C   UNL     1      49.184   4.444  17.188  0.00  0.00    +0.000 A 
ATOM     23  C   UNL     1      49.342   5.686  17.788  0.00  0.00    +0.000 A 
ATOM     24  S   UNL     1      50.816   5.844  18.641  0.00  0.00    +0.000 S 
ATOM     25  C   UNL     1      51.279   4.249  18.260  0.00  0.00    +0.000 A 
ATOM     26  N   UNL     1      52.419   3.697  18.757  0.00  0.00    +0.000 NA
ATOM     27  C   UNL     1      52.602   2.462  18.414  0.00  0.00    +0.000 A 
ATOM     28  N   UNL     1      51.773   1.742  17.594  0.00  0.00    +0.000 N 
ATOM     29  C   UNL     1      50.649   2.280  17.011  0.00  0.00    +0.000 A 
ATOM     30  O   UNL     1      49.983   1.645  16.201  0.00  0.00    +0.000 OA
ATOM     31  C   UNL     1      50.354   3.633  17.437  0.00  0.00    +0.000 A 
ATOM     32  H   UNL     1      51.992   0.791  17.337  0.00  0.00    +0.000 HD
ENDBRANCH  21  22
ENDBRANCH  18  21
ENDBRANCH   1  18
TORSDOF 8
ENDMDL
MODEL 2
REMARK VINA RESULT:    -7.606      1.613      2.152
REMARK INTER + INTRA:         -12.174
REMARK INTER:                 -10.896
REMARK INTRA:                  -1.278
REMARK UNBOUND:                -1.011
REMARK  Name = 
REMARK  9 active torsions:
REMARK  status: ('A' for Active; 'I' for Inactive)
REMARK    1  A    between atoms: C_1  and  C_2
REMARK    2  A    between atoms: C_2  and  N_3
REMARK    3  A    between atoms: C_2  and  C_20
REMARK    4  A    between atoms: N_3  and  C_4
REMARK    5  A    between atoms: C_4  and  C_5
REMARK    6  A    between atoms: C_8  and  C_9
REMARK    7  A    between atoms: C_9  and  N_10
REMARK    8  A    between atoms: N_10  and  C_11
REMARK    9  A    between atoms: C_11  and  C_12
REMARK                            x       y       z     vdW  Elec       q    Type
REMARK                         _______ _______ _______ _____ _____    ______ ____
ROOT
ATOM      1  C   UNL     1      48.163   6.515  13.885  0.00  0.00    +0.000 C 
ENDROOT
BRANCH   1   2
ATOM      2  C   UNL     1      46.978   6.112  13.041  0.00  0.00    +0.000 A 
ATOM      3  C   UNL     1      46.729   6.696  11.793  0.00  0.00    +0.000 A 
ATOM      4  C   UNL     1      45.635   6.281  11.027  0.00  0.00    +0.000 A 
ATOM      5  C   UNL     1      44.779   5.264  11.483  0.00  0.00    +0.000 A 
ATOM      6  C   UNL     1      45.041   4.672  12.724  0.00  0.00    +0.000 A 
ATOM      7  C   UNL     1      46.125   5.093  13.493  0.00  0.00    +0.000 A 
BRANCH   5   8
ATOM      8  C   UNL     1      43.582   4.830  10.671  0.00  0.00    +0.000 C 
BRANCH   8   9
ATOM      9  N   UNL     1      43.986   4.350   9.352  0.00  0.00    +0.000 NA
ATOM     10  H   UNL     1      44.770   4.915   9.024  0.00  0.00    +0.000 HD
BRANCH   9  11
ATOM     11  C   UNL     1      44.393   2.948   9.395  0.00  0.00    +0.000 C 
BRANCH  11  12
ATOM     12  C   UNL     1      45.490   2.677   8.395  0.00  0.00    +0.000 A 
ATOM     13  C   UNL     1      46.080   1.413   8.306  0.00  0.00    +0.000 A 
ATOM     14  C   UNL     1      47.091   1.215   7.378  0.00  0.00    +0.000 A 
ATOM     15  N   UNL     1      47.550   2.172   6.545  0.00  0.00    +0.000 NA
ATOM     16  C   UNL     1      46.966   3.385   6.643  0.00  0.00    +0.000 A 
ATOM     17  C   UNL     1      45.945   3.682   7.534  0.00  0.00    +0.000 A 
ENDBRANCH  11  12
ENDBRANCH   9  11
ENDBRANCH   8   9
ENDBRANCH   5   8
ENDBRANCH   1   2
BRANCH   1  18
ATOM     18  N   UNL     1      48.114   5.954  15.239  0.00  0.00    +0.000 NA
ATOM     19  H   UNL     1      47.135   5.832  15.496  0.00  0.00    +0.000 HD
BRANCH  18  21
ATOM     20  C   UNL     1      48.558   8.338  15.851  0.00  0.00    +0.000 C 
ATOM     21  C   UNL     1      48.733   6.857  16.222  0.00  0.00    +0.000 C 
BRANCH  21  22
ATOM     22  C   UNL     1      50.211   6.533  16.340  0.00  0.00    +0.000 A 
ATOM     23  C   UNL     1      51.264   7.311  15.878  0.00  0.00    +0.000 A 
ATOM     24  S   UNL     1      52.800   6.701  16.318  0.00  0.00    +0.000 S 
ATOM     25  C   UNL     1      52.108   5.394  17.163  0.00  0.00    +0.000 A 
ATOM     26  N   UNL     1      52.870   4.512  17.866  0.00  0.00    +0.000 NA
ATOM     27  C   UNL     1      52.189   3.607  18.493  0.00  0.00    +0.000 A 
ATOM     28  N   UNL     1      50.826   3.480  18.453  0.00  0.00    +0.000 N 
ATOM     29  C   UNL     1      50.021   4.302  17.698  0.00  0.00    +0.000 A 
ATOM     30  O   UNL     1      48.816   4.101  17.599  0.00  0.00    +0.000 OA
ATOM     31  C   UNL     1      50.730   5.387  17.050  0.00  0.00    +0.000 A 
ATOM     32  H   UNL     1      50.359   2.728  18.937  0.00  0.00    +0.000 HD
ENDBRANCH  21  22
ENDBRANCH  18  21
ENDBRANCH   1  18
TORSDOF 8
ENDMDL
MODEL 3
REMARK VINA RESULT:    -7.584      1.931      2.612
REMARK INTER + INTRA:         -12.142
REMARK INTER:                 -10.722
REMARK INTRA:                  -1.420
REMARK UNBOUND:                -1.011
REMARK  Name = 
REMARK  9 active torsions:
REMARK  status: ('A' for Active; 'I' for Inactive)
REMARK    1  A    between atoms: C_1  and  C_2
REMARK    2  A    between atoms: C_2  and  N_3
REMARK    3  A    between atoms: C_2  and  C_20
REMARK    4  A    between atoms: N_3  and  C_4
REMARK    5  A    between atoms: C_4  and  C_5
REMARK    6  A    between atoms: C_8  and  C_9
REMARK    7  A    between atoms: C_9  and  N_10
REMARK    8  A    between atoms: N_10  and  C_11
REMARK    9  A    between atoms: C_11  and  C_12
REMARK                            x       y       z     vdW  Elec       q    Type
REMARK                         _______ _______ _______ _____ _____    ______ ____
ROOT
ATOM      1  C   UNL     1      48.182   6.851  12.891  0.00  0.00    +0.000 C 
ENDROOT
BRANCH   1   2
ATOM      2  C   UNL     1      47.015   6.019  12.417  0.00  0.00    +0.000 A 
ATOM      3  C   UNL     1      46.618   4.855  13.087  0.00  0.00    +0.000 A 
ATOM      4  C   UNL     1      45.517   4.122  12.634  0.00  0.00    +0.000 A 
ATOM      5  C   UNL     1      44.780   4.544  11.515  0.00  0.00    +0.000 A 
ATOM      6  C   UNL     1      45.171   5.716  10.858  0.00  0.00    +0.000 A 
ATOM      7  C   UNL     1      46.275   6.442  11.303  0.00  0.00    +0.000 A 
BRANCH   5   8
ATOM      8  C   UNL     1      43.605   3.742  11.007  0.00  0.00    +0.000 C 
BRANCH   8   9
ATOM      9  N   UNL     1      43.768   3.406   9.595  0.00  0.00    +0.000 NA
ATOM     10  H   UNL     1      44.288   4.155   9.137  0.00  0.00    +0.000 HD
BRANCH   9  11
ATOM     11  C   UNL     1      44.493   2.149   9.426  0.00  0.00    +0.000 C 
BRANCH  11  12
ATOM     12  C   UNL     1      45.626   2.312   8.442  0.00  0.00    +0.000 A 
ATOM     13  C   UNL     1      45.928   3.564   7.900  0.00  0.00    +0.000 A 
ATOM     14  C   UNL     1      46.972   3.662   6.993  0.00  0.00    +0.000 A 
ATOM     15  N   UNL     1      47.725   2.617   6.594  0.00  0.00    +0.000 NA
ATOM     16  C   UNL     1      47.422   1.416   7.131  0.00  0.00    +0.000 A 
ATOM     17  C   UNL     1      46.401   1.216   8.049  0.00  0.00    +0.000 A 
ENDBRANCH  11  12
ENDBRANCH   9  11
ENDBRANCH   8   9
ENDBRANCH   5   8
ENDBRANCH   1   2
BRANCH   1  18
ATOM     18  N   UNL     1      48.784   6.335  14.124  0.00  0.00    +0.000 NA
ATOM     19  H   UNL     1      48.397   5.408  14.303  0.00  0.00    +0.000 HD
BRANCH  18  21
ATOM     20  C   UNL     1      48.684   8.681  14.984  0.00  0.00    +0.000 C 
ATOM     21  C   UNL     1      48.469   7.189  15.280  0.00  0.00    +0.000 C 
BRANCH  21  22
ATOM     22  C   UNL     1      49.330   6.774  16.460  0.00  0.00    +0.000 A 
ATOM     23  C   UNL     1      50.461   7.431  16.924  0.00  0.00    +0.000 A 
ATOM     24  S   UNL     1      51.091   6.759  18.365  0.00  0.00    +0.000 S 
ATOM     25  C   UNL     1      49.857   5.586  18.431  0.00  0.00    +0.000 A 
ATOM     26  N   UNL     1      49.746   4.722  19.476  0.00  0.00    +0.000 NA
ATOM     27  C   UNL     1      48.726   3.928  19.400  0.00  0.00    +0.000 A 
ATOM     28  N   UNL     1      47.832   3.893  18.362  0.00  0.00    +0.000 N 
ATOM     29  C   UNL     1      47.946   4.696  17.251  0.00  0.00    +0.000 A 
ATOM     30  O   UNL     1      47.193   4.571  16.292  0.00  0.00    +0.000 OA
ATOM     31  C   UNL     1      49.021   5.665  17.332  0.00  0.00    +0.000 A 
ATOM     32  H   UNL     1      47.078   3.223  18.348  0.00  0.00    +0.000 HD
ENDBRANCH  21  22
ENDBRANCH  18  21
ENDBRANCH   1  18
TORSDOF 8
ENDMDL
MODEL 4
REMARK VINA RESULT:    -7.315      2.356      2.850
REMARK INTER + INTRA:         -11.747
REMARK INTER:                 -10.453
REMARK INTRA:                  -1.294
REMARK UNBOUND:                -1.011
REMARK  Name = 
REMARK  9 active torsions:
REMARK  status: ('A' for Active; 'I' for Inactive)
REMARK    1  A    between atoms: C_1  and  C_2
REMARK    2  A    between atoms: C_2  and  N_3
REMARK    3  A    between atoms: C_2  and  C_20
REMARK    4  A    between atoms: N_3  and  C_4
REMARK    5  A    between atoms: C_4  and  C_5
REMARK    6  A    between atoms: C_8  and  C_9
REMARK    7  A    between atoms: C_9  and  N_10
REMARK    8  A    between atoms: N_10  and  C_11
REMARK    9  A    between atoms: C_11  and  C_12
REMARK                            x       y       z     vdW  Elec       q    Type
REMARK                         _______ _______ _______ _____ _____    ______ ____
ROOT
ATOM      1  C   UNL     1      47.581   4.157  14.527  0.00  0.00    +0.000 C 
ENDROOT
BRANCH   1   2
ATOM      2  C   UNL     1      46.577   4.247  13.404  0.00  0.00    +0.000 A 
ATOM      3  C   UNL     1      45.923   3.114  12.906  0.00  0.00    +0.000 A 
ATOM      4  C   UNL     1      44.980   3.239  11.881  0.00  0.00    +0.000 A 
ATOM      5  C   UNL     1      44.659   4.497  11.344  0.00  0.00    +0.000 A 
ATOM      6  C   UNL     1      45.304   5.629  11.856  0.00  0.00    +0.000 A 
ATOM      7  C   UNL     1      46.252   5.504  12.870  0.00  0.00    +0.000 A 
BRANCH   5   8
ATOM      8  C   UNL     1      43.660   4.634  10.220  0.00  0.00    +0.000 C 
BRANCH   8   9
ATOM      9  N   UNL     1      43.999   3.755   9.104  0.00  0.00    +0.000 NA
ATOM     10  H   UNL     1      43.181   3.660   8.501  0.00  0.00    +0.000 HD
BRANCH   9  11
ATOM     11  C   UNL     1      45.108   4.290   8.320  0.00  0.00    +0.000 C 
BRANCH  11  12
ATOM     12  C   UNL     1      46.026   3.183   7.864  0.00  0.00    +0.000 A 
ATOM     13  C   UNL     1      47.093   3.448   7.001  0.00  0.00    +0.000 A 
ATOM     14  C   UNL     1      47.904   2.397   6.601  0.00  0.00    +0.000 A 
ATOM     15  N   UNL     1      47.729   1.118   6.995  0.00  0.00    +0.000 NA
ATOM     16  C   UNL     1      46.697   0.880   7.831  0.00  0.00    +0.000 A 
ATOM     17  C   UNL     1      45.834   1.865   8.291  0.00  0.00    +0.000 A 
ENDBRANCH  11  12
ENDBRANCH   9  11
ENDBRANCH   8   9
ENDBRANCH   5   8
ENDBRANCH   1   2
BRANCH   1  18
ATOM     18  N   UNL     1      47.188   4.936  15.705  0.00  0.00    +0.000 NA
ATOM     19  H   UNL     1      47.438   5.911  15.539  0.00  0.00    +0.000 HD
BRANCH  18  21
ATOM     20  C   UNL     1      47.209   3.286  17.584  0.00  0.00    +0.000 C 
ATOM     21  C   UNL     1      47.896   4.486  16.914  0.00  0.00    +0.000 C 
BRANCH  21  22
ATOM     22  C   UNL     1      47.986   5.636  17.900  0.00  0.00    +0.000 A 
ATOM     23  C   UNL     1      47.234   5.791  19.057  0.00  0.00    +0.000 A 
ATOM     24  S   UNL     1      47.710   7.136  20.000  0.00  0.00    +0.000 S 
ATOM     25  C   UNL     1      48.955   7.539  18.908  0.00  0.00    +0.000 A 
ATOM     26  N   UNL     1      49.823   8.557  19.157  0.00  0.00    +0.000 NA
ATOM     27  C   UNL     1      50.740   8.703  18.255  0.00  0.00    +0.000 A 
ATOM     28  N   UNL     1      50.847   7.952  17.114  0.00  0.00    +0.000 N 
ATOM     29  C   UNL     1      49.951   6.962  16.785  0.00  0.00    +0.000 A 
ATOM     30  O   UNL     1      50.010   6.377  15.709  0.00  0.00    +0.000 OA
ATOM     31  C   UNL     1      48.958   6.701  17.808  0.00  0.00    +0.000 A 
ATOM     32  H   UNL     1      51.566   8.142  16.432  0.00  0.00    +0.000 HD
ENDBRANCH  21  22
ENDBRANCH  18  21
ENDBRANCH   1  18
TORSDOF 8
ENDMDL
MODEL 5
REMARK VINA RESULT:    -7.300      2.775      3.572
REMARK INTER + INTRA:         -11.724
REMARK INTER:                 -10.550
REMARK INTRA:                  -1.174
REMARK UNBOUND:                -1.011
REMARK  Name = 
REMARK  9 active torsions:
REMARK  status: ('A' for Active; 'I' for Inactive)
REMARK    1  A    between atoms: C_1  and  C_2
REMARK    2  A    between atoms: C_2  and  N_3
REMARK    3  A    between atoms: C_2  and  C_20
REMARK    4  A    between atoms: N_3  and  C_4
REMARK    5  A    between atoms: C_4  and  C_5
REMARK    6  A    between atoms: C_8  and  C_9
REMARK    7  A    between atoms: C_9  and  N_10
REMARK    8  A    between atoms: N_10  and  C_11
REMARK    9  A    between atoms: C_11  and  C_12
REMARK                            x       y       z     vdW  Elec       q    Type
REMARK                         _______ _______ _______ _____ _____    ______ ____
ROOT
ATOM      1  C   UNL     1      48.054   7.242  13.664  0.00  0.00    +0.000 C 
ENDROOT
BRANCH   1   2
ATOM      2  C   UNL     1      47.073   6.309  12.996  0.00  0.00    +0.000 A 
ATOM      3  C   UNL     1      46.593   5.161  13.639  0.00  0.00    +0.000 A 
ATOM      4  C   UNL     1      45.665   4.332  12.999  0.00  0.00    +0.000 A 
ATOM      5  C   UNL     1      45.188   4.640  11.715  0.00  0.00    +0.000 A 
ATOM      6  C   UNL     1      45.658   5.796  11.083  0.00  0.00    +0.000 A 
ATOM      7  C   UNL     1      46.590   6.617  11.715  0.00  0.00    +0.000 A 
BRANCH   5   8
ATOM      8  C   UNL     1      44.205   3.734  11.011  0.00  0.00    +0.000 C 
BRANCH   8   9
ATOM      9  N   UNL     1      44.851   2.502  10.564  0.00  0.00    +0.000 NA
ATOM     10  H   UNL     1      44.557   1.739  11.174  0.00  0.00    +0.000 HD
BRANCH   9  11
ATOM     11  C   UNL     1      44.490   2.179   9.187  0.00  0.00    +0.000 C 
BRANCH  11  12
ATOM     12  C   UNL     1      45.687   2.298   8.276  0.00  0.00    +0.000 A 
ATOM     13  C   UNL     1      46.458   1.177   7.958  0.00  0.00    +0.000 A 
ATOM     14  C   UNL     1      47.555   1.337   7.125  0.00  0.00    +0.000 A 
ATOM     15  N   UNL     1      47.932   2.519   6.594  0.00  0.00    +0.000 NA
ATOM     16  C   UNL     1      47.174   3.591   6.909  0.00  0.00    +0.000 A 
ATOM     17  C   UNL     1      46.056   3.531   7.729  0.00  0.00    +0.000 A 
ENDBRANCH  11  12
ENDBRANCH   9  11
ENDBRANCH   8   9
ENDBRANCH   5   8
ENDBRANCH   1   2
BRANCH   1  18
ATOM     18  N   UNL     1      49.128   6.532  14.364  0.00  0.00    +0.000 NA
ATOM     19  H   UNL     1      48.833   5.565  14.501  0.00  0.00    +0.000 HD
BRANCH  18  21
ATOM     20  C   UNL     1      50.893   7.304  15.958  0.00  0.00    +0.000 C 
ATOM     21  C   UNL     1      49.392   7.118  15.687  0.00  0.00    +0.000 C 
BRANCH  21  22
ATOM     22  C   UNL     1      48.788   6.229  16.759  0.00  0.00    +0.000 A 
ATOM     23  C   UNL     1      48.689   4.845  16.721  0.00  0.00    +0.000 A 
ATOM     24  S   UNL     1      48.084   4.169  18.171  0.00  0.00    +0.000 S 
ATOM     25  C   UNL     1      47.961   5.701  18.907  0.00  0.00    +0.000 A 
ATOM     26  N   UNL     1      47.584   5.843  20.206  0.00  0.00    +0.000 NA
ATOM     27  C   UNL     1      47.588   7.067  20.628  0.00  0.00    +0.000 A 
ATOM     28  N   UNL     1      47.898   8.161  19.864  0.00  0.00    +0.000 N 
ATOM     29  C   UNL     1      48.215   8.073  18.528  0.00  0.00    +0.000 A 
ATOM     30  O   UNL     1      48.385   9.076  17.844  0.00  0.00    +0.000 OA
ATOM     31  C   UNL     1      48.310   6.715  18.033  0.00  0.00    +0.000 A 
ATOM     32  H   UNL     1      47.848   9.093  20.246  0.00  0.00    +0.000 HD
ENDBRANCH  21  22
ENDBRANCH  18  21
ENDBRANCH   1  18
TORSDOF 8
ENDMDL
MODEL 6
REMARK VINA RESULT:    -7.009      2.820      3.587
REMARK INTER + INTRA:         -11.298
REMARK INTER:                 -10.012
REMARK INTRA:                  -1.286
REMARK UNBOUND:                -1.011
REMARK  Name = 
REMARK  9 active torsions:
REMARK  status: ('A' for Active; 'I' for Inactive)
REMARK    1  A    between atoms: C_1  and  C_2
REMARK    2  A    between atoms: C_2  and  N_3
REMARK    3  A    between atoms: C_2  and  C_20
REMARK    4  A    between atoms: N_3  and  C_4
REMARK    5  A    between atoms: C_4  and  C_5
REMARK    6  A    between atoms: C_8  and  C_9
REMARK    7  A    between atoms: C_9  and  N_10
REMARK    8  A    between atoms: N_10  and  C_11
REMARK    9  A    between atoms: C_11  and  C_12
REMARK                            x       y       z     vdW  Elec       q    Type
REMARK                         _______ _______ _______ _____ _____    ______ ____
ROOT
ATOM      1  C   UNL     1      49.161   6.652  15.506  0.00  0.00    +0.000 C 
ENDROOT
BRANCH   1   2
ATOM      2  C   UNL     1      48.173   6.850  14.383  0.00  0.00    +0.000 A 
ATOM      3  C   UNL     1      47.677   5.773  13.638  0.00  0.00    +0.000 A 
ATOM      4  C   UNL     1      46.743   5.992  12.620  0.00  0.00    +0.000 A 
ATOM      5  C   UNL     1      46.274   7.285  12.337  0.00  0.00    +0.000 A 
ATOM      6  C   UNL     1      46.760   8.357  13.094  0.00  0.00    +0.000 A 
ATOM      7  C   UNL     1      47.699   8.141  14.102  0.00  0.00    +0.000 A 
BRANCH   5   8
ATOM      8  C   UNL     1      45.284   7.529  11.222  0.00  0.00    +0.000 C 
BRANCH   8   9
ATOM      9  N   UNL     1      43.931   7.697  11.746  0.00  0.00    +0.000 NA
ATOM     10  H   UNL     1      43.627   8.654  11.567  0.00  0.00    +0.000 HD
BRANCH   9  11
ATOM     11  C   UNL     1      42.995   6.773  11.113  0.00  0.00    +0.000 C 
BRANCH  11  12
ATOM     12  C   UNL     1      43.223   5.362  11.597  0.00  0.00    +0.000 A 
ATOM     13  C   UNL     1      43.144   5.050  12.957  0.00  0.00    +0.000 A 
ATOM     14  C   UNL     1      43.371   3.742  13.355  0.00  0.00    +0.000 A 
ATOM     15  N   UNL     1      43.668   2.736  12.507  0.00  0.00    +0.000 NA
ATOM     16  C   UNL     1      43.737   3.054  11.196  0.00  0.00    +0.000 A 
ATOM     17  C   UNL     1      43.521   4.331  10.699  0.00  0.00    +0.000 A 
ENDBRANCH  11  12
ENDBRANCH   9  11
ENDBRANCH   8   9
ENDBRANCH   5   8
ENDBRANCH   1   2
BRANCH   1  18
ATOM     18  N   UNL     1      48.520   6.260  16.765  0.00  0.00    +0.000 NA
ATOM     19  H   UNL     1      48.972   6.770  17.524  0.00  0.00    +0.000 HD
BRANCH  18  21
ATOM     20  C   UNL     1      47.646   4.295  18.041  0.00  0.00    +0.000 C 
ATOM     21  C   UNL     1      48.675   4.821  17.028  0.00  0.00    +0.000 C 
BRANCH  21  22
ATOM     22  C   UNL     1      50.078   4.554  17.542  0.00  0.00    +0.000 A 
ATOM     23  C   UNL     1      50.877   5.439  18.255  0.00  0.00    +0.000 A 
ATOM     24  S   UNL     1      52.342   4.743  18.797  0.00  0.00    +0.000 S 
ATOM     25  C   UNL     1      51.945   3.229  18.123  0.00  0.00    +0.000 A 
ATOM     26  N   UNL     1      52.739   2.139  18.296  0.00  0.00    +0.000 NA
ATOM     27  C   UNL     1      52.273   1.054  17.763  0.00  0.00    +0.000 A 
ATOM     28  N   UNL     1      51.109   0.968  17.046  0.00  0.00    +0.000 N 
ATOM     29  C   UNL     1      50.311   2.058  16.784  0.00  0.00    +0.000 A 
ATOM     30  O   UNL     1      49.332   1.972  16.052  0.00  0.00    +0.000 OA
ATOM     31  C   UNL     1      50.746   3.277  17.435  0.00  0.00    +0.000 A 
ATOM     32  H   UNL     1      50.820   0.098  16.626  0.00  0.00    +0.000 HD
ENDBRANCH  21  22
ENDBRANCH  18  21
ENDBRANCH   1  18
TORSDOF 8
ENDMDL
MODEL 7
REMARK VINA RESULT:    -7.002      3.681      8.837
REMARK INTER + INTRA:         -11.287
REMARK INTER:                  -9.720
REMARK INTRA:                  -1.567
REMARK UNBOUND:                -1.011
REMARK  Name = 
REMARK  9 active torsions:
REMARK  status: ('A' for Active; 'I' for Inactive)
REMARK    1  A    between atoms: C_1  and  C_2
REMARK    2  A    between atoms: C_2  and  N_3
REMARK    3  A    between atoms: C_2  and  C_20
REMARK    4  A    between atoms: N_3  and  C_4
REMARK    5  A    between atoms: C_4  and  C_5
REMARK    6  A    between atoms: C_8  and  C_9
REMARK    7  A    between atoms: C_9  and  N_10
REMARK    8  A    between atoms: N_10  and  C_11
REMARK    9  A    between atoms: C_11  and  C_12
REMARK                            x       y       z     vdW  Elec       q    Type
REMARK                         _______ _______ _______ _____ _____    ______ ____
ROOT
ATOM      1  C   UNL     1      47.948   8.096  14.195  0.00  0.00    +0.000 C 
ENDROOT
BRANCH   1   2
ATOM      2  C   UNL     1      48.923   7.841  15.319  0.00  0.00    +0.000 A 
ATOM      3  C   UNL     1      48.690   8.307  16.618  0.00  0.00    +0.000 A 
ATOM      4  C   UNL     1      49.604   8.031  17.640  0.00  0.00    +0.000 A 
ATOM      5  C   UNL     1      50.758   7.272  17.390  0.00  0.00    +0.000 A 
ATOM      6  C   UNL     1      50.980   6.794  16.093  0.00  0.00    +0.000 A 
ATOM      7  C   UNL     1      50.075   7.078  15.072  0.00  0.00    +0.000 A 
BRANCH   5   8
ATOM      8  C   UNL     1      51.761   6.992  18.485  0.00  0.00    +0.000 C 
BRANCH   8   9
ATOM      9  N   UNL     1      51.977   5.557  18.647  0.00  0.00    +0.000 NA
ATOM     10  H   UNL     1      52.730   5.414  19.321  0.00  0.00    +0.000 HD
BRANCH   9  11
ATOM     11  C   UNL     1      50.773   4.886  19.127  0.00  0.00    +0.000 C 
BRANCH  11  12
ATOM     12  C   UNL     1      50.329   3.820  18.155  0.00  0.00    +0.000 A 
ATOM     13  C   UNL     1      49.029   3.815  17.643  0.00  0.00    +0.000 A 
ATOM     14  C   UNL     1      48.665   2.810  16.760  0.00  0.00    +0.000 A 
ATOM     15  N   UNL     1      49.492   1.824  16.357  0.00  0.00    +0.000 NA
ATOM     16  C   UNL     1      50.746   1.846  16.858  0.00  0.00    +0.000 A 
ATOM     17  C   UNL     1      51.206   2.812  17.742  0.00  0.00    +0.000 A 
ENDBRANCH  11  12
ENDBRANCH   9  11
ENDBRANCH   8   9
ENDBRANCH   5   8
ENDBRANCH   1   2
BRANCH   1  18
ATOM     18  N   UNL     1      46.971   7.014  14.034  0.00  0.00    +0.000 NA
ATOM     19  H   UNL     1      47.209   6.271  14.692  0.00  0.00    +0.000 HD
BRANCH  18  21
ATOM     20  C   UNL     1      47.728   7.367  11.677  0.00  0.00    +0.000 C 
ATOM     21  C   UNL     1      47.009   6.448  12.677  0.00  0.00    +0.000 C 
BRANCH  21  22
ATOM     22  C   UNL     1      45.590   6.190  12.202  0.00  0.00    +0.000 A 
ATOM     23  C   UNL     1      44.738   7.115  11.614  0.00  0.00    +0.000 A 
ATOM     24  S   UNL     1      43.266   6.432  11.072  0.00  0.00    +0.000 S 
ATOM     25  C   UNL     1      43.731   4.873  11.581  0.00  0.00    +0.000 A 
ATOM     26  N   UNL     1      42.956   3.781  11.340  0.00  0.00    +0.000 NA
ATOM     27  C   UNL     1      43.474   2.666  11.745  0.00  0.00    +0.000 A 
ATOM     28  N   UNL     1      44.672   2.546  12.399  0.00  0.00    +0.000 N 
ATOM     29  C   UNL     1      45.454   3.628  12.728  0.00  0.00    +0.000 A 
ATOM     30  O   UNL     1      46.469   3.502  13.404  0.00  0.00    +0.000 OA
ATOM     31  C   UNL     1      44.960   4.891  12.216  0.00  0.00    +0.000 A 
ATOM     32  H   UNL     1      45.001   1.648  12.720  0.00  0.00    +0.000 HD
ENDBRANCH  21  22
ENDBRANCH  18  21
ENDBRANCH   1  18
TORSDOF 8
ENDMDL
MODEL 8
REMARK VINA RESULT:    -6.928      2.871      3.536
REMARK INTER + INTRA:         -11.179
REMARK INTER:                  -9.943
REMARK INTRA:                  -1.236
REMARK UNBOUND:                -1.011
REMARK  Name = 
REMARK  9 active torsions:
REMARK  status: ('A' for Active; 'I' for Inactive)
REMARK    1  A    between atoms: C_1  and  C_2
REMARK    2  A    between atoms: C_2  and  N_3
REMARK    3  A    between atoms: C_2  and  C_20
REMARK    4  A    between atoms: N_3  and  C_4
REMARK    5  A    between atoms: C_4  and  C_5
REMARK    6  A    between atoms: C_8  and  C_9
REMARK    7  A    between atoms: C_9  and  N_10
REMARK    8  A    between atoms: N_10  and  C_11
REMARK    9  A    between atoms: C_11  and  C_12
REMARK                            x       y       z     vdW  Elec       q    Type
REMARK                         _______ _______ _______ _____ _____    ______ ____
ROOT
ATOM      1  C   UNL     1      47.729   6.077  14.207  0.00  0.00    +0.000 C 
ENDROOT
BRANCH   1   2
ATOM      2  C   UNL     1      46.684   5.763  13.164  0.00  0.00    +0.000 A 
ATOM      3  C   UNL     1      46.604   6.477  11.962  0.00  0.00    +0.000 A 
ATOM      4  C   UNL     1      45.638   6.143  11.008  0.00  0.00    +0.000 A 
ATOM      5  C   UNL     1      44.745   5.081  11.226  0.00  0.00    +0.000 A 
ATOM      6  C   UNL     1      44.838   4.360  12.422  0.00  0.00    +0.000 A 
ATOM      7  C   UNL     1      45.794   4.700  13.379  0.00  0.00    +0.000 A 
BRANCH   5   8
ATOM      8  C   UNL     1      43.683   4.733  10.209  0.00  0.00    +0.000 C 
BRANCH   8   9
ATOM      9  N   UNL     1      44.282   4.275   8.958  0.00  0.00    +0.000 NA
ATOM     10  H   UNL     1      45.185   4.735   8.840  0.00  0.00    +0.000 HD
BRANCH   9  11
ATOM     11  C   UNL     1      44.480   2.829   8.958  0.00  0.00    +0.000 C 
BRANCH  11  12
ATOM     12  C   UNL     1      45.718   2.456   8.179  0.00  0.00    +0.000 A 
ATOM     13  C   UNL     1      46.150   1.129   8.115  0.00  0.00    +0.000 A 
ATOM     14  C   UNL     1      47.298   0.837   7.396  0.00  0.00    +0.000 A 
ATOM     15  N   UNL     1      48.036   1.760   6.745  0.00  0.00    +0.000 NA
ATOM     16  C   UNL     1      47.602   3.036   6.814  0.00  0.00    +0.000 A 
ATOM     17  C   UNL     1      46.464   3.428   7.504  0.00  0.00    +0.000 A 
ENDBRANCH  11  12
ENDBRANCH   9  11
ENDBRANCH   8   9
ENDBRANCH   5   8
ENDBRANCH   1   2
BRANCH   1  18
ATOM     18  N   UNL     1      48.966   6.611  13.629  0.00  0.00    +0.000 NA
ATOM     19  H   UNL     1      49.720   5.954  13.831  0.00  0.00    +0.000 HD
BRANCH  18  21
ATOM     20  C   UNL     1      48.726   9.093  13.443  0.00  0.00    +0.000 C 
ATOM     21  C   UNL     1      49.325   7.909  14.220  0.00  0.00    +0.000 C 
BRANCH  21  22
ATOM     22  C   UNL     1      50.836   8.041  14.262  0.00  0.00    +0.000 A 
ATOM     23  C   UNL     1      51.617   8.837  13.435  0.00  0.00    +0.000 A 
ATOM     24  S   UNL     1      53.272   8.847  13.869  0.00  0.00    +0.000 S 
ATOM     25  C   UNL     1      52.994   7.811  15.193  0.00  0.00    +0.000 A 
ATOM     26  N   UNL     1      53.988   7.476  16.060  0.00  0.00    +0.000 NA
ATOM     27  C   UNL     1      53.603   6.722  17.040  0.00  0.00    +0.000 A 
ATOM     28  N   UNL     1      52.331   6.244  17.212  0.00  0.00    +0.000 N 
ATOM     29  C   UNL     1      51.312   6.497  16.323  0.00  0.00    +0.000 A 
ATOM     30  O   UNL     1      50.211   5.971  16.447  0.00  0.00    +0.000 OA
ATOM     31  C   UNL     1      51.672   7.410  15.258  0.00  0.00    +0.000 A 
ATOM     32  H   UNL     1      52.105   5.630  17.981  0.00  0.00    +0.000 HD
ENDBRANCH  21  22
ENDBRANCH  18  21
ENDBRANCH   1  18
TORSDOF 8
ENDMDL
MODEL 9
REMARK VINA RESULT:    -6.836      4.373      5.897
REMARK INTER + INTRA:         -11.044
REMARK INTER:                  -9.743
REMARK INTRA:                  -1.301
REMARK UNBOUND:                -1.011
REMARK  Name = 
REMARK  9 active torsions:
REMARK  status: ('A' for Active; 'I' for Inactive)
REMARK    1  A    between atoms: C_1  and  C_2
REMARK    2  A    between atoms: C_2  and  N_3
REMARK    3  A    between atoms: C_2  and  C_20
REMARK    4  A    between atoms: N_3  and  C_4
REMARK    5  A    between atoms: C_4  and  C_5
REMARK    6  A    between atoms: C_8  and  C_9
REMARK    7  A    between atoms: C_9  and  N_10
REMARK    8  A    between atoms: N_10  and  C_11
REMARK    9  A    between atoms: C_11  and  C_12
REMARK                            x       y       z     vdW  Elec       q    Type
REMARK                         _______ _______ _______ _____ _____    ______ ____
ROOT
ATOM      1  C   UNL     1      48.212   6.388  14.287  0.00  0.00    +0.000 C 
ENDROOT
BRANCH   1   2
ATOM      2  C   UNL     1      47.142   5.857  13.365  0.00  0.00    +0.000 A 
ATOM      3  C   UNL     1      46.837   6.485  12.151  0.00  0.00    +0.000 A 
ATOM      4  C   UNL     1      45.856   5.951  11.309  0.00  0.00    +0.000 A 
ATOM      5  C   UNL     1      45.173   4.773  11.654  0.00  0.00    +0.000 A 
ATOM      6  C   UNL     1      45.491   4.141  12.861  0.00  0.00    +0.000 A 
ATOM      7  C   UNL     1      46.461   4.678  13.705  0.00  0.00    +0.000 A 
BRANCH   5   8
ATOM      8  C   UNL     1      44.095   4.207  10.759  0.00  0.00    +0.000 C 
BRANCH   8   9
ATOM      9  N   UNL     1      44.603   3.096   9.960  0.00  0.00    +0.000 NA
ATOM     10  H   UNL     1      43.965   2.305  10.053  0.00  0.00    +0.000 HD
BRANCH   9  11
ATOM     11  C   UNL     1      44.711   3.458   8.550  0.00  0.00    +0.000 C 
BRANCH  11  12
ATOM     12  C   UNL     1      45.830   2.694   7.884  0.00  0.00    +0.000 A 
ATOM     13  C   UNL     1      46.672   3.320   6.960  0.00  0.00    +0.000 A 
ATOM     14  C   UNL     1      47.680   2.575   6.367  0.00  0.00    +0.000 A 
ATOM     15  N   UNL     1      47.906   1.271   6.626  0.00  0.00    +0.000 NA
ATOM     16  C   UNL     1      47.087   0.684   7.524  0.00  0.00    +0.000 A 
ATOM     17  C   UNL     1      46.054   1.344   8.174  0.00  0.00    +0.000 A 
ENDBRANCH  11  12
ENDBRANCH   9  11
ENDBRANCH   8   9
ENDBRANCH   5   8
ENDBRANCH   1   2
BRANCH   1  18
ATOM     18  N   UNL     1      49.377   6.909  13.566  0.00  0.00    +0.000 NA
ATOM     19  H   UNL     1      50.172   6.301  13.765  0.00  0.00    +0.000 HD
BRANCH  18  21
ATOM     20  C   UNL     1      49.037   8.652  15.326  0.00  0.00    +0.000 C 
ATOM     21  C   UNL     1      49.724   8.269  14.006  0.00  0.00    +0.000 C 
BRANCH  21  22
ATOM     22  C   UNL     1      49.337   9.260  12.924  0.00  0.00    +0.000 A 
ATOM     23  C   UNL     1      48.154   9.985  12.856  0.00  0.00    +0.000 A 
ATOM     24  S   UNL     1      48.126  11.116  11.573  0.00  0.00    +0.000 S 
ATOM     25  C   UNL     1      49.703  10.695  11.084  0.00  0.00    +0.000 A 
ATOM     26  N   UNL     1      50.339  11.351  10.077  0.00  0.00    +0.000 NA
ATOM     27  C   UNL     1      51.549  10.944   9.861  0.00  0.00    +0.000 A 
ATOM     28  N   UNL     1      52.166   9.921  10.532  0.00  0.00    +0.000 N 
ATOM     29  C   UNL     1      51.538   9.182  11.507  0.00  0.00    +0.000 A 
ATOM     30  O   UNL     1      52.077   8.206  12.016  0.00  0.00    +0.000 OA
ATOM     31  C   UNL     1      50.212   9.658  11.846  0.00  0.00    +0.000 A 
ATOM     32  H   UNL     1      53.101   9.630  10.289  0.00  0.00    +0.000 HD
ENDBRANCH  21  22
ENDBRANCH  18  21
ENDBRANCH   1  18
TORSDOF 8
ENDMDL
