MODEL 1
REMARK VINA RESULT:    -7.299      0.000      0.000
REMARK INTER + INTRA:         -14.171
REMARK INTER:                 -11.139
REMARK INTRA:                  -3.032
REMARK UNBOUND:                -3.032
REMARK  Name = 
REMARK  12 active torsions:
REMARK  status: ('A' for Active; 'I' for Inactive)
REMARK    1  A    between atoms: C_1  and  C_2
REMARK    2  A    between atoms: C_2  and  C_3
REMARK    3  A    between atoms: C_2  and  N_23
REMARK    4  A    between atoms: C_6  and  C_7
REMARK    5  A    between atoms: C_7  and  N_8
REMARK    6  A    between atoms: C_9  and  C_11
REMARK    7  A    between atoms: N_23  and  C_24
REMARK    8  A    between atoms: N_23  and  C_31
REMARK    9  A    between atoms: C_24  and  C_25
REMARK   10  A    between atoms: C_31  and  C_32
REMARK   11  A    between atoms: C_31  and  C_33
REMARK   12  A    between atoms: C_31  and  C_34
REMARK                            x       y       z     vdW  Elec       q    Type
REMARK                         _______ _______ _______ _____ _____    ______ ____
ROOT
ATOM      1  C   UNL     1      49.438   7.864  16.603  0.00  0.00    +0.000 A 
ATOM      2  C   UNL     1      49.470   6.796  15.691  0.00  0.00    +0.000 A 
ATOM      3  C   UNL     1      48.824   6.892  14.460  0.00  0.00    +0.000 A 
ATOM      4  C   UNL     1      48.129   8.056  14.116  0.00  0.00    +0.000 A 
ATOM      5  C   UNL     1      48.102   9.128  15.019  0.00  0.00    +0.000 A 
ATOM      6  C   UNL     1      48.773   9.045  16.240  0.00  0.00    +0.000 A 
ENDROOT
BRANCH   1   8
ATOM      7  C   UNL     1      51.462   7.010  17.539  0.00  0.00    +0.000 C 
ATOM      8  C   UNL     1      50.169   7.767  17.944  0.00  0.00    +0.000 C 
BRANCH   8   9
ATOM      9  N   UNL     1      49.323   7.199  19.059  0.00  0.00    +0.000 NA
BRANCH   9  10
ATOM     10  C   UNL     1      49.437   7.938  20.407  0.00  0.00    +0.000 C 
ATOM     11  C   UNL     1      49.722   6.950  21.582  0.00  0.00    +0.000 C 
ATOM     12  C   UNL     1      50.562   9.012  20.538  0.00  0.00    +0.000 C 
BRANCH  10  13
ATOM     13  C   UNL     1      48.151   8.796  20.654  0.00  0.00    +0.000 A 
ATOM     14  C   UNL     1      47.450   8.784  21.873  0.00  0.00    +0.000 A 
ATOM     15  C   UNL     1      46.331   9.597  22.070  0.00  0.00    +0.000 A 
ATOM     16  C   UNL     1      45.891  10.443  21.056  0.00  0.00    +0.000 A 
ATOM     17  C   UNL     1      46.557  10.462  19.834  0.00  0.00    +0.000 A 
ATOM     18  C   UNL     1      47.667   9.639  19.631  0.00  0.00    +0.000 A 
ENDBRANCH  10  13
ENDBRANCH   9  10
BRANCH   9  19
ATOM     19  C   UNL     1      49.617   5.747  19.317  0.00  0.00    +0.000 C 
BRANCH  19  20
ATOM     20  C   UNL     1      48.971   4.703  18.435  0.00  0.00    +0.000 A 
ATOM     21  C   UNL     1      49.745   3.625  17.967  0.00  0.00    +0.000 A 
ATOM     22  C   UNL     1      49.213   2.709  17.061  0.00  0.00    +0.000 A 
ATOM     23  C   UNL     1      47.886   2.828  16.659  0.00  0.00    +0.000 A 
ATOM     24  C   UNL     1      47.084   3.844  17.184  0.00  0.00    +0.000 A 
ATOM     25  C   UNL     1      47.621   4.776  18.073  0.00  0.00    +0.000 A 
ENDBRANCH  19  20
ENDBRANCH   9  19
ENDBRANCH   8   9
ENDBRANCH   1   8
BRANCH   4  26
ATOM     26  C   UNL     1      47.337   8.121  12.837  0.00  0.00    +0.000 C 
BRANCH  26  27
ATOM     27  N   UNL     1      46.659   6.869  12.620  0.00  0.00    +0.000 N 
ATOM     28  C   UNL     1      45.487   6.785  11.918  0.00  0.00    +0.000 C 
ATOM     29  O   UNL     1      44.964   7.764  11.401  0.00  0.00    +0.000 OA
ATOM     30  H   UNL     1      46.943   6.095  13.212  0.00  0.00    +0.000 HD
BRANCH  28  31
ATOM     31  C   UNL     1      44.925   5.438  11.763  0.00  0.00    +0.000 A 
ATOM     32  C   UNL     1      44.255   4.841  12.823  0.00  0.00    +0.000 A 
ATOM     33  S   UNL     1      43.599   3.313  12.443  0.00  0.00    +0.000 S 
ATOM     34  C   UNL     1      44.236   3.369  10.867  0.00  0.00    +0.000 A 
ATOM     35  N   UNL     1      44.042   2.338   9.999  0.00  0.00    +0.000 NA
ATOM     36  C   UNL     1      44.598   2.503   8.844  0.00  0.00    +0.000 A 
ATOM     37  N   UNL     1      45.326   3.606   8.478  0.00  0.00    +0.000 N 
ATOM     38  C   UNL     1      45.527   4.675   9.314  0.00  0.00    +0.000 A 
ATOM     39  O   UNL     1      46.164   5.659   8.940  0.00  0.00    +0.000 OA
ATOM     40  C   UNL     1      44.926   4.542  10.626  0.00  0.00    +0.000 A 
ATOM     41  H   UNL     1      45.731   3.671   7.558  0.00  0.00    +0.000 HD
ENDBRANCH  28  31
ENDBRANCH  26  27
ENDBRANCH   4  26
TORSDOF 9
ENDMDL
MODEL 2
REMARK VINA RESULT:    -7.231      1.877      2.352
REMARK INTER + INTRA:         -14.068
REMARK INTER:                 -10.855
REMARK INTRA:                  -3.213
REMARK UNBOUND:                -3.032
REMARK  Name = 
REMARK  12 active torsions:
REMARK  status: ('A' for Active; 'I' for Inactive)
REMARK    1  A    between atoms: C_1  and  C_2
REMARK    2  A    between atoms: C_2  and  C_3
REMARK    3  A    between atoms: C_2  and  N_23
REMARK    4  A    between atoms: C_6  and  C_7
REMARK    5  A    between atoms: C_7  and  N_8
REMARK    6  A    between atoms: C_9  and  C_11
REMARK    7  A    between atoms: N_23  and  C_24
REMARK    8  A    between atoms: N_23  and  C_31
REMARK    9  A    between atoms: C_24  and  C_25
REMARK   10  A    between atoms: C_31  and  C_32
REMARK   11  A    between atoms: C_31  and  C_33
REMARK   12  A    between atoms: C_31  and  C_34
REMARK                            x       y       z     vdW  Elec       q    Type
REMARK                         _______ _______ _______ _____ _____    ______ ____
ROOT
ATOM      1  C   UNL     1      50.658   7.714  15.081  0.00  0.00    +0.000 A 
ATOM      2  C   UNL     1      49.430   7.037  15.180  0.00  0.00    +0.000 A 
ATOM      3  C   UNL     1      48.515   7.066  14.129  0.00  0.00    +0.000 A 
ATOM      4  C   UNL     1      48.807   7.774  12.959  0.00  0.00    +0.000 A 
ATOM      5  C   UNL     1      50.034   8.442  12.851  0.00  0.00    +0.000 A 
ATOM      6  C   UNL     1      50.964   8.391  13.891  0.00  0.00    +0.000 A 
ENDROOT
BRANCH   1   8
ATOM      7  C   UNL     1      52.971   7.268  15.472  0.00  0.00    +0.000 C 
ATOM      8  C   UNL     1      51.672   7.661  16.226  0.00  0.00    +0.000 C 
BRANCH   8   9
ATOM      9  N   UNL     1      51.231   6.806  17.391  0.00  0.00    +0.000 NA
BRANCH   9  10
ATOM     10  C   UNL     1      50.985   7.572  18.707  0.00  0.00    +0.000 C 
ATOM     11  C   UNL     1      52.238   7.534  19.637  0.00  0.00    +0.000 C 
ATOM     12  C   UNL     1      50.646   9.091  18.593  0.00  0.00    +0.000 C 
BRANCH  10  13
ATOM     13  C   UNL     1      49.705   7.015  19.414  0.00  0.00    +0.000 A 
ATOM     14  C   UNL     1      49.632   6.807  20.803  0.00  0.00    +0.000 A 
ATOM     15  C   UNL     1      48.457   6.349  21.404  0.00  0.00    +0.000 A 
ATOM     16  C   UNL     1      47.328   6.093  20.632  0.00  0.00    +0.000 A 
ATOM     17  C   UNL     1      47.378   6.275  19.253  0.00  0.00    +0.000 A 
ATOM     18  C   UNL     1      48.557   6.719  18.649  0.00  0.00    +0.000 A 
ENDBRANCH  10  13
ENDBRANCH   9  10
BRANCH   9  19
ATOM     19  C   UNL     1      52.206   5.701  17.691  0.00  0.00    +0.000 C 
BRANCH  19  20
ATOM     20  C   UNL     1      51.722   4.269  17.647  0.00  0.00    +0.000 A 
ATOM     21  C   UNL     1      52.642   3.227  17.868  0.00  0.00    +0.000 A 
ATOM     22  C   UNL     1      52.255   1.896  17.720  0.00  0.00    +0.000 A 
ATOM     23  C   UNL     1      50.934   1.592  17.408  0.00  0.00    +0.000 A 
ATOM     24  C   UNL     1      49.993   2.616  17.271  0.00  0.00    +0.000 A 
ATOM     25  C   UNL     1      50.383   3.950  17.395  0.00  0.00    +0.000 A 
ENDBRANCH  19  20
ENDBRANCH   9  19
ENDBRANCH   8   9
ENDBRANCH   1   8
BRANCH   4  26
ATOM     26  C   UNL     1      47.776   7.900  11.868  0.00  0.00    +0.000 C 
BRANCH  26  27
ATOM     27  N   UNL     1      47.020   6.678  11.769  0.00  0.00    +0.000 N 
ATOM     28  C   UNL     1      45.651   6.665  11.772  0.00  0.00    +0.000 C 
ATOM     29  O   UNL     1      44.988   7.693  11.823  0.00  0.00    +0.000 OA
ATOM     30  H   UNL     1      47.528   5.819  11.948  0.00  0.00    +0.000 HD
BRANCH  28  31
ATOM     31  C   UNL     1      45.021   5.345  11.644  0.00  0.00    +0.000 A 
ATOM     32  C   UNL     1      44.346   4.793  12.726  0.00  0.00    +0.000 A 
ATOM     33  S   UNL     1      43.608   3.295  12.377  0.00  0.00    +0.000 S 
ATOM     34  C   UNL     1      44.212   3.304  10.786  0.00  0.00    +0.000 A 
ATOM     35  N   UNL     1      43.949   2.274   9.935  0.00  0.00    +0.000 NA
ATOM     36  C   UNL     1      44.487   2.401   8.766  0.00  0.00    +0.000 A 
ATOM     37  N   UNL     1      45.260   3.463   8.373  0.00  0.00    +0.000 N 
ATOM     38  C   UNL     1      45.531   4.529   9.192  0.00  0.00    +0.000 A 
ATOM     39  O   UNL     1      46.206   5.477   8.793  0.00  0.00    +0.000 OA
ATOM     40  C   UNL     1      44.953   4.439  10.517  0.00  0.00    +0.000 A 
ATOM     41  H   UNL     1      45.647   3.499   7.443  0.00  0.00    +0.000 HD
ENDBRANCH  28  31
ENDBRANCH  26  27
ENDBRANCH   4  26
TORSDOF 9
ENDMDL
MODEL 3
REMARK VINA RESULT:    -7.175      1.655      4.003
REMARK INTER + INTRA:         -13.982
REMARK INTER:                 -10.474
REMARK INTRA:                  -3.508
REMARK UNBOUND:                -3.032
REMARK  Name = 
REMARK  12 active torsions:
REMARK  status: ('A' for Active; 'I' for Inactive)
REMARK    1  A    between atoms: C_1  and  C_2
REMARK    2  A    between atoms: C_2  and  C_3
REMARK    3  A    between atoms: C_2  and  N_23
REMARK    4  A    between atoms: C_6  and  C_7
REMARK    5  A    between atoms: C_7  and  N_8
REMARK    6  A    between atoms: C_9  and  C_11
REMARK    7  A    between atoms: N_23  and  C_24
REMARK    8  A    between atoms: N_23  and  C_31
REMARK    9  A    between atoms: C_24  and  C_25
REMARK   10  A    between atoms: C_31  and  C_32
REMARK   11  A    between atoms: C_31  and  C_33
REMARK   12  A    between atoms: C_31  and  C_34
REMARK                            x       y       z     vdW  Elec       q    Type
REMARK                         _______ _______ _______ _____ _____    ______ ____
ROOT
ATOM      1  C   UNL     1      48.920   8.237  15.989  0.00  0.00    +0.000 A 
ATOM      2  C   UNL     1      49.203   7.062  15.273  0.00  0.00    +0.000 A 
ATOM      3  C   UNL     1      48.872   6.955  13.923  0.00  0.00    +0.000 A 
ATOM      4  C   UNL     1      48.246   8.018  13.263  0.00  0.00    +0.000 A 
ATOM      5  C   UNL     1      47.971   9.196  13.971  0.00  0.00    +0.000 A 
ATOM      6  C   UNL     1      48.328   9.316  15.315  0.00  0.00    +0.000 A 
ENDROOT
BRANCH   1   8
ATOM      7  C   UNL     1      50.102   9.697  17.464  0.00  0.00    +0.000 C 
ATOM      8  C   UNL     1      49.307   8.364  17.464  0.00  0.00    +0.000 C 
BRANCH   8   9
ATOM      9  N   UNL     1      49.974   7.131  18.026  0.00  0.00    +0.000 NA
BRANCH   9  10
ATOM     10  C   UNL     1      49.068   6.239  18.899  0.00  0.00    +0.000 C 
ATOM     11  C   UNL     1      49.643   6.070  20.340  0.00  0.00    +0.000 C 
ATOM     12  C   UNL     1      47.604   6.725  19.134  0.00  0.00    +0.000 C 
BRANCH  10  13
ATOM     13  C   UNL     1      48.835   4.862  18.191  0.00  0.00    +0.000 A 
ATOM     14  C   UNL     1      47.574   4.452  17.723  0.00  0.00    +0.000 A 
ATOM     15  C   UNL     1      47.413   3.234  17.057  0.00  0.00    +0.000 A 
ATOM     16  C   UNL     1      48.508   2.403  16.839  0.00  0.00    +0.000 A 
ATOM     17  C   UNL     1      49.764   2.778  17.307  0.00  0.00    +0.000 A 
ATOM     18  C   UNL     1      49.924   3.989  17.986  0.00  0.00    +0.000 A 
ENDBRANCH  10  13
ENDBRANCH   9  10
BRANCH   9  19
ATOM     19  C   UNL     1      51.195   7.460  18.839  0.00  0.00    +0.000 C 
BRANCH  19  20
ATOM     20  C   UNL     1      52.553   7.047  18.318  0.00  0.00    +0.000 A 
ATOM     21  C   UNL     1      52.642   6.402  17.070  0.00  0.00    +0.000 A 
ATOM     22  C   UNL     1      53.862   5.905  16.613  0.00  0.00    +0.000 A 
ATOM     23  C   UNL     1      55.013   6.098  17.372  0.00  0.00    +0.000 A 
ATOM     24  C   UNL     1      54.950   6.811  18.571  0.00  0.00    +0.000 A 
ATOM     25  C   UNL     1      53.726   7.290  19.042  0.00  0.00    +0.000 A 
ENDBRANCH  19  20
ENDBRANCH   9  19
ENDBRANCH   8   9
ENDBRANCH   1   8
BRANCH   4  26
ATOM     26  C   UNL     1      47.786   7.864  11.837  0.00  0.00    +0.000 C 
BRANCH  26  27
ATOM     27  N   UNL     1      47.043   6.638  11.695  0.00  0.00    +0.000 N 
ATOM     28  C   UNL     1      45.678   6.596  11.794  0.00  0.00    +0.000 C 
ATOM     29  O   UNL     1      45.005   7.604  11.971  0.00  0.00    +0.000 OA
ATOM     30  H   UNL     1      47.575   5.778  11.770  0.00  0.00    +0.000 HD
BRANCH  28  31
ATOM     31  C   UNL     1      45.060   5.278  11.607  0.00  0.00    +0.000 A 
ATOM     32  C   UNL     1      44.392   4.671  12.663  0.00  0.00    +0.000 A 
ATOM     33  S   UNL     1      43.667   3.184  12.247  0.00  0.00    +0.000 S 
ATOM     34  C   UNL     1      44.268   3.270  10.658  0.00  0.00    +0.000 A 
ATOM     35  N   UNL     1      44.014   2.278   9.761  0.00  0.00    +0.000 NA
ATOM     36  C   UNL     1      44.549   2.462   8.598  0.00  0.00    +0.000 A 
ATOM     37  N   UNL     1      45.312   3.548   8.253  0.00  0.00    +0.000 N 
ATOM     38  C   UNL     1      45.574   4.579   9.119  0.00  0.00    +0.000 A 
ATOM     39  O   UNL     1      46.240   5.550   8.763  0.00  0.00    +0.000 OA
ATOM     40  C   UNL     1      44.999   4.423  10.440  0.00  0.00    +0.000 A 
ATOM     41  H   UNL     1      45.697   3.630   7.325  0.00  0.00    +0.000 HD
ENDBRANCH  28  31
ENDBRANCH  26  27
ENDBRANCH   4  26
TORSDOF 9
ENDMDL
MODEL 4
REMARK VINA RESULT:    -6.969      4.146      9.653
REMARK INTER + INTRA:         -13.668
REMARK INTER:                 -12.245
REMARK INTRA:                  -1.423
REMARK UNBOUND:                -3.032
REMARK  Name = 
REMARK  12 active torsions:
REMARK  status: ('A' for Active; 'I' for Inactive)
REMARK    1  A    between atoms: C_1  and  C_2
REMARK    2  A    between atoms: C_2  and  C_3
REMARK    3  A    between atoms: C_2  and  N_23
REMARK    4  A    between atoms: C_6  and  C_7
REMARK    5  A    between atoms: C_7  and  N_8
REMARK    6  A    between atoms: C_9  and  C_11
REMARK    7  A    between atoms: N_23  and  C_24
REMARK    8  A    between atoms: N_23  and  C_31
REMARK    9  A    between atoms: C_24  and  C_25
REMARK   10  A    between atoms: C_31  and  C_32
REMARK   11  A    between atoms: C_31  and  C_33
REMARK   12  A    between atoms: C_31  and  C_34
REMARK                            x       y       z     vdW  Elec       q    Type
REMARK                         _______ _______ _______ _____ _____    ______ ____
ROOT
ATOM      1  C   UNL     1      46.970   5.017  14.816  0.00  0.00    +0.000 A 
ATOM      2  C   UNL     1      47.828   6.112  14.611  0.00  0.00    +0.000 A 
ATOM      3  C   UNL     1      48.731   6.503  15.598  0.00  0.00    +0.000 A 
ATOM      4  C   UNL     1      48.793   5.810  16.812  0.00  0.00    +0.000 A 
ATOM      5  C   UNL     1      47.947   4.712  17.018  0.00  0.00    +0.000 A 
ATOM      6  C   UNL     1      47.062   4.301  16.019  0.00  0.00    +0.000 A 
ENDROOT
BRANCH   1   8
ATOM      7  C   UNL     1      46.759   3.375  13.096  0.00  0.00    +0.000 C 
ATOM      8  C   UNL     1      45.997   4.573  13.722  0.00  0.00    +0.000 C 
BRANCH   8   9
ATOM      9  N   UNL     1      45.550   5.694  12.814  0.00  0.00    +0.000 NA
BRANCH   9  10
ATOM     10  C   UNL     1      44.244   5.426  12.039  0.00  0.00    +0.000 C 
ATOM     11  C   UNL     1      43.135   4.840  12.967  0.00  0.00    +0.000 C 
ATOM     12  C   UNL     1      43.556   6.651  11.359  0.00  0.00    +0.000 C 
BRANCH  10  13
ATOM     13  C   UNL     1      44.535   4.504  10.808  0.00  0.00    +0.000 A 
ATOM     14  C   UNL     1      44.157   3.151  10.764  0.00  0.00    +0.000 A 
ATOM     15  C   UNL     1      44.397   2.371   9.630  0.00  0.00    +0.000 A 
ATOM     16  C   UNL     1      45.014   2.927   8.514  0.00  0.00    +0.000 A 
ATOM     17  C   UNL     1      45.414   4.260   8.537  0.00  0.00    +0.000 A 
ATOM     18  C   UNL     1      45.188   5.037   9.675  0.00  0.00    +0.000 A 
ENDBRANCH  10  13
ENDBRANCH   9  10
BRANCH   9  19
ATOM     19  C   UNL     1      46.601   6.067  11.805  0.00  0.00    +0.000 C 
BRANCH  19  20
ATOM     20  C   UNL     1      47.189   7.460  11.843  0.00  0.00    +0.000 A 
ATOM     21  C   UNL     1      48.539   7.645  11.489  0.00  0.00    +0.000 A 
ATOM     22  C   UNL     1      49.142   8.894  11.624  0.00  0.00    +0.000 A 
ATOM     23  C   UNL     1      48.389   9.981  12.058  0.00  0.00    +0.000 A 
ATOM     24  C   UNL     1      47.028   9.827  12.329  0.00  0.00    +0.000 A 
ATOM     25  C   UNL     1      46.427   8.572  12.218  0.00  0.00    +0.000 A 
ENDBRANCH  19  20
ENDBRANCH   9  19
ENDBRANCH   8   9
ENDBRANCH   1   8
BRANCH   4  26
ATOM     26  C   UNL     1      49.686   6.298  17.922  0.00  0.00    +0.000 C 
BRANCH  26  27
ATOM     27  N   UNL     1      50.676   5.297  18.226  0.00  0.00    +0.000 N 
ATOM     28  C   UNL     1      51.870   5.226  17.559  0.00  0.00    +0.000 C 
ATOM     29  O   UNL     1      52.182   6.030  16.690  0.00  0.00    +0.000 OA
ATOM     30  H   UNL     1      50.360   4.502  18.770  0.00  0.00    +0.000 HD
BRANCH  28  31
ATOM     31  C   UNL     1      52.786   4.164  17.993  0.00  0.00    +0.000 A 
ATOM     32  C   UNL     1      54.010   4.496  18.560  0.00  0.00    +0.000 A 
ATOM     33  S   UNL     1      54.910   3.143  19.080  0.00  0.00    +0.000 S 
ATOM     34  C   UNL     1      53.723   2.064  18.514  0.00  0.00    +0.000 A 
ATOM     35  N   UNL     1      53.885   0.718  18.640  0.00  0.00    +0.000 NA
ATOM     36  C   UNL     1      52.917   0.017  18.149  0.00  0.00    +0.000 A 
ATOM     37  N   UNL     1      51.802   0.540  17.545  0.00  0.00    +0.000 N 
ATOM     38  C   UNL     1      51.589   1.889  17.416  0.00  0.00    +0.000 A 
ATOM     39  O   UNL     1      50.563   2.320  16.893  0.00  0.00    +0.000 OA
ATOM     40  C   UNL     1      52.647   2.723  17.950  0.00  0.00    +0.000 A 
ATOM     41  H   UNL     1      51.082  -0.066  17.185  0.00  0.00    +0.000 HD
ENDBRANCH  28  31
ENDBRANCH  26  27
ENDBRANCH   4  26
TORSDOF 9
ENDMDL
MODEL 5
REMARK VINA RESULT:    -6.939      2.265      4.312
REMARK INTER + INTRA:         -13.622
REMARK INTER:                 -10.306
REMARK INTRA:                  -3.316
REMARK UNBOUND:                -3.032
REMARK  Name = 
REMARK  12 active torsions:
REMARK  status: ('A' for Active; 'I' for Inactive)
REMARK    1  A    between atoms: C_1  and  C_2
REMARK    2  A    between atoms: C_2  and  C_3
REMARK    3  A    between atoms: C_2  and  N_23
REMARK    4  A    between atoms: C_6  and  C_7
REMARK    5  A    between atoms: C_7  and  N_8
REMARK    6  A    between atoms: C_9  and  C_11
REMARK    7  A    between atoms: N_23  and  C_24
REMARK    8  A    between atoms: N_23  and  C_31
REMARK    9  A    between atoms: C_24  and  C_25
REMARK   10  A    between atoms: C_31  and  C_32
REMARK   11  A    between atoms: C_31  and  C_33
REMARK   12  A    between atoms: C_31  and  C_34
REMARK                            x       y       z     vdW  Elec       q    Type
REMARK                         _______ _______ _______ _____ _____    ______ ____
ROOT
ATOM      1  C   UNL     1      49.412   7.928  17.941  0.00  0.00    +0.000 A 
ATOM      2  C   UNL     1      48.525   8.987  17.685  0.00  0.00    +0.000 A 
ATOM      3  C   UNL     1      48.104   9.264  16.385  0.00  0.00    +0.000 A 
ATOM      4  C   UNL     1      48.564   8.491  15.314  0.00  0.00    +0.000 A 
ATOM      5  C   UNL     1      49.441   7.427  15.566  0.00  0.00    +0.000 A 
ATOM      6  C   UNL     1      49.841   7.129  16.870  0.00  0.00    +0.000 A 
ENDROOT
BRANCH   1   8
ATOM      7  C   UNL     1      51.122   8.493  19.510  0.00  0.00    +0.000 C 
ATOM      8  C   UNL     1      49.853   7.609  19.371  0.00  0.00    +0.000 C 
BRANCH   8   9
ATOM      9  N   UNL     1      49.974   6.131  19.656  0.00  0.00    +0.000 NA
BRANCH   9  10
ATOM     10  C   UNL     1      48.634   5.391  19.848  0.00  0.00    +0.000 C 
ATOM     11  C   UNL     1      48.610   4.584  21.183  0.00  0.00    +0.000 C 
ATOM     12  C   UNL     1      47.342   6.265  19.914  0.00  0.00    +0.000 C 
BRANCH  10  13
ATOM     13  C   UNL     1      48.342   4.487  18.604  0.00  0.00    +0.000 A 
ATOM     14  C   UNL     1      47.217   4.668  17.780  0.00  0.00    +0.000 A 
ATOM     15  C   UNL     1      47.012   3.867  16.653  0.00  0.00    +0.000 A 
ATOM     16  C   UNL     1      47.929   2.874  16.322  0.00  0.00    +0.000 A 
ATOM     17  C   UNL     1      49.042   2.664  17.130  0.00  0.00    +0.000 A 
ATOM     18  C   UNL     1      49.241   3.453  18.265  0.00  0.00    +0.000 A 
ENDBRANCH  10  13
ENDBRANCH   9  10
BRANCH   9  19
ATOM     19  C   UNL     1      50.819   5.847  20.866  0.00  0.00    +0.000 C 
BRANCH  19  20
ATOM     20  C   UNL     1      52.008   4.923  20.726  0.00  0.00    +0.000 A 
ATOM     21  C   UNL     1      52.358   4.442  19.451  0.00  0.00    +0.000 A 
ATOM     22  C   UNL     1      53.374   3.499  19.302  0.00  0.00    +0.000 A 
ATOM     23  C   UNL     1      54.089   3.073  20.417  0.00  0.00    +0.000 A 
ATOM     24  C   UNL     1      53.807   3.608  21.676  0.00  0.00    +0.000 A 
ATOM     25  C   UNL     1      52.774   4.535  21.831  0.00  0.00    +0.000 A 
ENDBRANCH  19  20
ENDBRANCH   9  19
ENDBRANCH   8   9
ENDBRANCH   1   8
BRANCH   4  26
ATOM     26  C   UNL     1      48.202   8.856  13.899  0.00  0.00    +0.000 C 
BRANCH  26  27
ATOM     27  N   UNL     1      47.012   8.148  13.503  0.00  0.00    +0.000 N 
ATOM     28  C   UNL     1      46.997   7.282  12.442  0.00  0.00    +0.000 C 
ATOM     29  O   UNL     1      48.003   7.031  11.790  0.00  0.00    +0.000 OA
ATOM     30  H   UNL     1      46.135   8.497  13.874  0.00  0.00    +0.000 HD
BRANCH  28  31
ATOM     31  C   UNL     1      45.716   6.619  12.171  0.00  0.00    +0.000 A 
ATOM     32  C   UNL     1      44.646   7.356  11.682  0.00  0.00    +0.000 A 
ATOM     33  S   UNL     1      43.263   6.413  11.348  0.00  0.00    +0.000 S 
ATOM     34  C   UNL     1      44.027   4.997  11.900  0.00  0.00    +0.000 A 
ATOM     35  N   UNL     1      43.371   3.804  11.896  0.00  0.00    +0.000 NA
ATOM     36  C   UNL     1      44.062   2.815  12.362  0.00  0.00    +0.000 A 
ATOM     37  N   UNL     1      45.348   2.912  12.827  0.00  0.00    +0.000 N 
ATOM     38  C   UNL     1      46.052   4.090  12.830  0.00  0.00    +0.000 A 
ATOM     39  O   UNL     1      47.214   4.131  13.230  0.00  0.00    +0.000 OA
ATOM     40  C   UNL     1      45.323   5.233  12.319  0.00  0.00    +0.000 A 
ATOM     41  H   UNL     1      45.830   2.098  13.175  0.00  0.00    +0.000 HD
ENDBRANCH  28  31
ENDBRANCH  26  27
ENDBRANCH   4  26
TORSDOF 9
ENDMDL
MODEL 6
REMARK VINA RESULT:    -6.730      4.885      8.511
REMARK INTER + INTRA:         -13.304
REMARK INTER:                 -10.094
REMARK INTRA:                  -3.210
REMARK UNBOUND:                -3.032
REMARK  Name = 
REMARK  12 active torsions:
REMARK  status: ('A' for Active; 'I' for Inactive)
REMARK    1  A    between atoms: C_1  and  C_2
REMARK    2  A    between atoms: C_2  and  C_3
REMARK    3  A    between atoms: C_2  and  N_23
REMARK    4  A    between atoms: C_6  and  C_7
REMARK    5  A    between atoms: C_7  and  N_8
REMARK    6  A    between atoms: C_9  and  C_11
REMARK    7  A    between atoms: N_23  and  C_24
REMARK    8  A    between atoms: N_23  and  C_31
REMARK    9  A    between atoms: C_24  and  C_25
REMARK   10  A    between atoms: C_31  and  C_32
REMARK   11  A    between atoms: C_31  and  C_33
REMARK   12  A    between atoms: C_31  and  C_34
REMARK                            x       y       z     vdW  Elec       q    Type
REMARK                         _______ _______ _______ _____ _____    ______ ____
ROOT
ATOM      1  C   UNL     1      50.655   8.405  12.516  0.00  0.00    +0.000 A 
ATOM      2  C   UNL     1      49.861   7.701  11.595  0.00  0.00    +0.000 A 
ATOM      3  C   UNL     1      48.473   7.677  11.723  0.00  0.00    +0.000 A 
ATOM      4  C   UNL     1      47.851   8.354  12.777  0.00  0.00    +0.000 A 
ATOM      5  C   UNL     1      48.637   9.066  13.693  0.00  0.00    +0.000 A 
ATOM      6  C   UNL     1      50.025   9.115  13.549  0.00  0.00    +0.000 A 
ENDROOT
BRANCH   1   8
ATOM      7  C   UNL     1      52.578   9.413  13.509  0.00  0.00    +0.000 C 
ATOM      8  C   UNL     1      52.176   8.451  12.359  0.00  0.00    +0.000 C 
BRANCH   8   9
ATOM      9  N   UNL     1      52.634   8.776  10.957  0.00  0.00    +0.000 NA
BRANCH   9  10
ATOM     10  C   UNL     1      53.952   8.102  10.526  0.00  0.00    +0.000 C 
ATOM     11  C   UNL     1      55.060   9.154  10.209  0.00  0.00    +0.000 C 
ATOM     12  C   UNL     1      54.629   7.142  11.555  0.00  0.00    +0.000 C 
BRANCH  10  13
ATOM     13  C   UNL     1      53.688   7.138   9.321  0.00  0.00    +0.000 A 
ATOM     14  C   UNL     1      54.445   5.975   9.097  0.00  0.00    +0.000 A 
ATOM     15  C   UNL     1      54.152   5.116   8.034  0.00  0.00    +0.000 A 
ATOM     16  C   UNL     1      53.093   5.398   7.177  0.00  0.00    +0.000 A 
ATOM     17  C   UNL     1      52.337   6.551   7.367  0.00  0.00    +0.000 A 
ATOM     18  C   UNL     1      52.639   7.418   8.420  0.00  0.00    +0.000 A 
ENDBRANCH  10  13
ENDBRANCH   9  10
BRANCH   9  19
ATOM     19  C   UNL     1      52.795  10.255  10.736  0.00  0.00    +0.000 C 
BRANCH  19  20
ATOM     20  C   UNL     1      51.749  10.991   9.929  0.00  0.00    +0.000 A 
ATOM     21  C   UNL     1      50.518  11.312  10.531  0.00  0.00    +0.000 A 
ATOM     22  C   UNL     1      49.490  11.886   9.783  0.00  0.00    +0.000 A 
ATOM     23  C   UNL     1      49.703  12.197   8.443  0.00  0.00    +0.000 A 
ATOM     24  C   UNL     1      50.950  11.961   7.859  0.00  0.00    +0.000 A 
ATOM     25  C   UNL     1      51.972  11.365   8.599  0.00  0.00    +0.000 A 
ENDBRANCH  19  20
ENDBRANCH   9  19
ENDBRANCH   8   9
ENDBRANCH   1   8
BRANCH   4  26
ATOM     26  C   UNL     1      46.363   8.238  12.984  0.00  0.00    +0.000 C 
BRANCH  26  27
ATOM     27  N   UNL     1      45.929   6.903  12.661  0.00  0.00    +0.000 N 
ATOM     28  C   UNL     1      44.888   6.662  11.804  0.00  0.00    +0.000 C 
ATOM     29  O   UNL     1      44.288   7.564  11.235  0.00  0.00    +0.000 OA
ATOM     30  H   UNL     1      46.253   6.163  13.275  0.00  0.00    +0.000 HD
BRANCH  28  31
ATOM     31  C   UNL     1      44.575   5.249  11.557  0.00  0.00    +0.000 A 
ATOM     32  C   UNL     1      43.880   4.518  12.511  0.00  0.00    +0.000 A 
ATOM     33  S   UNL     1      43.531   2.920  12.025  0.00  0.00    +0.000 S 
ATOM     34  C   UNL     1      44.346   3.131  10.547  0.00  0.00    +0.000 A 
ATOM     35  N   UNL     1      44.433   2.114   9.646  0.00  0.00    +0.000 NA
ATOM     36  C   UNL     1      45.097   2.406   8.576  0.00  0.00    +0.000 A 
ATOM     37  N   UNL     1      45.679   3.622   8.326  0.00  0.00    +0.000 N 
ATOM     38  C   UNL     1      45.598   4.679   9.197  0.00  0.00    +0.000 A 
ATOM     39  O   UNL     1      46.111   5.764   8.925  0.00  0.00    +0.000 OA
ATOM     40  C   UNL     1      44.864   4.406  10.416  0.00  0.00    +0.000 A 
ATOM     41  H   UNL     1      46.182   3.783   7.468  0.00  0.00    +0.000 HD
ENDBRANCH  28  31
ENDBRANCH  26  27
ENDBRANCH   4  26
TORSDOF 9
ENDMDL
MODEL 7
REMARK VINA RESULT:    -6.611      1.296      2.117
REMARK INTER + INTRA:         -13.122
REMARK INTER:                  -9.931
REMARK INTRA:                  -3.191
REMARK UNBOUND:                -3.032
REMARK  Name = 
REMARK  12 active torsions:
REMARK  status: ('A' for Active; 'I' for Inactive)
REMARK    1  A    between atoms: C_1  and  C_2
REMARK    2  A    between atoms: C_2  and  C_3
REMARK    3  A    between atoms: C_2  and  N_23
REMARK    4  A    between atoms: C_6  and  C_7
REMARK    5  A    between atoms: C_7  and  N_8
REMARK    6  A    between atoms: C_9  and  C_11
REMARK    7  A    between atoms: N_23  and  C_24
REMARK    8  A    between atoms: N_23  and  C_31
REMARK    9  A    between atoms: C_24  and  C_25
REMARK   10  A    between atoms: C_31  and  C_32
REMARK   11  A    between atoms: C_31  and  C_33
REMARK   12  A    between atoms: C_31  and  C_34
REMARK                            x       y       z     vdW  Elec       q    Type
REMARK                         _______ _______ _______ _____ _____    ______ ____
ROOT
ATOM      1  C   UNL     1      49.696   7.950  15.983  0.00  0.00    +0.000 A 
ATOM      2  C   UNL     1      49.206   9.231  15.676  0.00  0.00    +0.000 A 
ATOM      3  C   UNL     1      48.501   9.459  14.496  0.00  0.00    +0.000 A 
ATOM      4  C   UNL     1      48.272   8.413  13.597  0.00  0.00    +0.000 A 
ATOM      5  C   UNL     1      48.749   7.131  13.903  0.00  0.00    +0.000 A 
ATOM      6  C   UNL     1      49.431   6.894  15.098  0.00  0.00    +0.000 A 
ENDROOT
BRANCH   1   8
ATOM      7  C   UNL     1      51.578   6.741  16.818  0.00  0.00    +0.000 C 
ATOM      8  C   UNL     1      50.448   7.695  17.291  0.00  0.00    +0.000 C 
BRANCH   8   9
ATOM      9  N   UNL     1      49.559   7.247  18.427  0.00  0.00    +0.000 NA
BRANCH   9  10
ATOM     10  C   UNL     1      49.652   8.104  19.706  0.00  0.00    +0.000 C 
ATOM     11  C   UNL     1      49.463   7.241  20.992  0.00  0.00    +0.000 C 
ATOM     12  C   UNL     1      50.991   8.865  19.957  0.00  0.00    +0.000 C 
BRANCH  10  13
ATOM     13  C   UNL     1      48.627   9.285  19.630  0.00  0.00    +0.000 A 
ATOM     14  C   UNL     1      48.913  10.500  18.981  0.00  0.00    +0.000 A 
ATOM     15  C   UNL     1      47.957  11.515  18.897  0.00  0.00    +0.000 A 
ATOM     16  C   UNL     1      46.694  11.338  19.455  0.00  0.00    +0.000 A 
ATOM     17  C   UNL     1      46.391  10.152  20.117  0.00  0.00    +0.000 A 
ATOM     18  C   UNL     1      47.351   9.142  20.215  0.00  0.00    +0.000 A 
ENDBRANCH  10  13
ENDBRANCH   9  10
BRANCH   9  19
ATOM     19  C   UNL     1      49.814   5.820  18.825  0.00  0.00    +0.000 C 
BRANCH  19  20
ATOM     20  C   UNL     1      49.109   4.714  18.073  0.00  0.00    +0.000 A 
ATOM     21  C   UNL     1      49.819   3.543  17.747  0.00  0.00    +0.000 A 
ATOM     22  C   UNL     1      49.235   2.556  16.955  0.00  0.00    +0.000 A 
ATOM     23  C   UNL     1      47.918   2.702  16.529  0.00  0.00    +0.000 A 
ATOM     24  C   UNL     1      47.177   3.820  16.918  0.00  0.00    +0.000 A 
ATOM     25  C   UNL     1      47.767   4.821  17.692  0.00  0.00    +0.000 A 
ENDBRANCH  19  20
ENDBRANCH   9  19
ENDBRANCH   8   9
ENDBRANCH   1   8
BRANCH   4  26
ATOM     26  C   UNL     1      47.610   8.679  12.271  0.00  0.00    +0.000 C 
BRANCH  26  27
ATOM     27  N   UNL     1      47.108   7.446  11.721  0.00  0.00    +0.000 N 
ATOM     28  C   UNL     1      45.786   7.271  11.410  0.00  0.00    +0.000 C 
ATOM     29  O   UNL     1      44.959   8.164  11.545  0.00  0.00    +0.000 OA
ATOM     30  H   UNL     1      47.712   6.636  11.807  0.00  0.00    +0.000 HD
BRANCH  28  31
ATOM     31  C   UNL     1      45.427   5.967  10.839  0.00  0.00    +0.000 A 
ATOM     32  C   UNL     1      45.821   5.646   9.546  0.00  0.00    +0.000 A 
ATOM     33  S   UNL     1      45.391   4.064   9.075  0.00  0.00    +0.000 S 
ATOM     34  C   UNL     1      44.613   3.772  10.560  0.00  0.00    +0.000 A 
ATOM     35  N   UNL     1      44.007   2.578  10.807  0.00  0.00    +0.000 NA
ATOM     36  C   UNL     1      43.438   2.501  11.966  0.00  0.00    +0.000 A 
ATOM     37  N   UNL     1      43.423   3.507  12.897  0.00  0.00    +0.000 N 
ATOM     38  C   UNL     1      44.039   4.716  12.696  0.00  0.00    +0.000 A 
ATOM     39  O   UNL     1      44.027   5.584  13.567  0.00  0.00    +0.000 OA
ATOM     40  C   UNL     1      44.692   4.858  11.411  0.00  0.00    +0.000 A 
ATOM     41  H   UNL     1      42.961   3.378  13.784  0.00  0.00    +0.000 HD
ENDBRANCH  28  31
ENDBRANCH  26  27
ENDBRANCH   4  26
TORSDOF 9
ENDMDL
MODEL 8
REMARK VINA RESULT:    -6.559      2.573      5.502
REMARK INTER + INTRA:         -13.042
REMARK INTER:                  -9.775
REMARK INTRA:                  -3.267
REMARK UNBOUND:                -3.032
REMARK  Name = 
REMARK  12 active torsions:
REMARK  status: ('A' for Active; 'I' for Inactive)
REMARK    1  A    between atoms: C_1  and  C_2
REMARK    2  A    between atoms: C_2  and  C_3
REMARK    3  A    between atoms: C_2  and  N_23
REMARK    4  A    between atoms: C_6  and  C_7
REMARK    5  A    between atoms: C_7  and  N_8
REMARK    6  A    between atoms: C_9  and  C_11
REMARK    7  A    between atoms: N_23  and  C_24
REMARK    8  A    between atoms: N_23  and  C_31
REMARK    9  A    between atoms: C_24  and  C_25
REMARK   10  A    between atoms: C_31  and  C_32
REMARK   11  A    between atoms: C_31  and  C_33
REMARK   12  A    between atoms: C_31  and  C_34
REMARK                            x       y       z     vdW  Elec       q    Type
REMARK                         _______ _______ _______ _____ _____    ______ ____
ROOT
ATOM      1  C   UNL     1      48.624   5.600  20.035  0.00  0.00    +0.000 A 
ATOM      2  C   UNL     1      48.847   4.220  19.891  0.00  0.00    +0.000 A 
ATOM      3  C   UNL     1      48.488   3.560  18.718  0.00  0.00    +0.000 A 
ATOM      4  C   UNL     1      47.895   4.265  17.665  0.00  0.00    +0.000 A 
ATOM      5  C   UNL     1      47.679   5.643  17.799  0.00  0.00    +0.000 A 
ATOM      6  C   UNL     1      48.064   6.311  18.963  0.00  0.00    +0.000 A 
ENDROOT
BRANCH   1   8
ATOM      7  C   UNL     1      47.762   6.192  22.182  0.00  0.00    +0.000 C 
ATOM      8  C   UNL     1      49.041   6.329  21.314  0.00  0.00    +0.000 C 
BRANCH   8   9
ATOM      9  N   UNL     1      49.601   7.711  21.073  0.00  0.00    +0.000 NA
BRANCH   9  10
ATOM     10  C   UNL     1      51.139   7.793  21.019  0.00  0.00    +0.000 C 
ATOM     11  C   UNL     1      51.630   9.258  20.796  0.00  0.00    +0.000 C 
ATOM     12  C   UNL     1      51.922   7.323  22.285  0.00  0.00    +0.000 C 
BRANCH  10  13
ATOM     13  C   UNL     1      51.687   6.813  19.927  0.00  0.00    +0.000 A 
ATOM     14  C   UNL     1      52.322   5.600  20.244  0.00  0.00    +0.000 A 
ATOM     15  C   UNL     1      52.760   4.731  19.241  0.00  0.00    +0.000 A 
ATOM     16  C   UNL     1      52.567   5.053  17.901  0.00  0.00    +0.000 A 
ATOM     17  C   UNL     1      51.955   6.255  17.560  0.00  0.00    +0.000 A 
ATOM     18  C   UNL     1      51.531   7.132  18.561  0.00  0.00    +0.000 A 
ENDBRANCH  10  13
ENDBRANCH   9  10
BRANCH   9  19
ATOM     19  C   UNL     1      49.135   8.705  22.100  0.00  0.00    +0.000 C 
BRANCH  19  20
ATOM     20  C   UNL     1      48.149   9.775  21.688  0.00  0.00    +0.000 A 
ATOM     21  C   UNL     1      48.285  11.073  22.215  0.00  0.00    +0.000 A 
ATOM     22  C   UNL     1      47.328  12.051  21.947  0.00  0.00    +0.000 A 
ATOM     23  C   UNL     1      46.259  11.759  21.104  0.00  0.00    +0.000 A 
ATOM     24  C   UNL     1      46.162  10.499  20.508  0.00  0.00    +0.000 A 
ATOM     25  C   UNL     1      47.106   9.511  20.793  0.00  0.00    +0.000 A 
ENDBRANCH  19  20
ENDBRANCH   9  19
ENDBRANCH   8   9
ENDBRANCH   1   8
BRANCH   4  26
ATOM     26  C   UNL     1      47.404   3.536  16.442  0.00  0.00    +0.000 C 
BRANCH  26  27
ATOM     27  N   UNL     1      46.771   4.466  15.542  0.00  0.00    +0.000 N 
ATOM     28  C   UNL     1      46.812   4.308  14.182  0.00  0.00    +0.000 C 
ATOM     29  O   UNL     1      47.357   3.349  13.652  0.00  0.00    +0.000 OA
ATOM     30  H   UNL     1      46.513   5.366  15.933  0.00  0.00    +0.000 HD
BRANCH  28  31
ATOM     31  C   UNL     1      46.105   5.326  13.396  0.00  0.00    +0.000 A 
ATOM     32  C   UNL     1      46.708   6.553  13.150  0.00  0.00    +0.000 A 
ATOM     33  S   UNL     1      45.781   7.583  12.155  0.00  0.00    +0.000 S 
ATOM     34  C   UNL     1      44.515   6.449  12.065  0.00  0.00    +0.000 A 
ATOM     35  N   UNL     1      43.384   6.720  11.357  0.00  0.00    +0.000 NA
ATOM     36  C   UNL     1      42.497   5.780  11.391  0.00  0.00    +0.000 A 
ATOM     37  N   UNL     1      42.641   4.595  12.065  0.00  0.00    +0.000 N 
ATOM     38  C   UNL     1      43.771   4.274  12.773  0.00  0.00    +0.000 A 
ATOM     39  O   UNL     1      43.874   3.188  13.342  0.00  0.00    +0.000 OA
ATOM     40  C   UNL     1      44.800   5.294  12.770  0.00  0.00    +0.000 A 
ATOM     41  H   UNL     1      41.908   3.903  12.048  0.00  0.00    +0.000 HD
ENDBRANCH  28  31
ENDBRANCH  26  27
ENDBRANCH   4  26
TORSDOF 9
ENDMDL
MODEL 9
REMARK VINA RESULT:    -6.252      5.107      9.066
REMARK INTER + INTRA:         -12.574
REMARK INTER:                  -9.404
REMARK INTRA:                  -3.170
REMARK UNBOUND:                -3.032
REMARK  Name = 
REMARK  12 active torsions:
REMARK  status: ('A' for Active; 'I' for Inactive)
REMARK    1  A    between atoms: C_1  and  C_2
REMARK    2  A    between atoms: C_2  and  C_3
REMARK    3  A    between atoms: C_2  and  N_23
REMARK    4  A    between atoms: C_6  and  C_7
REMARK    5  A    between atoms: C_7  and  N_8
REMARK    6  A    between atoms: C_9  and  C_11
REMARK    7  A    between atoms: N_23  and  C_24
REMARK    8  A    between atoms: N_23  and  C_31
REMARK    9  A    between atoms: C_24  and  C_25
REMARK   10  A    between atoms: C_31  and  C_32
REMARK   11  A    between atoms: C_31  and  C_33
REMARK   12  A    between atoms: C_31  and  C_34
REMARK                            x       y       z     vdW  Elec       q    Type
REMARK                         _______ _______ _______ _____ _____    ______ ____
ROOT
ATOM      1  C   UNL     1      50.938   9.516  11.669  0.00  0.00    +0.000 A 
ATOM      2  C   UNL     1      50.788   8.147  11.388  0.00  0.00    +0.000 A 
ATOM      3  C   UNL     1      49.789   7.399  12.008  0.00  0.00    +0.000 A 
ATOM      4  C   UNL     1      48.921   8.002  12.924  0.00  0.00    +0.000 A 
ATOM      5  C   UNL     1      49.060   9.369  13.200  0.00  0.00    +0.000 A 
ATOM      6  C   UNL     1      50.041  10.127  12.559  0.00  0.00    +0.000 A 
ENDROOT
BRANCH   1   8
ATOM      7  C   UNL     1      52.007  11.646  11.810  0.00  0.00    +0.000 C 
ATOM      8  C   UNL     1      52.019  10.342  10.968  0.00  0.00    +0.000 C 
BRANCH   8   9
ATOM      9  N   UNL     1      51.829  10.450   9.474  0.00  0.00    +0.000 NA
BRANCH   9  10
ATOM     10  C   UNL     1      53.045  10.021   8.628  0.00  0.00    +0.000 C 
ATOM     11  C   UNL     1      52.793  10.244   7.104  0.00  0.00    +0.000 C 
ATOM     12  C   UNL     1      54.395  10.758   8.897  0.00  0.00    +0.000 C 
BRANCH  10  13
ATOM     13  C   UNL     1      53.425   8.538   8.955  0.00  0.00    +0.000 A 
ATOM     14  C   UNL     1      54.388   8.194   9.920  0.00  0.00    +0.000 A 
ATOM     15  C   UNL     1      54.669   6.858  10.214  0.00  0.00    +0.000 A 
ATOM     16  C   UNL     1      53.991   5.836   9.555  0.00  0.00    +0.000 A 
ATOM     17  C   UNL     1      53.045   6.149   8.584  0.00  0.00    +0.000 A 
ATOM     18  C   UNL     1      52.774   7.485   8.278  0.00  0.00    +0.000 A 
ENDBRANCH  10  13
ENDBRANCH   9  10
BRANCH   9  19
ATOM     19  C   UNL     1      51.452  11.840   9.044  0.00  0.00    +0.000 C 
BRANCH  19  20
ATOM     20  C   UNL     1      50.017  12.122   8.658  0.00  0.00    +0.000 A 
ATOM     21  C   UNL     1      49.022  12.101   9.654  0.00  0.00    +0.000 A 
ATOM     22  C   UNL     1      47.677  12.242   9.316  0.00  0.00    +0.000 A 
ATOM     23  C   UNL     1      47.319  12.462   7.989  0.00  0.00    +0.000 A 
ATOM     24  C   UNL     1      48.305  12.570   7.006  0.00  0.00    +0.000 A 
ATOM     25  C   UNL     1      49.651  12.406   7.338  0.00  0.00    +0.000 A 
ENDBRANCH  19  20
ENDBRANCH   9  19
ENDBRANCH   8   9
ENDBRANCH   1   8
BRANCH   4  26
ATOM     26  C   UNL     1      47.915   7.174  13.679  0.00  0.00    +0.000 C 
BRANCH  26  27
ATOM     27  N   UNL     1      47.257   6.265  12.777  0.00  0.00    +0.000 N 
ATOM     28  C   UNL     1      46.247   6.667  11.943  0.00  0.00    +0.000 C 
ATOM     29  O   UNL     1      45.870   7.830  11.889  0.00  0.00    +0.000 OA
ATOM     30  H   UNL     1      47.391   5.276  12.957  0.00  0.00    +0.000 HD
BRANCH  28  31
ATOM     31  C   UNL     1      45.687   5.632  11.066  0.00  0.00    +0.000 A 
ATOM     32  C   UNL     1      45.867   5.718   9.692  0.00  0.00    +0.000 A 
ATOM     33  S   UNL     1      45.222   4.391   8.835  0.00  0.00    +0.000 S 
ATOM     34  C   UNL     1      44.630   3.684  10.264  0.00  0.00    +0.000 A 
ATOM     35  N   UNL     1      43.947   2.506  10.229  0.00  0.00    +0.000 NA
ATOM     36  C   UNL     1      43.537   2.094  11.383  0.00  0.00    +0.000 A 
ATOM     37  N   UNL     1      43.749   2.752  12.567  0.00  0.00    +0.000 N 
ATOM     38  C   UNL     1      44.448   3.929  12.650  0.00  0.00    +0.000 A 
ATOM     39  O   UNL     1      44.641   4.476  13.735  0.00  0.00    +0.000 OA
ATOM     40  C   UNL     1      44.931   4.438  11.382  0.00  0.00    +0.000 A 
ATOM     41  H   UNL     1      43.402   2.372  13.434  0.00  0.00    +0.000 HD
ENDBRANCH  28  31
ENDBRANCH  26  27
ENDBRANCH   4  26
TORSDOF 9
ENDMDL
