MODEL 1
REMARK VINA RESULT:    -8.025      0.000      0.000
REMARK INTER + INTRA:         -10.884
REMARK INTER:                 -10.137
REMARK INTRA:                  -0.748
REMARK UNBOUND:                -0.748
REMARK  Name = 
REMARK  5 active torsions:
REMARK  status: ('A' for Active; 'I' for Inactive)
REMARK    1  A    between atoms: O_1  and  C_2
REMARK    2  A    between atoms: C_5  and  O_6
REMARK    3  A    between atoms: O_6  and  C_7
REMARK    4  A    between atoms: C_7  and  C_8
REMARK    5  A    between atoms: C_12  and  C_13
REMARK                            x       y       z     vdW  Elec       q    Type
REMARK                         _______ _______ _______ _____ _____    ______ ____
ROOT
ATOM      1  C   UNL     1      44.320   3.473  10.550  0.00  0.00    +0.000 A 
ATOM      2  N   UNL     1      43.707   2.845  11.580  0.00  0.00    +0.000 NA
ATOM      3  N   UNL     1      43.591   3.468  12.780  0.00  0.00    +0.000 NA
ATOM      4  C   UNL     1      44.028   4.742  12.909  0.00  0.00    +0.000 A 
ATOM      5  C   UNL     1      44.645   5.476  11.901  0.00  0.00    +0.000 A 
ATOM      6  C   UNL     1      44.844   4.765  10.696  0.00  0.00    +0.000 A 
ATOM      7 CL   UNL     1      45.851   5.397   9.425  0.00  0.00    +0.000 Cl
ENDROOT
BRANCH   5   8
ATOM      8  C   UNL     1      45.070   6.888  12.133  0.00  0.00    +0.000 A 
ATOM      9  C   UNL     1      46.196   7.219  12.908  0.00  0.00    +0.000 A 
ATOM     10  F   UNL     1      46.872   6.267  13.570  0.00  0.00    +0.000 F 
ATOM     11  C   UNL     1      46.666   8.532  13.021  0.00  0.00    +0.000 A 
ATOM     12  C   UNL     1      46.032   9.563  12.338  0.00  0.00    +0.000 A 
ATOM     13  C   UNL     1      44.870   9.287  11.631  0.00  0.00    +0.000 A 
ATOM     14  C   UNL     1      44.379   7.980  11.582  0.00  0.00    +0.000 A 
ATOM     15  F   UNL     1      43.182   7.802  10.997  0.00  0.00    +0.000 F 
ENDBRANCH   5   8
BRANCH   1  16
ATOM     16  C   UNL     1      44.346   2.714   9.247  0.00  0.00    +0.000 C 
BRANCH  16  17
ATOM     17  O   UNL     1      45.515   1.902   9.210  0.00  0.00    +0.000 OA
BRANCH  17  21
ATOM     18  C   UNL     1      47.526   2.032   5.684  0.00  0.00    +0.000 A 
ATOM     19  C   UNL     1      46.724   3.095   6.077  0.00  0.00    +0.000 A 
ATOM     20  N   UNL     1      46.039   3.103   7.250  0.00  0.00    +0.000 NA
ATOM     21  C   UNL     1      46.196   1.995   8.011  0.00  0.00    +0.000 A 
ATOM     22  C   UNL     1      47.001   0.937   7.616  0.00  0.00    +0.000 A 
ATOM     23  N   UNL     1      47.685   0.933   6.443  0.00  0.00    +0.000 NA
BRANCH  18  24
ATOM     24  O   UNL     1      48.205   2.023   4.498  0.00  0.00    +0.000 OA
ATOM     25  H   UNL     1      48.668   1.176   4.416  0.00  0.00    +0.000 HD
ENDBRANCH  18  24
ENDBRANCH  17  21
ENDBRANCH  16  17
ENDBRANCH   1  16
TORSDOF 5
ENDMDL
MODEL 2
REMARK VINA RESULT:    -7.880      0.385      1.698
REMARK INTER + INTRA:         -10.700
REMARK INTER:                  -9.998
REMARK INTRA:                  -0.702
REMARK UNBOUND:                -0.748
REMARK  Name = 
REMARK  5 active torsions:
REMARK  status: ('A' for Active; 'I' for Inactive)
REMARK    1  A    between atoms: O_1  and  C_2
REMARK    2  A    between atoms: C_5  and  O_6
REMARK    3  A    between atoms: O_6  and  C_7
REMARK    4  A    between atoms: C_7  and  C_8
REMARK    5  A    between atoms: C_12  and  C_13
REMARK                            x       y       z     vdW  Elec       q    Type
REMARK                         _______ _______ _______ _____ _____    ______ ____
ROOT
ATOM      1  C   UNL     1      44.442   3.529  10.534  0.00  0.00    +0.000 A 
ATOM      2  N   UNL     1      43.893   2.954  11.630  0.00  0.00    +0.000 NA
ATOM      3  N   UNL     1      43.896   3.615  12.815  0.00  0.00    +0.000 NA
ATOM      4  C   UNL     1      44.386   4.876  12.868  0.00  0.00    +0.000 A 
ATOM      5  C   UNL     1      44.944   5.557  11.791  0.00  0.00    +0.000 A 
ATOM      6  C   UNL     1      45.021   4.804  10.597  0.00  0.00    +0.000 A 
ATOM      7 CL   UNL     1      45.942   5.362   9.230  0.00  0.00    +0.000 Cl
ENDROOT
BRANCH   5   8
ATOM      8  C   UNL     1      45.435   6.958  11.943  0.00  0.00    +0.000 A 
ATOM      9  C   UNL     1      44.637   8.075  11.635  0.00  0.00    +0.000 A 
ATOM     10  F   UNL     1      43.426   7.914  11.078  0.00  0.00    +0.000 F 
ATOM     11  C   UNL     1      45.051   9.385  11.896  0.00  0.00    +0.000 A 
ATOM     12  C   UNL     1      46.281   9.623  12.500  0.00  0.00    +0.000 A 
ATOM     13  C   UNL     1      47.129   8.552  12.742  0.00  0.00    +0.000 A 
ATOM     14  C   UNL     1      46.724   7.255  12.416  0.00  0.00    +0.000 A 
ATOM     15  F   UNL     1      47.640   6.281  12.548  0.00  0.00    +0.000 F 
ENDBRANCH   5   8
BRANCH   1  16
ATOM     16  C   UNL     1      44.335   2.732   9.259  0.00  0.00    +0.000 C 
BRANCH  16  17
ATOM     17  O   UNL     1      45.437   1.833   9.184  0.00  0.00    +0.000 OA
BRANCH  17  21
ATOM     18  C   UNL     1      47.528   2.023   5.708  0.00  0.00    +0.000 A 
ATOM     19  C   UNL     1      46.679   3.057   6.076  0.00  0.00    +0.000 A 
ATOM     20  N   UNL     1      45.965   3.045   7.231  0.00  0.00    +0.000 NA
ATOM     21  C   UNL     1      46.144   1.947   8.002  0.00  0.00    +0.000 A 
ATOM     22  C   UNL     1      46.996   0.917   7.631  0.00  0.00    +0.000 A 
ATOM     23  N   UNL     1      47.709   0.934   6.476  0.00  0.00    +0.000 NA
BRANCH  18  24
ATOM     24  O   UNL     1      48.236   2.035   4.539  0.00  0.00    +0.000 OA
ATOM     25  H   UNL     1      48.895   1.326   4.572  0.00  0.00    +0.000 HD
ENDBRANCH  18  24
ENDBRANCH  17  21
ENDBRANCH  16  17
ENDBRANCH   1  16
TORSDOF 5
ENDMDL
MODEL 3
REMARK VINA RESULT:    -7.224      1.813      2.514
REMARK INTER + INTRA:          -9.872
REMARK INTER:                  -9.315
REMARK INTRA:                  -0.557
REMARK UNBOUND:                -0.748
REMARK  Name = 
REMARK  5 active torsions:
REMARK  status: ('A' for Active; 'I' for Inactive)
REMARK    1  A    between atoms: O_1  and  C_2
REMARK    2  A    between atoms: C_5  and  O_6
REMARK    3  A    between atoms: O_6  and  C_7
REMARK    4  A    between atoms: C_7  and  C_8
REMARK    5  A    between atoms: C_12  and  C_13
REMARK                            x       y       z     vdW  Elec       q    Type
REMARK                         _______ _______ _______ _____ _____    ______ ____
ROOT
ATOM      1  C   UNL     1      44.879   4.294  11.971  0.00  0.00    +0.000 A 
ATOM      2  N   UNL     1      45.199   3.475  13.001  0.00  0.00    +0.000 NA
ATOM      3  N   UNL     1      46.184   3.827  13.865  0.00  0.00    +0.000 NA
ATOM      4  C   UNL     1      46.786   5.032  13.726  0.00  0.00    +0.000 A 
ATOM      5  C   UNL     1      46.507   5.948  12.719  0.00  0.00    +0.000 A 
ATOM      6  C   UNL     1      45.551   5.509  11.775  0.00  0.00    +0.000 A 
ATOM      7 CL   UNL     1      45.278   6.372  10.288  0.00  0.00    +0.000 Cl
ENDROOT
BRANCH   5   8
ATOM      8  C   UNL     1      47.209   7.264  12.665  0.00  0.00    +0.000 A 
ATOM      9  C   UNL     1      48.596   7.371  12.459  0.00  0.00    +0.000 A 
ATOM     10  F   UNL     1      49.366   6.273  12.416  0.00  0.00    +0.000 F 
ATOM     11  C   UNL     1      49.233   8.605  12.283  0.00  0.00    +0.000 A 
ATOM     12  C   UNL     1      48.492   9.781  12.285  0.00  0.00    +0.000 A 
ATOM     13  C   UNL     1      47.135   9.720  12.567  0.00  0.00    +0.000 A 
ATOM     14  C   UNL     1      46.527   8.484  12.804  0.00  0.00    +0.000 A 
ATOM     15  F   UNL     1      45.244   8.505  13.204  0.00  0.00    +0.000 F 
ENDBRANCH   5   8
BRANCH   1  16
ATOM     16  C   UNL     1      43.734   3.833  11.105  0.00  0.00    +0.000 C 
BRANCH  16  17
ATOM     17  O   UNL     1      44.073   2.579  10.521  0.00  0.00    +0.000 OA
BRANCH  17  21
ATOM     18  C   UNL     1      46.226   3.104   7.119  0.00  0.00    +0.000 A 
ATOM     19  C   UNL     1      46.407   1.971   7.898  0.00  0.00    +0.000 A 
ATOM     20  N   UNL     1      45.706   1.745   9.039  0.00  0.00    +0.000 NA
ATOM     21  C   UNL     1      44.813   2.709   9.362  0.00  0.00    +0.000 A 
ATOM     22  C   UNL     1      44.634   3.839   8.578  0.00  0.00    +0.000 A 
ATOM     23  N   UNL     1      45.336   4.061   7.437  0.00  0.00    +0.000 NA
BRANCH  18  24
ATOM     24  O   UNL     1      46.943   3.333   5.977  0.00  0.00    +0.000 OA
ATOM     25  H   UNL     1      46.321   3.487   5.251  0.00  0.00    +0.000 HD
ENDBRANCH  18  24
ENDBRANCH  17  21
ENDBRANCH  16  17
ENDBRANCH   1  16
TORSDOF 5
ENDMDL
MODEL 4
REMARK VINA RESULT:    -7.181      2.291      3.153
REMARK INTER + INTRA:          -9.818
REMARK INTER:                  -9.155
REMARK INTRA:                  -0.663
REMARK UNBOUND:                -0.748
REMARK  Name = 
REMARK  5 active torsions:
REMARK  status: ('A' for Active; 'I' for Inactive)
REMARK    1  A    between atoms: O_1  and  C_2
REMARK    2  A    between atoms: C_5  and  O_6
REMARK    3  A    between atoms: O_6  and  C_7
REMARK    4  A    between atoms: C_7  and  C_8
REMARK    5  A    between atoms: C_12  and  C_13
REMARK                            x       y       z     vdW  Elec       q    Type
REMARK                         _______ _______ _______ _____ _____    ______ ____
ROOT
ATOM      1  C   UNL     1      44.555   4.507  11.463  0.00  0.00    +0.000 A 
ATOM      2  N   UNL     1      43.785   5.565  11.116  0.00  0.00    +0.000 NA
ATOM      3  N   UNL     1      44.119   6.811  11.535  0.00  0.00    +0.000 NA
ATOM      4  C   UNL     1      45.263   6.989  12.236  0.00  0.00    +0.000 A 
ATOM      5  C   UNL     1      46.129   5.969  12.615  0.00  0.00    +0.000 A 
ATOM      6  C   UNL     1      45.701   4.672  12.254  0.00  0.00    +0.000 A 
ATOM      7 CL   UNL     1      46.482   3.249  12.883  0.00  0.00    +0.000 Cl
ENDROOT
BRANCH   5   8
ATOM      8  C   UNL     1      47.383   6.269  13.367  0.00  0.00    +0.000 A 
ATOM      9  C   UNL     1      48.450   6.989  12.799  0.00  0.00    +0.000 A 
ATOM     10  F   UNL     1      48.423   7.338  11.503  0.00  0.00    +0.000 F 
ATOM     11  C   UNL     1      49.570   7.378  13.542  0.00  0.00    +0.000 A 
ATOM     12  C   UNL     1      49.649   7.076  14.897  0.00  0.00    +0.000 A 
ATOM     13  C   UNL     1      48.655   6.297  15.471  0.00  0.00    +0.000 A 
ATOM     14  C   UNL     1      47.575   5.863  14.698  0.00  0.00    +0.000 A 
ATOM     15  F   UNL     1      46.721   5.003  15.277  0.00  0.00    +0.000 F 
ENDBRANCH   5   8
BRANCH   1  16
ATOM     16  C   UNL     1      44.125   3.176  10.899  0.00  0.00    +0.000 C 
BRANCH  16  17
ATOM     17  O   UNL     1      43.895   3.321   9.501  0.00  0.00    +0.000 OA
BRANCH  17  21
ATOM     18  C   UNL     1      47.115   2.259   7.267  0.00  0.00    +0.000 A 
ATOM     19  C   UNL     1      46.620   3.555   7.217  0.00  0.00    +0.000 A 
ATOM     20  N   UNL     1      45.552   3.961   7.950  0.00  0.00    +0.000 NA
ATOM     21  C   UNL     1      45.004   3.008   8.739  0.00  0.00    +0.000 A 
ATOM     22  C   UNL     1      45.504   1.715   8.787  0.00  0.00    +0.000 A 
ATOM     23  N   UNL     1      46.572   1.312   8.053  0.00  0.00    +0.000 NA
BRANCH  18  24
ATOM     24  O   UNL     1      48.183   1.851   6.517  0.00  0.00    +0.000 OA
ATOM     25  H   UNL     1      48.033   0.934   6.244  0.00  0.00    +0.000 HD
ENDBRANCH  18  24
ENDBRANCH  17  21
ENDBRANCH  16  17
ENDBRANCH   1  16
TORSDOF 5
ENDMDL
MODEL 5
REMARK VINA RESULT:    -6.732      1.915      2.789
REMARK INTER + INTRA:          -9.250
REMARK INTER:                  -9.332
REMARK INTRA:                   0.082
REMARK UNBOUND:                -0.748
REMARK  Name = 
REMARK  5 active torsions:
REMARK  status: ('A' for Active; 'I' for Inactive)
REMARK    1  A    between atoms: O_1  and  C_2
REMARK    2  A    between atoms: C_5  and  O_6
REMARK    3  A    between atoms: O_6  and  C_7
REMARK    4  A    between atoms: C_7  and  C_8
REMARK    5  A    between atoms: C_12  and  C_13
REMARK                            x       y       z     vdW  Elec       q    Type
REMARK                         _______ _______ _______ _____ _____    ______ ____
ROOT
ATOM      1  C   UNL     1      45.083   4.112  11.817  0.00  0.00    +0.000 A 
ATOM      2  N   UNL     1      45.489   3.164  12.695  0.00  0.00    +0.000 NA
ATOM      3  N   UNL     1      46.488   3.436  13.570  0.00  0.00    +0.000 NA
ATOM      4  C   UNL     1      47.020   4.680  13.603  0.00  0.00    +0.000 A 
ATOM      5  C   UNL     1      46.650   5.724  12.762  0.00  0.00    +0.000 A 
ATOM      6  C   UNL     1      45.681   5.381  11.792  0.00  0.00    +0.000 A 
ATOM      7 CL   UNL     1      45.301   6.447  10.470  0.00  0.00    +0.000 Cl
ENDROOT
BRANCH   5   8
ATOM      8  C   UNL     1      47.278   7.072  12.892  0.00  0.00    +0.000 A 
ATOM      9  C   UNL     1      46.531   8.227  13.182  0.00  0.00    +0.000 A 
ATOM     10  F   UNL     1      45.191   8.176  13.239  0.00  0.00    +0.000 F 
ATOM     11  C   UNL     1      47.133   9.466  13.428  0.00  0.00    +0.000 A 
ATOM     12  C   UNL     1      48.518   9.585  13.415  0.00  0.00    +0.000 A 
ATOM     13  C   UNL     1      49.284   8.486  13.052  0.00  0.00    +0.000 A 
ATOM     14  C   UNL     1      48.661   7.273  12.747  0.00  0.00    +0.000 A 
ATOM     15  F   UNL     1      49.445   6.289  12.274  0.00  0.00    +0.000 F 
ENDBRANCH   5   8
BRANCH   1  16
ATOM     16  C   UNL     1      43.929   3.725  10.927  0.00  0.00    +0.000 C 
BRANCH  16  17
ATOM     17  O   UNL     1      44.167   4.232   9.618  0.00  0.00    +0.000 OA
BRANCH  17  21
ATOM     18  C   UNL     1      46.712   1.854   7.531  0.00  0.00    +0.000 A 
ATOM     19  C   UNL     1      46.665   3.219   7.287  0.00  0.00    +0.000 A 
ATOM     20  N   UNL     1      45.838   4.057   7.964  0.00  0.00    +0.000 NA
ATOM     21  C   UNL     1      45.061   3.462   8.898  0.00  0.00    +0.000 A 
ATOM     22  C   UNL     1      45.114   2.098   9.141  0.00  0.00    +0.000 A 
ATOM     23  N   UNL     1      45.943   1.262   8.463  0.00  0.00    +0.000 NA
BRANCH  18  24
ATOM     24  O   UNL     1      47.538   1.012   6.840  0.00  0.00    +0.000 OA
ATOM     25  H   UNL     1      46.991   0.379   6.351  0.00  0.00    +0.000 HD
ENDBRANCH  18  24
ENDBRANCH  17  21
ENDBRANCH  16  17
ENDBRANCH   1  16
TORSDOF 5
ENDMDL
MODEL 6
REMARK VINA RESULT:    -6.711      6.350      8.128
REMARK INTER + INTRA:          -9.224
REMARK INTER:                  -8.550
REMARK INTRA:                  -0.674
REMARK UNBOUND:                -0.748
REMARK  Name = 
REMARK  5 active torsions:
REMARK  status: ('A' for Active; 'I' for Inactive)
REMARK    1  A    between atoms: O_1  and  C_2
REMARK    2  A    between atoms: C_5  and  O_6
REMARK    3  A    between atoms: O_6  and  C_7
REMARK    4  A    between atoms: C_7  and  C_8
REMARK    5  A    between atoms: C_12  and  C_13
REMARK                            x       y       z     vdW  Elec       q    Type
REMARK                         _______ _______ _______ _____ _____    ______ ____
ROOT
ATOM      1  C   UNL     1      48.072   3.755  15.824  0.00  0.00    +0.000 A 
ATOM      2  N   UNL     1      48.401   2.473  15.535  0.00  0.00    +0.000 NA
ATOM      3  N   UNL     1      49.343   1.834  16.272  0.00  0.00    +0.000 NA
ATOM      4  C   UNL     1      49.892   2.465  17.336  0.00  0.00    +0.000 A 
ATOM      5  C   UNL     1      49.598   3.767  17.725  0.00  0.00    +0.000 A 
ATOM      6  C   UNL     1      48.691   4.442  16.877  0.00  0.00    +0.000 A 
ATOM      7 CL   UNL     1      48.420   6.156  17.017  0.00  0.00    +0.000 Cl
ENDROOT
BRANCH   5   8
ATOM      8  C   UNL     1      50.239   4.369  18.932  0.00  0.00    +0.000 A 
ATOM      9  C   UNL     1      49.512   4.679  20.095  0.00  0.00    +0.000 A 
ATOM     10  F   UNL     1      48.176   4.549  20.120  0.00  0.00    +0.000 F 
ATOM     11  C   UNL     1      50.132   5.125  21.268  0.00  0.00    +0.000 A 
ATOM     12  C   UNL     1      51.515   5.253  21.322  0.00  0.00    +0.000 A 
ATOM     13  C   UNL     1      52.256   5.035  20.169  0.00  0.00    +0.000 A 
ATOM     14  C   UNL     1      51.613   4.653  18.989  0.00  0.00    +0.000 A 
ATOM     15  F   UNL     1      52.367   4.590  17.879  0.00  0.00    +0.000 F 
ENDBRANCH   5   8
BRANCH   1  16
ATOM     16  C   UNL     1      46.975   4.351  14.979  0.00  0.00    +0.000 C 
BRANCH  16  17
ATOM     17  O   UNL     1      46.666   3.449  13.921  0.00  0.00    +0.000 OA
BRANCH  17  21
ATOM     18  C   UNL     1      44.023   5.032  11.275  0.00  0.00    +0.000 A 
ATOM     19  C   UNL     1      43.819   3.763  11.800  0.00  0.00    +0.000 A 
ATOM     20  N   UNL     1      44.669   3.194  12.693  0.00  0.00    +0.000 NA
ATOM     21  C   UNL     1      45.732   3.957  13.038  0.00  0.00    +0.000 A 
ATOM     22  C   UNL     1      45.929   5.225  12.513  0.00  0.00    +0.000 A 
ATOM     23  N   UNL     1      45.077   5.792  11.620  0.00  0.00    +0.000 NA
BRANCH  18  24
ATOM     24  O   UNL     1      43.171   5.596  10.367  0.00  0.00    +0.000 OA
ATOM     25  H   UNL     1      43.277   5.137   9.521  0.00  0.00    +0.000 HD
ENDBRANCH  18  24
ENDBRANCH  17  21
ENDBRANCH  16  17
ENDBRANCH   1  16
TORSDOF 5
ENDMDL
MODEL 7
REMARK VINA RESULT:    -6.559      5.566      7.247
REMARK INTER + INTRA:          -9.033
REMARK INTER:                  -8.265
REMARK INTRA:                  -0.767
REMARK UNBOUND:                -0.748
REMARK  Name = 
REMARK  5 active torsions:
REMARK  status: ('A' for Active; 'I' for Inactive)
REMARK    1  A    between atoms: O_1  and  C_2
REMARK    2  A    between atoms: C_5  and  O_6
REMARK    3  A    between atoms: O_6  and  C_7
REMARK    4  A    between atoms: C_7  and  C_8
REMARK    5  A    between atoms: C_12  and  C_13
REMARK                            x       y       z     vdW  Elec       q    Type
REMARK                         _______ _______ _______ _____ _____    ______ ____
ROOT
ATOM      1  C   UNL     1      47.651   4.939  14.998  0.00  0.00    +0.000 A 
ATOM      2  N   UNL     1      48.072   6.086  14.415  0.00  0.00    +0.000 NA
ATOM      3  N   UNL     1      48.690   7.036  15.161  0.00  0.00    +0.000 NA
ATOM      4  C   UNL     1      48.943   6.791  16.468  0.00  0.00    +0.000 A 
ATOM      5  C   UNL     1      48.573   5.634  17.145  0.00  0.00    +0.000 A 
ATOM      6  C   UNL     1      47.840   4.709  16.368  0.00  0.00    +0.000 A 
ATOM      7 CL   UNL     1      47.038   3.346  17.095  0.00  0.00    +0.000 Cl
ENDROOT
BRANCH   5   8
ATOM      8  C   UNL     1      48.920   5.446  18.584  0.00  0.00    +0.000 A 
ATOM      9  C   UNL     1      50.205   5.060  19.006  0.00  0.00    +0.000 A 
ATOM     10  F   UNL     1      51.148   4.734  18.108  0.00  0.00    +0.000 F 
ATOM     11  C   UNL     1      50.564   5.006  20.357  0.00  0.00    +0.000 A 
ATOM     12  C   UNL     1      49.646   5.360  21.339  0.00  0.00    +0.000 A 
ATOM     13  C   UNL     1      48.345   5.665  20.965  0.00  0.00    +0.000 A 
ATOM     14  C   UNL     1      47.988   5.652  19.614  0.00  0.00    +0.000 A 
ATOM     15  F   UNL     1      46.686   5.823  19.329  0.00  0.00    +0.000 F 
ENDBRANCH   5   8
BRANCH   1  16
ATOM     16  C   UNL     1      47.027   3.928  14.068  0.00  0.00    +0.000 C 
BRANCH  16  17
ATOM     17  O   UNL     1      45.614   4.101  14.081  0.00  0.00    +0.000 OA
BRANCH  17  21
ATOM     18  C   UNL     1      44.125   4.358  10.312  0.00  0.00    +0.000 A 
ATOM     19  C   UNL     1      43.741   3.322  11.151  0.00  0.00    +0.000 A 
ATOM     20  N   UNL     1      44.203   3.197  12.422  0.00  0.00    +0.000 NA
ATOM     21  C   UNL     1      45.068   4.161  12.813  0.00  0.00    +0.000 A 
ATOM     22  C   UNL     1      45.447   5.197  11.971  0.00  0.00    +0.000 A 
ATOM     23  N   UNL     1      44.982   5.319  10.702  0.00  0.00    +0.000 NA
BRANCH  18  24
ATOM     24  O   UNL     1      43.666   4.474   9.029  0.00  0.00    +0.000 OA
ATOM     25  H   UNL     1      44.415   4.686   8.454  0.00  0.00    +0.000 HD
ENDBRANCH  18  24
ENDBRANCH  17  21
ENDBRANCH  16  17
ENDBRANCH   1  16
TORSDOF 5
ENDMDL
MODEL 8
REMARK VINA RESULT:    -6.530      5.014      6.664
REMARK INTER + INTRA:          -8.995
REMARK INTER:                  -8.219
REMARK INTRA:                  -0.776
REMARK UNBOUND:                -0.748
REMARK  Name = 
REMARK  5 active torsions:
REMARK  status: ('A' for Active; 'I' for Inactive)
REMARK    1  A    between atoms: O_1  and  C_2
REMARK    2  A    between atoms: C_5  and  O_6
REMARK    3  A    between atoms: O_6  and  C_7
REMARK    4  A    between atoms: C_7  and  C_8
REMARK    5  A    between atoms: C_12  and  C_13
REMARK                            x       y       z     vdW  Elec       q    Type
REMARK                         _______ _______ _______ _____ _____    ______ ____
ROOT
ATOM      1  C   UNL     1      47.437   4.918  14.347  0.00  0.00    +0.000 A 
ATOM      2  N   UNL     1      47.311   3.582  14.168  0.00  0.00    +0.000 NA
ATOM      3  N   UNL     1      47.659   2.730  15.165  0.00  0.00    +0.000 NA
ATOM      4  C   UNL     1      48.058   3.232  16.356  0.00  0.00    +0.000 A 
ATOM      5  C   UNL     1      48.191   4.586  16.642  0.00  0.00    +0.000 A 
ATOM      6  C   UNL     1      47.923   5.445  15.552  0.00  0.00    +0.000 A 
ATOM      7 CL   UNL     1      48.312   7.141  15.613  0.00  0.00    +0.000 Cl
ENDROOT
BRANCH   5   8
ATOM      8  C   UNL     1      48.616   5.045  17.997  0.00  0.00    +0.000 A 
ATOM      9  C   UNL     1      47.694   5.452  18.979  0.00  0.00    +0.000 A 
ATOM     10  F   UNL     1      46.388   5.551  18.688  0.00  0.00    +0.000 F 
ATOM     11  C   UNL     1      48.082   5.760  20.287  0.00  0.00    +0.000 A 
ATOM     12  C   UNL     1      49.415   5.649  20.666  0.00  0.00    +0.000 A 
ATOM     13  C   UNL     1      50.363   5.331  19.704  0.00  0.00    +0.000 A 
ATOM     14  C   UNL     1      49.965   5.088  18.387  0.00  0.00    +0.000 A 
ATOM     15  F   UNL     1      50.940   4.919  17.479  0.00  0.00    +0.000 F 
ENDBRANCH   5   8
BRANCH   1  16
ATOM     16  C   UNL     1      46.971   5.775  13.197  0.00  0.00    +0.000 C 
BRANCH  16  17
ATOM     17  O   UNL     1      45.558   5.650  13.072  0.00  0.00    +0.000 OA
BRANCH  17  21
ATOM     18  C   UNL     1      44.549   4.085   9.463  0.00  0.00    +0.000 A 
ATOM     19  C   UNL     1      43.992   3.581  10.630  0.00  0.00    +0.000 A 
ATOM     20  N   UNL     1      44.290   4.075  11.859  0.00  0.00    +0.000 NA
ATOM     21  C   UNL     1      45.173   5.101  11.864  0.00  0.00    +0.000 A 
ATOM     22  C   UNL     1      45.725   5.603  10.695  0.00  0.00    +0.000 A 
ATOM     23  N   UNL     1      45.424   5.107   9.468  0.00  0.00    +0.000 NA
BRANCH  18  24
ATOM     24  O   UNL     1      44.255   3.577   8.229  0.00  0.00    +0.000 OA
ATOM     25  H   UNL     1      44.776   4.056   7.568  0.00  0.00    +0.000 HD
ENDBRANCH  18  24
ENDBRANCH  17  21
ENDBRANCH  16  17
ENDBRANCH   1  16
TORSDOF 5
ENDMDL
MODEL 9
REMARK VINA RESULT:    -6.393      5.123      6.555
REMARK INTER + INTRA:          -8.823
REMARK INTER:                  -8.055
REMARK INTRA:                  -0.768
REMARK UNBOUND:                -0.748
REMARK  Name = 
REMARK  5 active torsions:
REMARK  status: ('A' for Active; 'I' for Inactive)
REMARK    1  A    between atoms: O_1  and  C_2
REMARK    2  A    between atoms: C_5  and  O_6
REMARK    3  A    between atoms: O_6  and  C_7
REMARK    4  A    between atoms: C_7  and  C_8
REMARK    5  A    between atoms: C_12  and  C_13
REMARK                            x       y       z     vdW  Elec       q    Type
REMARK                         _______ _______ _______ _____ _____    ______ ____
ROOT
ATOM      1  C   UNL     1      47.566   4.893  14.518  0.00  0.00    +0.000 A 
ATOM      2  N   UNL     1      47.434   3.555  14.361  0.00  0.00    +0.000 NA
ATOM      3  N   UNL     1      47.713   2.722  15.395  0.00  0.00    +0.000 NA
ATOM      4  C   UNL     1      48.052   3.246  16.595  0.00  0.00    +0.000 A 
ATOM      5  C   UNL     1      48.187   4.605  16.859  0.00  0.00    +0.000 A 
ATOM      6  C   UNL     1      47.991   5.442  15.737  0.00  0.00    +0.000 A 
ATOM      7 CL   UNL     1      48.398   7.134  15.783  0.00  0.00    +0.000 Cl
ENDROOT
BRANCH   5   8
ATOM      8  C   UNL     1      48.540   5.088  18.226  0.00  0.00    +0.000 A 
ATOM      9  C   UNL     1      49.848   5.010  18.739  0.00  0.00    +0.000 A 
ATOM     10  F   UNL     1      50.815   4.385  18.049  0.00  0.00    +0.000 F 
ATOM     11  C   UNL     1      50.204   5.576  19.967  0.00  0.00    +0.000 A 
ATOM     12  C   UNL     1      49.260   6.265  20.720  0.00  0.00    +0.000 A 
ATOM     13  C   UNL     1      47.943   6.292  20.285  0.00  0.00    +0.000 A 
ATOM     14  C   UNL     1      47.592   5.666  19.086  0.00  0.00    +0.000 A 
ATOM     15  F   UNL     1      46.283   5.610  18.790  0.00  0.00    +0.000 F 
ENDBRANCH   5   8
BRANCH   1  16
ATOM     16  C   UNL     1      47.177   5.730  13.326  0.00  0.00    +0.000 C 
BRANCH  16  17
ATOM     17  O   UNL     1      45.769   5.637  13.137  0.00  0.00    +0.000 OA
BRANCH  17  21
ATOM     18  C   UNL     1      44.651   3.949   9.617  0.00  0.00    +0.000 A 
ATOM     19  C   UNL     1      45.399   5.118   9.631  0.00  0.00    +0.000 A 
ATOM     20  N   UNL     1      45.804   5.716  10.781  0.00  0.00    +0.000 NA
ATOM     21  C   UNL     1      45.426   5.086  11.917  0.00  0.00    +0.000 A 
ATOM     22  C   UNL     1      44.681   3.917  11.897  0.00  0.00    +0.000 A 
ATOM     23  N   UNL     1      44.278   3.321  10.746  0.00  0.00    +0.000 NA
BRANCH  18  24
ATOM     24  O   UNL     1      44.235   3.357   8.457  0.00  0.00    +0.000 OA
ATOM     25  H   UNL     1      43.311   3.601   8.302  0.00  0.00    +0.000 HD
ENDBRANCH  18  24
ENDBRANCH  17  21
ENDBRANCH  16  17
ENDBRANCH   1  16
TORSDOF 5
ENDMDL
