MODEL 1
REMARK VINA RESULT:    -8.268      0.000      0.000
REMARK INTER + INTRA:         -11.166
REMARK INTER:                 -10.685
REMARK INTRA:                  -0.482
REMARK UNBOUND:                -0.482
REMARK  Name = 
REMARK  5 active torsions:
REMARK  status: ('A' for Active; 'I' for Inactive)
REMARK    1  A    between atoms: C_2  and  C_4
REMARK    2  A    between atoms: C_8  and  O_9
REMARK    3  A    between atoms: O_9  and  C_10
REMARK    4  A    between atoms: C_10  and  C_11
REMARK    5  A    between atoms: C_13  and  C_14
REMARK                            x       y       z     vdW  Elec       q    Type
REMARK                         _______ _______ _______ _____ _____    ______ ____
ROOT
ATOM      1  C   UNL     1      44.969   6.407  11.086  0.00  0.00    +0.000 C 
ENDROOT
BRANCH   1   2
ATOM      2  C   UNL     1      44.701   4.964  10.734  0.00  0.00    +0.000 A 
ATOM      3  N   UNL     1      45.376   4.480   9.656  0.00  0.00    +0.000 NA
ATOM      4  C   UNL     1      45.134   3.208   9.275  0.00  0.00    +0.000 A 
ATOM      5  N   UNL     1      44.255   2.396   9.892  0.00  0.00    +0.000 NA
ATOM      6  C   UNL     1      43.611   2.909  10.961  0.00  0.00    +0.000 A 
ATOM      7  C   UNL     1      43.798   4.188  11.438  0.00  0.00    +0.000 A 
ATOM      8 CL   UNL     1      42.909   4.734  12.801  0.00  0.00    +0.000 Cl
BRANCH   4   9
ATOM      9  C   UNL     1      45.878   2.682   8.115  0.00  0.00    +0.000 A 
ATOM     10  C   UNL     1      46.378   1.364   8.099  0.00  0.00    +0.000 A 
ATOM     11  C   UNL     1      47.067   0.853   6.996  0.00  0.00    +0.000 A 
ATOM     12  C   UNL     1      47.276   1.653   5.876  0.00  0.00    +0.000 A 
ATOM     13  C   UNL     1      46.804   2.961   5.865  0.00  0.00    +0.000 A 
ATOM     14  C   UNL     1      46.115   3.468   6.970  0.00  0.00    +0.000 A 
ENDBRANCH   4   9
ENDBRANCH   1   2
BRANCH   1  15
ATOM     15  O   UNL     1      46.366   6.691  11.008  0.00  0.00    +0.000 OA
BRANCH  15  20
ATOM     16  C   UNL     1      47.497   5.522  14.259  0.00  0.00    +0.000 A 
ATOM     17  C   UNL     1      48.301   6.576  14.704  0.00  0.00    +0.000 A 
ATOM     18  C   UNL     1      48.486   7.694  13.894  0.00  0.00    +0.000 A 
ATOM     19  C   UNL     1      47.864   7.766  12.645  0.00  0.00    +0.000 A 
ATOM     20  C   UNL     1      47.038   6.728  12.203  0.00  0.00    +0.000 A 
ATOM     21  C   UNL     1      46.847   5.613  13.021  0.00  0.00    +0.000 A 
BRANCH  16  23
ATOM     22  N   UNL     1      47.052   4.545  16.440  0.00  0.00    +0.000 N 
ATOM     23  C   UNL     1      47.355   4.322  15.124  0.00  0.00    +0.000 C 
ATOM     24  O   UNL     1      47.451   3.189  14.677  0.00  0.00    +0.000 OA
ATOM     25  H   UNL     1      46.841   3.728  16.999  0.00  0.00    +0.000 HD
ATOM     26  H   UNL     1      46.727   5.440  16.777  0.00  0.00    +0.000 HD
ENDBRANCH  16  23
ENDBRANCH  15  20
ENDBRANCH   1  15
TORSDOF 5
ENDMDL
MODEL 2
REMARK VINA RESULT:    -7.676      2.248      3.126
REMARK INTER + INTRA:         -10.402
REMARK INTER:                  -9.827
REMARK INTRA:                  -0.575
REMARK UNBOUND:                -0.482
REMARK  Name = 
REMARK  5 active torsions:
REMARK  status: ('A' for Active; 'I' for Inactive)
REMARK    1  A    between atoms: C_2  and  C_4
REMARK    2  A    between atoms: C_8  and  O_9
REMARK    3  A    between atoms: O_9  and  C_10
REMARK    4  A    between atoms: C_10  and  C_11
REMARK    5  A    between atoms: C_13  and  C_14
REMARK                            x       y       z     vdW  Elec       q    Type
REMARK                         _______ _______ _______ _____ _____    ______ ____
ROOT
ATOM      1  C   UNL     1      44.951   6.489  11.058  0.00  0.00    +0.000 C 
ENDROOT
BRANCH   1   2
ATOM      2  C   UNL     1      44.693   5.036  10.742  0.00  0.00    +0.000 A 
ATOM      3  N   UNL     1      45.357   4.535   9.665  0.00  0.00    +0.000 NA
ATOM      4  C   UNL     1      45.123   3.252   9.316  0.00  0.00    +0.000 A 
ATOM      5  N   UNL     1      44.263   2.444   9.966  0.00  0.00    +0.000 NA
ATOM      6  C   UNL     1      43.631   2.974  11.034  0.00  0.00    +0.000 A 
ATOM      7  C   UNL     1      43.811   4.266  11.479  0.00  0.00    +0.000 A 
ATOM      8 CL   UNL     1      42.937   4.833  12.843  0.00  0.00    +0.000 Cl
BRANCH   4   9
ATOM      9  C   UNL     1      45.855   2.707   8.156  0.00  0.00    +0.000 A 
ATOM     10  C   UNL     1      46.109   3.493   7.014  0.00  0.00    +0.000 A 
ATOM     11  C   UNL     1      46.819   2.989   5.920  0.00  0.00    +0.000 A 
ATOM     12  C   UNL     1      47.290   1.680   5.941  0.00  0.00    +0.000 A 
ATOM     13  C   UNL     1      47.046   0.876   7.050  0.00  0.00    +0.000 A 
ATOM     14  C   UNL     1      46.337   1.384   8.142  0.00  0.00    +0.000 A 
ENDBRANCH   4   9
ENDBRANCH   1   2
BRANCH   1  15
ATOM     15  O   UNL     1      45.949   6.613  12.072  0.00  0.00    +0.000 OA
BRANCH  15  20
ATOM     16  C   UNL     1      48.944   8.652  11.770  0.00  0.00    +0.000 A 
ATOM     17  C   UNL     1      48.451   9.950  11.933  0.00  0.00    +0.000 A 
ATOM     18  C   UNL     1      47.086  10.153  12.131  0.00  0.00    +0.000 A 
ATOM     19  C   UNL     1      46.215   9.061  12.172  0.00  0.00    +0.000 A 
ATOM     20  C   UNL     1      46.702   7.759  12.035  0.00  0.00    +0.000 A 
ATOM     21  C   UNL     1      48.071   7.559  11.847  0.00  0.00    +0.000 A 
BRANCH  16  23
ATOM     22  N   UNL     1      50.857   7.181  11.481  0.00  0.00    +0.000 N 
ATOM     23  C   UNL     1      50.396   8.469  11.515  0.00  0.00    +0.000 C 
ATOM     24  O   UNL     1      51.136   9.415  11.294  0.00  0.00    +0.000 OA
ATOM     25  H   UNL     1      51.819   7.054  11.192  0.00  0.00    +0.000 HD
ATOM     26  H   UNL     1      50.238   6.386  11.412  0.00  0.00    +0.000 HD
ENDBRANCH  16  23
ENDBRANCH  15  20
ENDBRANCH   1  15
TORSDOF 5
ENDMDL
MODEL 3
REMARK VINA RESULT:    -7.646      2.436      6.908
REMARK INTER + INTRA:         -10.362
REMARK INTER:                  -9.715
REMARK INTRA:                  -0.648
REMARK UNBOUND:                -0.482
REMARK  Name = 
REMARK  5 active torsions:
REMARK  status: ('A' for Active; 'I' for Inactive)
REMARK    1  A    between atoms: C_2  and  C_4
REMARK    2  A    between atoms: C_8  and  O_9
REMARK    3  A    between atoms: O_9  and  C_10
REMARK    4  A    between atoms: C_10  and  C_11
REMARK    5  A    between atoms: C_13  and  C_14
REMARK                            x       y       z     vdW  Elec       q    Type
REMARK                         _______ _______ _______ _____ _____    ______ ____
ROOT
ATOM      1  C   UNL     1      43.841   4.911  10.333  0.00  0.00    +0.000 C 
ENDROOT
BRANCH   1   2
ATOM      2  C   UNL     1      44.838   5.050  11.458  0.00  0.00    +0.000 A 
ATOM      3  N   UNL     1      45.728   6.072  11.340  0.00  0.00    +0.000 NA
ATOM      4  C   UNL     1      46.669   6.208  12.299  0.00  0.00    +0.000 A 
ATOM      5  N   UNL     1      46.782   5.384  13.358  0.00  0.00    +0.000 NA
ATOM      6  C   UNL     1      45.875   4.388  13.445  0.00  0.00    +0.000 A 
ATOM      7  C   UNL     1      44.870   4.173  12.527  0.00  0.00    +0.000 A 
ATOM      8 CL   UNL     1      43.783   2.862  12.736  0.00  0.00    +0.000 Cl
BRANCH   4   9
ATOM      9  C   UNL     1      47.624   7.325  12.176  0.00  0.00    +0.000 A 
ATOM     10  C   UNL     1      47.184   8.652  11.997  0.00  0.00    +0.000 A 
ATOM     11  C   UNL     1      48.084   9.717  11.899  0.00  0.00    +0.000 A 
ATOM     12  C   UNL     1      49.453   9.479  11.975  0.00  0.00    +0.000 A 
ATOM     13  C   UNL     1      49.919   8.179  12.141  0.00  0.00    +0.000 A 
ATOM     14  C   UNL     1      49.016   7.116  12.239  0.00  0.00    +0.000 A 
ENDBRANCH   4   9
ENDBRANCH   1   2
BRANCH   1  15
ATOM     15  O   UNL     1      44.508   4.892   9.070  0.00  0.00    +0.000 OA
BRANCH  15  20
ATOM     16  C   UNL     1      46.567   2.588   7.155  0.00  0.00    +0.000 A 
ATOM     17  C   UNL     1      46.273   1.352   7.740  0.00  0.00    +0.000 A 
ATOM     18  C   UNL     1      45.382   1.287   8.809  0.00  0.00    +0.000 A 
ATOM     19  C   UNL     1      44.779   2.452   9.290  0.00  0.00    +0.000 A 
ATOM     20  C   UNL     1      45.047   3.688   8.696  0.00  0.00    +0.000 A 
ATOM     21  C   UNL     1      45.934   3.748   7.619  0.00  0.00    +0.000 A 
BRANCH  16  23
ATOM     22  N   UNL     1      48.875   2.535   6.397  0.00  0.00    +0.000 N 
ATOM     23  C   UNL     1      47.556   2.633   6.047  0.00  0.00    +0.000 C 
ATOM     24  O   UNL     1      47.212   2.701   4.877  0.00  0.00    +0.000 OA
ATOM     25  H   UNL     1      49.538   2.448   5.637  0.00  0.00    +0.000 HD
ATOM     26  H   UNL     1      49.172   2.232   7.313  0.00  0.00    +0.000 HD
ENDBRANCH  16  23
ENDBRANCH  15  20
ENDBRANCH   1  15
TORSDOF 5
ENDMDL
MODEL 4
REMARK VINA RESULT:    -7.644      2.234      3.403
REMARK INTER + INTRA:         -10.360
REMARK INTER:                  -9.779
REMARK INTRA:                  -0.582
REMARK UNBOUND:                -0.482
REMARK  Name = 
REMARK  5 active torsions:
REMARK  status: ('A' for Active; 'I' for Inactive)
REMARK    1  A    between atoms: C_2  and  C_4
REMARK    2  A    between atoms: C_8  and  O_9
REMARK    3  A    between atoms: O_9  and  C_10
REMARK    4  A    between atoms: C_10  and  C_11
REMARK    5  A    between atoms: C_13  and  C_14
REMARK                            x       y       z     vdW  Elec       q    Type
REMARK                         _______ _______ _______ _____ _____    ______ ____
ROOT
ATOM      1  C   UNL     1      45.094   6.378  11.661  0.00  0.00    +0.000 C 
ENDROOT
BRANCH   1   2
ATOM      2  C   UNL     1      44.705   4.997  11.191  0.00  0.00    +0.000 A 
ATOM      3  N   UNL     1      45.358   4.538  10.089  0.00  0.00    +0.000 NA
ATOM      4  C   UNL     1      45.012   3.326   9.605  0.00  0.00    +0.000 A 
ATOM      5  N   UNL     1      44.049   2.553  10.142  0.00  0.00    +0.000 NA
ATOM      6  C   UNL     1      43.430   3.039  11.239  0.00  0.00    +0.000 A 
ATOM      7  C   UNL     1      43.720   4.255  11.818  0.00  0.00    +0.000 A 
ATOM      8 CL   UNL     1      42.853   4.774  13.205  0.00  0.00    +0.000 Cl
BRANCH   4   9
ATOM      9  C   UNL     1      45.732   2.825   8.419  0.00  0.00    +0.000 A 
ATOM     10  C   UNL     1      46.180   1.491   8.341  0.00  0.00    +0.000 A 
ATOM     11  C   UNL     1      46.845   1.005   7.212  0.00  0.00    +0.000 A 
ATOM     12  C   UNL     1      47.082   1.847   6.129  0.00  0.00    +0.000 A 
ATOM     13  C   UNL     1      46.661   3.172   6.180  0.00  0.00    +0.000 A 
ATOM     14  C   UNL     1      45.996   3.654   7.310  0.00  0.00    +0.000 A 
ENDBRANCH   4   9
ENDBRANCH   1   2
BRANCH   1  15
ATOM     15  O   UNL     1      46.352   6.342  12.336  0.00  0.00    +0.000 OA
BRANCH  15  20
ATOM     16  C   UNL     1      47.290   9.829  11.917  0.00  0.00    +0.000 A 
ATOM     17  C   UNL     1      48.665   9.752  11.675  0.00  0.00    +0.000 A 
ATOM     18  C   UNL     1      49.298   8.511  11.668  0.00  0.00    +0.000 A 
ATOM     19  C   UNL     1      48.560   7.347  11.897  0.00  0.00    +0.000 A 
ATOM     20  C   UNL     1      47.182   7.412  12.115  0.00  0.00    +0.000 A 
ATOM     21  C   UNL     1      46.548   8.657  12.111  0.00  0.00    +0.000 A 
BRANCH  16  23
ATOM     22  N   UNL     1      45.294  11.197  12.146  0.00  0.00    +0.000 N 
ATOM     23  C   UNL     1      46.650  11.169  11.964  0.00  0.00    +0.000 C 
ATOM     24  O   UNL     1      47.303  12.199  11.896  0.00  0.00    +0.000 OA
ATOM     25  H   UNL     1      44.877  12.108  12.295  0.00  0.00    +0.000 HD
ATOM     26  H   UNL     1      44.772  10.388  12.449  0.00  0.00    +0.000 HD
ENDBRANCH  16  23
ENDBRANCH  15  20
ENDBRANCH   1  15
TORSDOF 5
ENDMDL
MODEL 5
REMARK VINA RESULT:    -7.484      1.528      2.168
REMARK INTER + INTRA:         -10.153
REMARK INTER:                  -9.619
REMARK INTRA:                  -0.534
REMARK UNBOUND:                -0.482
REMARK  Name = 
REMARK  5 active torsions:
REMARK  status: ('A' for Active; 'I' for Inactive)
REMARK    1  A    between atoms: C_2  and  C_4
REMARK    2  A    between atoms: C_8  and  O_9
REMARK    3  A    between atoms: O_9  and  C_10
REMARK    4  A    between atoms: C_10  and  C_11
REMARK    5  A    between atoms: C_13  and  C_14
REMARK                            x       y       z     vdW  Elec       q    Type
REMARK                         _______ _______ _______ _____ _____    ______ ____
ROOT
ATOM      1  C   UNL     1      45.770   4.182  13.146  0.00  0.00    +0.000 C 
ENDROOT
BRANCH   1   2
ATOM      2  C   UNL     1      45.026   4.157  11.833  0.00  0.00    +0.000 A 
ATOM      3  N   UNL     1      45.689   3.598  10.785  0.00  0.00    +0.000 NA
ATOM      4  C   UNL     1      45.082   3.595   9.579  0.00  0.00    +0.000 A 
ATOM      5  N   UNL     1      43.864   4.123   9.353  0.00  0.00    +0.000 NA
ATOM      6  C   UNL     1      43.234   4.660  10.419  0.00  0.00    +0.000 A 
ATOM      7  C   UNL     1      43.761   4.700  11.691  0.00  0.00    +0.000 A 
ATOM      8 CL   UNL     1      42.871   5.424  12.967  0.00  0.00    +0.000 Cl
BRANCH   4   9
ATOM      9  C   UNL     1      45.798   2.975   8.447  0.00  0.00    +0.000 A 
ATOM     10  C   UNL     1      46.246   3.744   7.354  0.00  0.00    +0.000 A 
ATOM     11  C   UNL     1      46.942   3.166   6.288  0.00  0.00    +0.000 A 
ATOM     12  C   UNL     1      47.205   1.799   6.289  0.00  0.00    +0.000 A 
ATOM     13  C   UNL     1      46.767   1.013   7.349  0.00  0.00    +0.000 A 
ATOM     14  C   UNL     1      46.072   1.594   8.414  0.00  0.00    +0.000 A 
ENDBRANCH   4   9
ENDBRANCH   1   2
BRANCH   1  15
ATOM     15  O   UNL     1      46.774   5.197  13.135  0.00  0.00    +0.000 OA
BRANCH  15  20
ATOM     16  C   UNL     1      47.738   4.589  16.588  0.00  0.00    +0.000 A 
ATOM     17  C   UNL     1      48.621   5.641  16.851  0.00  0.00    +0.000 A 
ATOM     18  C   UNL     1      48.916   6.564  15.850  0.00  0.00    +0.000 A 
ATOM     19  C   UNL     1      48.326   6.443  14.589  0.00  0.00    +0.000 A 
ATOM     20  C   UNL     1      47.424   5.410  14.324  0.00  0.00    +0.000 A 
ATOM     21  C   UNL     1      47.123   4.492  15.332  0.00  0.00    +0.000 A 
BRANCH  16  23
ATOM     22  N   UNL     1      48.230   3.705  18.797  0.00  0.00    +0.000 N 
ATOM     23  C   UNL     1      47.478   3.594  17.659  0.00  0.00    +0.000 C 
ATOM     24  O   UNL     1      46.603   2.748  17.556  0.00  0.00    +0.000 OA
ATOM     25  H   UNL     1      47.972   3.103  19.569  0.00  0.00    +0.000 HD
ATOM     26  H   UNL     1      48.775   4.529  19.008  0.00  0.00    +0.000 HD
ENDBRANCH  16  23
ENDBRANCH  15  20
ENDBRANCH   1  15
TORSDOF 5
ENDMDL
MODEL 6
REMARK VINA RESULT:    -7.270      1.506      2.581
REMARK INTER + INTRA:          -9.876
REMARK INTER:                  -9.239
REMARK INTRA:                  -0.637
REMARK UNBOUND:                -0.482
REMARK  Name = 
REMARK  5 active torsions:
REMARK  status: ('A' for Active; 'I' for Inactive)
REMARK    1  A    between atoms: C_2  and  C_4
REMARK    2  A    between atoms: C_8  and  O_9
REMARK    3  A    between atoms: O_9  and  C_10
REMARK    4  A    between atoms: C_10  and  C_11
REMARK    5  A    between atoms: C_13  and  C_14
REMARK                            x       y       z     vdW  Elec       q    Type
REMARK                         _______ _______ _______ _____ _____    ______ ____
ROOT
ATOM      1  C   UNL     1      44.808   3.196  12.800  0.00  0.00    +0.000 C 
ENDROOT
BRANCH   1   2
ATOM      2  C   UNL     1      44.539   3.614  11.375  0.00  0.00    +0.000 A 
ATOM      3  N   UNL     1      45.289   2.996  10.423  0.00  0.00    +0.000 NA
ATOM      4  C   UNL     1      45.116   3.370   9.137  0.00  0.00    +0.000 A 
ATOM      5  N   UNL     1      44.253   4.326   8.745  0.00  0.00    +0.000 NA
ATOM      6  C   UNL     1      43.521   4.910   9.718  0.00  0.00    +0.000 A 
ATOM      7  C   UNL     1      43.613   4.590  11.055  0.00  0.00    +0.000 A 
ATOM      8 CL   UNL     1      42.638   5.413  12.203  0.00  0.00    +0.000 Cl
BRANCH   4   9
ATOM      9  C   UNL     1      45.921   2.688   8.105  0.00  0.00    +0.000 A 
ATOM     10  C   UNL     1      46.267   1.327   8.225  0.00  0.00    +0.000 A 
ATOM     11  C   UNL     1      47.013   0.670   7.242  0.00  0.00    +0.000 A 
ATOM     12  C   UNL     1      47.436   1.364   6.111  0.00  0.00    +0.000 A 
ATOM     13  C   UNL     1      47.118   2.711   5.969  0.00  0.00    +0.000 A 
ATOM     14  C   UNL     1      46.372   3.364   6.954  0.00  0.00    +0.000 A 
ENDBRANCH   4   9
ENDBRANCH   1   2
BRANCH   1  15
ATOM     15  O   UNL     1      46.210   3.035  13.019  0.00  0.00    +0.000 OA
BRANCH  15  20
ATOM     16  C   UNL     1      47.501   6.299  13.969  0.00  0.00    +0.000 A 
ATOM     17  C   UNL     1      47.993   6.073  15.258  0.00  0.00    +0.000 A 
ATOM     18  C   UNL     1      47.876   4.809  15.832  0.00  0.00    +0.000 A 
ATOM     19  C   UNL     1      47.276   3.768  15.118  0.00  0.00    +0.000 A 
ATOM     20  C   UNL     1      46.803   3.978  13.820  0.00  0.00    +0.000 A 
ATOM     21  C   UNL     1      46.930   5.244  13.244  0.00  0.00    +0.000 A 
BRANCH  16  23
ATOM     22  N   UNL     1      46.859   8.642  14.016  0.00  0.00    +0.000 N 
ATOM     23  C   UNL     1      47.597   7.668  13.401  0.00  0.00    +0.000 C 
ATOM     24  O   UNL     1      48.336   7.928  12.464  0.00  0.00    +0.000 OA
ATOM     25  H   UNL     1      47.015   9.593  13.703  0.00  0.00    +0.000 HD
ATOM     26  H   UNL     1      46.442   8.512  14.926  0.00  0.00    +0.000 HD
ENDBRANCH  16  23
ENDBRANCH  15  20
ENDBRANCH   1  15
TORSDOF 5
ENDMDL
MODEL 7
REMARK VINA RESULT:    -6.938      3.985      9.302
REMARK INTER + INTRA:          -9.448
REMARK INTER:                  -8.885
REMARK INTRA:                  -0.563
REMARK UNBOUND:                -0.482
REMARK  Name = 
REMARK  5 active torsions:
REMARK  status: ('A' for Active; 'I' for Inactive)
REMARK    1  A    between atoms: C_2  and  C_4
REMARK    2  A    between atoms: C_8  and  O_9
REMARK    3  A    between atoms: O_9  and  C_10
REMARK    4  A    between atoms: C_10  and  C_11
REMARK    5  A    between atoms: C_13  and  C_14
REMARK                            x       y       z     vdW  Elec       q    Type
REMARK                         _______ _______ _______ _____ _____    ______ ____
ROOT
ATOM      1  C   UNL     1      46.978   4.235  15.640  0.00  0.00    +0.000 C 
ENDROOT
BRANCH   1   2
ATOM      2  C   UNL     1      47.714   4.363  16.951  0.00  0.00    +0.000 A 
ATOM      3  N   UNL     1      47.415   5.461  17.696  0.00  0.00    +0.000 NA
ATOM      4  C   UNL     1      48.082   5.643  18.856  0.00  0.00    +0.000 A 
ATOM      5  N   UNL     1      49.034   4.805  19.310  0.00  0.00    +0.000 NA
ATOM      6  C   UNL     1      49.297   3.723  18.548  0.00  0.00    +0.000 A 
ATOM      7  C   UNL     1      48.662   3.441  17.358  0.00  0.00    +0.000 A 
ATOM      8 CL   UNL     1      49.092   2.039  16.467  0.00  0.00    +0.000 Cl
BRANCH   4   9
ATOM      9  C   UNL     1      47.746   6.827  19.669  0.00  0.00    +0.000 A 
ATOM     10  C   UNL     1      47.508   8.082  19.073  0.00  0.00    +0.000 A 
ATOM     11  C   UNL     1      47.170   9.204  19.836  0.00  0.00    +0.000 A 
ATOM     12  C   UNL     1      47.064   9.097  21.220  0.00  0.00    +0.000 A 
ATOM     13  C   UNL     1      47.302   7.874  21.837  0.00  0.00    +0.000 A 
ATOM     14  C   UNL     1      47.640   6.754  21.071  0.00  0.00    +0.000 A 
ENDBRANCH   4   9
ENDBRANCH   1   2
BRANCH   1  15
ATOM     15  O   UNL     1      47.694   4.896  14.596  0.00  0.00    +0.000 OA
BRANCH  15  20
ATOM     16  C   UNL     1      45.125   4.437  12.064  0.00  0.00    +0.000 A 
ATOM     17  C   UNL     1      45.383   5.481  11.170  0.00  0.00    +0.000 A 
ATOM     18  C   UNL     1      46.426   6.370  11.426  0.00  0.00    +0.000 A 
ATOM     19  C   UNL     1      47.215   6.214  12.568  0.00  0.00    +0.000 A 
ATOM     20  C   UNL     1      46.981   5.159  13.454  0.00  0.00    +0.000 A 
ATOM     21  C   UNL     1      45.941   4.264  13.190  0.00  0.00    +0.000 A 
BRANCH  16  23
ATOM     22  N   UNL     1      43.865   2.426  12.586  0.00  0.00    +0.000 N 
ATOM     23  C   UNL     1      43.979   3.533  11.789  0.00  0.00    +0.000 C 
ATOM     24  O   UNL     1      43.147   3.787  10.932  0.00  0.00    +0.000 OA
ATOM     25  H   UNL     1      43.022   1.876  12.476  0.00  0.00    +0.000 HD
ATOM     26  H   UNL     1      44.382   2.323  13.447  0.00  0.00    +0.000 HD
ENDBRANCH  16  23
ENDBRANCH  15  20
ENDBRANCH   1  15
TORSDOF 5
ENDMDL
MODEL 8
REMARK VINA RESULT:    -6.919      2.680      7.617
REMARK INTER + INTRA:          -9.423
REMARK INTER:                  -8.740
REMARK INTRA:                  -0.683
REMARK UNBOUND:                -0.482
REMARK  Name = 
REMARK  5 active torsions:
REMARK  status: ('A' for Active; 'I' for Inactive)
REMARK    1  A    between atoms: C_2  and  C_4
REMARK    2  A    between atoms: C_8  and  O_9
REMARK    3  A    between atoms: O_9  and  C_10
REMARK    4  A    between atoms: C_10  and  C_11
REMARK    5  A    between atoms: C_13  and  C_14
REMARK                            x       y       z     vdW  Elec       q    Type
REMARK                         _______ _______ _______ _____ _____    ______ ____
ROOT
ATOM      1  C   UNL     1      46.960   6.530  11.898  0.00  0.00    +0.000 C 
ENDROOT
BRANCH   1   2
ATOM      2  C   UNL     1      47.883   6.781  13.065  0.00  0.00    +0.000 A 
ATOM      3  N   UNL     1      47.777   5.910  14.105  0.00  0.00    +0.000 NA
ATOM      4  C   UNL     1      48.551   6.120  15.191  0.00  0.00    +0.000 A 
ATOM      5  N   UNL     1      49.412   7.149  15.309  0.00  0.00    +0.000 NA
ATOM      6  C   UNL     1      49.496   7.986  14.253  0.00  0.00    +0.000 A 
ATOM      7  C   UNL     1      48.761   7.850  13.095  0.00  0.00    +0.000 A 
ATOM      8 CL   UNL     1      48.943   8.988  11.824  0.00  0.00    +0.000 Cl
BRANCH   4   9
ATOM      9  C   UNL     1      48.443   5.167  16.312  0.00  0.00    +0.000 A 
ATOM     10  C   UNL     1      47.413   4.207  16.362  0.00  0.00    +0.000 A 
ATOM     11  C   UNL     1      47.316   3.287  17.411  0.00  0.00    +0.000 A 
ATOM     12  C   UNL     1      48.252   3.309  18.441  0.00  0.00    +0.000 A 
ATOM     13  C   UNL     1      49.275   4.250  18.425  0.00  0.00    +0.000 A 
ATOM     14  C   UNL     1      49.369   5.168  17.374  0.00  0.00    +0.000 A 
ENDBRANCH   4   9
ENDBRANCH   1   2
BRANCH   1  15
ATOM     15  O   UNL     1      45.599   6.516  12.330  0.00  0.00    +0.000 OA
BRANCH  15  20
ATOM     16  C   UNL     1      44.497   3.585  10.482  0.00  0.00    +0.000 A 
ATOM     17  C   UNL     1      43.598   2.983  11.367  0.00  0.00    +0.000 A 
ATOM     18  C   UNL     1      43.366   3.556  12.616  0.00  0.00    +0.000 A 
ATOM     19  C   UNL     1      44.025   4.733  12.980  0.00  0.00    +0.000 A 
ATOM     20  C   UNL     1      44.907   5.356  12.092  0.00  0.00    +0.000 A 
ATOM     21  C   UNL     1      45.129   4.784  10.838  0.00  0.00    +0.000 A 
BRANCH  16  23
ATOM     22  N   UNL     1      44.271   3.555   8.063  0.00  0.00    +0.000 N 
ATOM     23  C   UNL     1      44.759   2.927   9.176  0.00  0.00    +0.000 C 
ATOM     24  O   UNL     1      45.420   1.904   9.090  0.00  0.00    +0.000 OA
ATOM     25  H   UNL     1      44.550   3.170   7.169  0.00  0.00    +0.000 HD
ATOM     26  H   UNL     1      43.945   4.511   8.079  0.00  0.00    +0.000 HD
ENDBRANCH  16  23
ENDBRANCH  15  20
ENDBRANCH   1  15
TORSDOF 5
ENDMDL
MODEL 9
REMARK VINA RESULT:    -6.905      3.082      4.904
REMARK INTER + INTRA:          -9.405
REMARK INTER:                  -9.084
REMARK INTRA:                  -0.322
REMARK UNBOUND:                -0.482
REMARK  Name = 
REMARK  5 active torsions:
REMARK  status: ('A' for Active; 'I' for Inactive)
REMARK    1  A    between atoms: C_2  and  C_4
REMARK    2  A    between atoms: C_8  and  O_9
REMARK    3  A    between atoms: O_9  and  C_10
REMARK    4  A    between atoms: C_10  and  C_11
REMARK    5  A    between atoms: C_13  and  C_14
REMARK                            x       y       z     vdW  Elec       q    Type
REMARK                         _______ _______ _______ _____ _____    ______ ____
ROOT
ATOM      1  C   UNL     1      45.364   6.591  11.596  0.00  0.00    +0.000 C 
ENDROOT
BRANCH   1   2
ATOM      2  C   UNL     1      44.846   5.255  11.122  0.00  0.00    +0.000 A 
ATOM      3  N   UNL     1      45.486   4.715  10.049  0.00  0.00    +0.000 NA
ATOM      4  C   UNL     1      45.029   3.543   9.561  0.00  0.00    +0.000 A 
ATOM      5  N   UNL     1      43.969   2.883  10.067  0.00  0.00    +0.000 NA
ATOM      6  C   UNL     1      43.366   3.445  11.136  0.00  0.00    +0.000 A 
ATOM      7  C   UNL     1      43.764   4.630  11.716  0.00  0.00    +0.000 A 
ATOM      8 CL   UNL     1      42.908   5.254  13.066  0.00  0.00    +0.000 Cl
BRANCH   4   9
ATOM      9  C   UNL     1      45.733   2.954   8.406  0.00  0.00    +0.000 A 
ATOM     10  C   UNL     1      46.046   3.723   7.267  0.00  0.00    +0.000 A 
ATOM     11  C   UNL     1      46.731   3.176   6.178  0.00  0.00    +0.000 A 
ATOM     12  C   UNL     1      47.118   1.839   6.201  0.00  0.00    +0.000 A 
ATOM     13  C   UNL     1      46.815   1.052   7.307  0.00  0.00    +0.000 A 
ATOM     14  C   UNL     1      46.131   1.602   8.394  0.00  0.00    +0.000 A 
ENDBRANCH   4   9
ENDBRANCH   1   2
BRANCH   1  15
ATOM     15  O   UNL     1      44.301   7.541  11.675  0.00  0.00    +0.000 OA
BRANCH  15  20
ATOM     16  C   UNL     1      44.180  10.864  10.204  0.00  0.00    +0.000 A 
ATOM     17  C   UNL     1      45.198  11.540  10.884  0.00  0.00    +0.000 A 
ATOM     18  C   UNL     1      45.931  10.878  11.868  0.00  0.00    +0.000 A 
ATOM     19  C   UNL     1      45.653   9.543  12.169  0.00  0.00    +0.000 A 
ATOM     20  C   UNL     1      44.654   8.852  11.478  0.00  0.00    +0.000 A 
ATOM     21  C   UNL     1      43.928   9.515  10.486  0.00  0.00    +0.000 A 
BRANCH  16  23
ATOM     22  N   UNL     1      43.159  10.973   8.002  0.00  0.00    +0.000 N 
ATOM     23  C   UNL     1      43.385  11.608   9.194  0.00  0.00    +0.000 C 
ATOM     24  O   UNL     1      42.911  12.709   9.427  0.00  0.00    +0.000 OA
ATOM     25  H   UNL     1      42.521  11.431   7.362  0.00  0.00    +0.000 HD
ATOM     26  H   UNL     1      43.321   9.985   7.875  0.00  0.00    +0.000 HD
ENDBRANCH  16  23
ENDBRANCH  15  20
ENDBRANCH   1  15
TORSDOF 5
ENDMDL
