MODEL 1
REMARK VINA RESULT:    -8.581      0.000      0.000
REMARK INTER + INTRA:         -11.356
REMARK INTER:                 -11.090
REMARK INTRA:                  -0.266
REMARK UNBOUND:                -0.266
REMARK  Name = 
REMARK  5 active torsions:
REMARK  status: ('A' for Active; 'I' for Inactive)
REMARK    1  A    between atoms: C_2  and  C_4
REMARK    2  A    between atoms: C_8  and  O_9
REMARK    3  A    between atoms: O_9  and  C_10
REMARK    4  A    between atoms: C_10  and  C_11
REMARK    5  A    between atoms: C_16  and  C_17
REMARK                            x       y       z     vdW  Elec       q    Type
REMARK                         _______ _______ _______ _____ _____    ______ ____
ROOT
ATOM      1  C   UNL     1      44.761   4.478  11.885  0.00  0.00    +0.000 A 
ATOM      2  C   UNL     1      45.425   3.576  12.723  0.00  0.00    +0.000 A 
ATOM      3  C   UNL     1      46.558   3.983  13.413  0.00  0.00    +0.000 A 
ATOM      4  F   UNL     1      47.204   3.106  14.191  0.00  0.00    +0.000 F 
ATOM      5  C   UNL     1      47.055   5.275  13.282  0.00  0.00    +0.000 A 
ATOM      6  C   UNL     1      46.417   6.201  12.446  0.00  0.00    +0.000 A 
ATOM      7  C   UNL     1      45.249   5.792  11.774  0.00  0.00    +0.000 A 
ENDROOT
BRANCH   6   8
ATOM      8  C   UNL     1      46.984   7.588  12.157  0.00  0.00    +0.000 C 
ATOM      9  C   UNL     1      48.525   7.547  12.135  0.00  0.00    +0.000 C 
ATOM     10  C   UNL     1      49.123   7.587  13.539  0.00  0.00    +0.000 C 
ATOM     11  C   UNL     1      48.557   8.739  14.364  0.00  0.00    +0.000 C 
ATOM     12  N   UNL     1      47.098   8.723  14.415  0.00  0.00    +0.000 NA
ATOM     13  C   UNL     1      46.500   8.733  13.076  0.00  0.00    +0.000 C 
ATOM     14  H   UNL     1      46.761   9.525  14.946  0.00  0.00    +0.000 HD
ENDBRANCH   6   8
BRANCH   1  15
ATOM     15  C   UNL     1      43.554   4.040  11.097  0.00  0.00    +0.000 C 
BRANCH  15  16
ATOM     16  O   UNL     1      43.896   2.890  10.329  0.00  0.00    +0.000 OA
BRANCH  16  21
ATOM     17  C   UNL     1      46.348   1.959   7.825  0.00  0.00    +0.000 A 
ATOM     18  C   UNL     1      46.689   3.189   7.254  0.00  0.00    +0.000 A 
ATOM     19  C   UNL     1      46.075   4.356   7.702  0.00  0.00    +0.000 A 
ATOM     20  C   UNL     1      45.130   4.302   8.729  0.00  0.00    +0.000 A 
ATOM     21  C   UNL     1      44.799   3.079   9.318  0.00  0.00    +0.000 A 
ATOM     22  C   UNL     1      45.417   1.910   8.870  0.00  0.00    +0.000 A 
BRANCH  17  24
ATOM     23  N   UNL     1      47.788   0.868   6.198  0.00  0.00    +0.000 N 
ATOM     24  C   UNL     1      46.997   0.731   7.302  0.00  0.00    +0.000 C 
ATOM     25  O   UNL     1      46.865  -0.352   7.858  0.00  0.00    +0.000 OA
ATOM     26  H   UNL     1      48.309   0.048   5.909  0.00  0.00    +0.000 HD
ATOM     27  H   UNL     1      48.102   1.766   5.860  0.00  0.00    +0.000 HD
ENDBRANCH  17  24
ENDBRANCH  16  21
ENDBRANCH  15  16
ENDBRANCH   1  15
TORSDOF 5
ENDMDL
MODEL 2
REMARK VINA RESULT:    -7.979      1.253      1.647
REMARK INTER + INTRA:         -10.577
REMARK INTER:                 -10.008
REMARK INTRA:                  -0.569
REMARK UNBOUND:                -0.266
REMARK  Name = 
REMARK  5 active torsions:
REMARK  status: ('A' for Active; 'I' for Inactive)
REMARK    1  A    between atoms: C_2  and  C_4
REMARK    2  A    between atoms: C_8  and  O_9
REMARK    3  A    between atoms: O_9  and  C_10
REMARK    4  A    between atoms: C_10  and  C_11
REMARK    5  A    between atoms: C_16  and  C_17
REMARK                            x       y       z     vdW  Elec       q    Type
REMARK                         _______ _______ _______ _____ _____    ______ ____
ROOT
ATOM      1  C   UNL     1      45.078   4.940  11.597  0.00  0.00    +0.000 A 
ATOM      2  C   UNL     1      45.487   3.916  12.457  0.00  0.00    +0.000 A 
ATOM      3  C   UNL     1      46.562   4.122  13.310  0.00  0.00    +0.000 A 
ATOM      4  F   UNL     1      46.966   3.127  14.110  0.00  0.00    +0.000 F 
ATOM      5  C   UNL     1      47.251   5.330  13.322  0.00  0.00    +0.000 A 
ATOM      6  C   UNL     1      46.870   6.374  12.468  0.00  0.00    +0.000 A 
ATOM      7  C   UNL     1      45.758   6.170  11.629  0.00  0.00    +0.000 A 
ENDROOT
BRANCH   6   8
ATOM      8  C   UNL     1      47.662   7.671  12.338  0.00  0.00    +0.000 C 
ATOM      9  C   UNL     1      49.077   7.500  12.926  0.00  0.00    +0.000 C 
ATOM     10  C   UNL     1      49.090   7.636  14.447  0.00  0.00    +0.000 C 
ATOM     11  C   UNL     1      48.389   8.911  14.908  0.00  0.00    +0.000 C 
ATOM     12  N   UNL     1      47.032   9.021  14.383  0.00  0.00    +0.000 NA
ATOM     13  C   UNL     1      47.000   8.941  12.919  0.00  0.00    +0.000 C 
ATOM     14  H   UNL     1      46.612   9.898  14.687  0.00  0.00    +0.000 HD
ENDBRANCH   6   8
BRANCH   1  15
ATOM     15  C   UNL     1      43.939   4.719  10.635  0.00  0.00    +0.000 C 
BRANCH  15  16
ATOM     16  O   UNL     1      44.447   4.737   9.305  0.00  0.00    +0.000 OA
BRANCH  16  21
ATOM     17  C   UNL     1      46.500   2.604   7.211  0.00  0.00    +0.000 A 
ATOM     18  C   UNL     1      46.222   1.326   7.706  0.00  0.00    +0.000 A 
ATOM     19  C   UNL     1      45.342   1.171   8.773  0.00  0.00    +0.000 A 
ATOM     20  C   UNL     1      44.726   2.288   9.343  0.00  0.00    +0.000 A 
ATOM     21  C   UNL     1      44.984   3.567   8.841  0.00  0.00    +0.000 A 
ATOM     22  C   UNL     1      45.865   3.720   7.769  0.00  0.00    +0.000 A 
BRANCH  17  24
ATOM     23  N   UNL     1      48.794   2.749   6.418  0.00  0.00    +0.000 N 
ATOM     24  C   UNL     1      47.468   2.736   6.094  0.00  0.00    +0.000 C 
ATOM     25  O   UNL     1      47.100   2.791   4.928  0.00  0.00    +0.000 OA
ATOM     26  H   UNL     1      49.450   2.734   5.646  0.00  0.00    +0.000 HD
ATOM     27  H   UNL     1      49.135   2.474   7.328  0.00  0.00    +0.000 HD
ENDBRANCH  17  24
ENDBRANCH  16  21
ENDBRANCH  15  16
ENDBRANCH   1  15
TORSDOF 5
ENDMDL
MODEL 3
REMARK VINA RESULT:    -7.438      3.385      7.068
REMARK INTER + INTRA:          -9.878
REMARK INTER:                  -8.939
REMARK INTRA:                  -0.939
REMARK UNBOUND:                -0.266
REMARK  Name = 
REMARK  5 active torsions:
REMARK  status: ('A' for Active; 'I' for Inactive)
REMARK    1  A    between atoms: C_2  and  C_4
REMARK    2  A    between atoms: C_8  and  O_9
REMARK    3  A    between atoms: O_9  and  C_10
REMARK    4  A    between atoms: C_10  and  C_11
REMARK    5  A    between atoms: C_16  and  C_17
REMARK                            x       y       z     vdW  Elec       q    Type
REMARK                         _______ _______ _______ _____ _____    ______ ____
ROOT
ATOM      1  C   UNL     1      46.671   6.148  12.597  0.00  0.00    +0.000 A 
ATOM      2  C   UNL     1      47.207   5.278  13.552  0.00  0.00    +0.000 A 
ATOM      3  C   UNL     1      46.782   3.958  13.595  0.00  0.00    +0.000 A 
ATOM      4  F   UNL     1      47.279   3.138  14.531  0.00  0.00    +0.000 F 
ATOM      5  C   UNL     1      45.824   3.480  12.708  0.00  0.00    +0.000 A 
ATOM      6  C   UNL     1      45.262   4.328  11.744  0.00  0.00    +0.000 A 
ATOM      7  C   UNL     1      45.721   5.657  11.684  0.00  0.00    +0.000 A 
ENDROOT
BRANCH   6   8
ATOM      8  C   UNL     1      44.116   3.904  10.832  0.00  0.00    +0.000 C 
ATOM      9  C   UNL     1      44.299   2.441  10.381  0.00  0.00    +0.000 C 
ATOM     10  C   UNL     1      45.280   2.312   9.219  0.00  0.00    +0.000 C 
ATOM     11  C   UNL     1      44.933   3.262   8.076  0.00  0.00    +0.000 C 
ATOM     12  N   UNL     1      44.821   4.649   8.519  0.00  0.00    +0.000 NA
ATOM     13  C   UNL     1      43.846   4.804   9.604  0.00  0.00    +0.000 C 
ATOM     14  H   UNL     1      44.557   5.243   7.734  0.00  0.00    +0.000 HD
ENDBRANCH   6   8
BRANCH   1  15
ATOM     15  C   UNL     1      47.091   7.595  12.564  0.00  0.00    +0.000 C 
BRANCH  15  16
ATOM     16  O   UNL     1      46.002   8.402  13.001  0.00  0.00    +0.000 OA
BRANCH  16  21
ATOM     17  C   UNL     1      43.803  10.306  10.835  0.00  0.00    +0.000 A 
ATOM     18  C   UNL     1      44.607  11.382  10.447  0.00  0.00    +0.000 A 
ATOM     19  C   UNL     1      45.909  11.485  10.931  0.00  0.00    +0.000 A 
ATOM     20  C   UNL     1      46.417  10.510  11.793  0.00  0.00    +0.000 A 
ATOM     21  C   UNL     1      45.625   9.422  12.170  0.00  0.00    +0.000 A 
ATOM     22  C   UNL     1      44.322   9.318  11.681  0.00  0.00    +0.000 A 
BRANCH  17  24
ATOM     23  N   UNL     1      41.526   9.476  11.029  0.00  0.00    +0.000 N 
ATOM     24  C   UNL     1      42.410  10.243  10.327  0.00  0.00    +0.000 C 
ATOM     25  O   UNL     1      42.055  10.882   9.345  0.00  0.00    +0.000 OA
ATOM     26  H   UNL     1      40.556   9.521  10.739  0.00  0.00    +0.000 HD
ATOM     27  H   UNL     1      41.722   9.131  11.958  0.00  0.00    +0.000 HD
ENDBRANCH  17  24
ENDBRANCH  16  21
ENDBRANCH  15  16
ENDBRANCH   1  15
TORSDOF 5
ENDMDL
MODEL 4
REMARK VINA RESULT:    -7.208      4.368      7.740
REMARK INTER + INTRA:          -9.581
REMARK INTER:                  -8.557
REMARK INTRA:                  -1.024
REMARK UNBOUND:                -0.266
REMARK  Name = 
REMARK  5 active torsions:
REMARK  status: ('A' for Active; 'I' for Inactive)
REMARK    1  A    between atoms: C_2  and  C_4
REMARK    2  A    between atoms: C_8  and  O_9
REMARK    3  A    between atoms: O_9  and  C_10
REMARK    4  A    between atoms: C_10  and  C_11
REMARK    5  A    between atoms: C_16  and  C_17
REMARK                            x       y       z     vdW  Elec       q    Type
REMARK                         _______ _______ _______ _____ _____    ______ ____
ROOT
ATOM      1  C   UNL     1      47.601   7.839  13.134  0.00  0.00    +0.000 A 
ATOM      2  C   UNL     1      46.933   9.060  12.992  0.00  0.00    +0.000 A 
ATOM      3  C   UNL     1      45.696   9.099  12.366  0.00  0.00    +0.000 A 
ATOM      4  F   UNL     1      45.076  10.276  12.208  0.00  0.00    +0.000 F 
ATOM      5  C   UNL     1      45.105   7.944  11.865  0.00  0.00    +0.000 A 
ATOM      6  C   UNL     1      45.751   6.706  11.986  0.00  0.00    +0.000 A 
ATOM      7  C   UNL     1      46.990   6.668  12.652  0.00  0.00    +0.000 A 
ENDROOT
BRANCH   6   8
ATOM      8  C   UNL     1      45.221   5.427  11.345  0.00  0.00    +0.000 C 
ATOM      9  C   UNL     1      43.709   5.549  11.067  0.00  0.00    +0.000 C 
ATOM     10  C   UNL     1      42.869   5.281  12.314  0.00  0.00    +0.000 C 
ATOM     11  C   UNL     1      43.260   3.969  12.988  0.00  0.00    +0.000 C 
ATOM     12  N   UNL     1      44.687   3.902  13.291  0.00  0.00    +0.000 NA
ATOM     13  C   UNL     1      45.513   4.109  12.098  0.00  0.00    +0.000 C 
ATOM     14  H   UNL     1      44.910   3.000  13.710  0.00  0.00    +0.000 HD
ENDBRANCH   6   8
BRANCH   1  15
ATOM     15  C   UNL     1      48.963   7.785  13.776  0.00  0.00    +0.000 C 
BRANCH  15  16
ATOM     16  O   UNL     1      49.133   6.513  14.394  0.00  0.00    +0.000 OA
BRANCH  16  21
ATOM     17  C   UNL     1      48.017   4.953  17.472  0.00  0.00    +0.000 A 
ATOM     18  C   UNL     1      48.089   6.002  18.394  0.00  0.00    +0.000 A 
ATOM     19  C   UNL     1      48.536   7.256  17.985  0.00  0.00    +0.000 A 
ATOM     20  C   UNL     1      48.900   7.472  16.653  0.00  0.00    +0.000 A 
ATOM     21  C   UNL     1      48.812   6.433  15.722  0.00  0.00    +0.000 A 
ATOM     22  C   UNL     1      48.361   5.178  16.133  0.00  0.00    +0.000 A 
BRANCH  17  24
ATOM     23  N   UNL     1      48.196   3.109  19.047  0.00  0.00    +0.000 N 
ATOM     24  C   UNL     1      47.568   3.621  17.948  0.00  0.00    +0.000 C 
ATOM     25  O   UNL     1      46.647   3.022  17.407  0.00  0.00    +0.000 OA
ATOM     26  H   UNL     1      47.815   2.251  19.428  0.00  0.00    +0.000 HD
ATOM     27  H   UNL     1      48.786   3.667  19.647  0.00  0.00    +0.000 HD
ENDBRANCH  17  24
ENDBRANCH  16  21
ENDBRANCH  15  16
ENDBRANCH   1  15
TORSDOF 5
ENDMDL
MODEL 5
REMARK VINA RESULT:    -7.191      4.214      7.790
REMARK INTER + INTRA:          -9.559
REMARK INTER:                  -8.641
REMARK INTRA:                  -0.918
REMARK UNBOUND:                -0.266
REMARK  Name = 
REMARK  5 active torsions:
REMARK  status: ('A' for Active; 'I' for Inactive)
REMARK    1  A    between atoms: C_2  and  C_4
REMARK    2  A    between atoms: C_8  and  O_9
REMARK    3  A    between atoms: O_9  and  C_10
REMARK    4  A    between atoms: C_10  and  C_11
REMARK    5  A    between atoms: C_16  and  C_17
REMARK                            x       y       z     vdW  Elec       q    Type
REMARK                         _______ _______ _______ _____ _____    ______ ____
ROOT
ATOM      1  C   UNL     1      47.373   7.208  13.250  0.00  0.00    +0.000 A 
ATOM      2  C   UNL     1      47.074   8.445  12.668  0.00  0.00    +0.000 A 
ATOM      3  C   UNL     1      45.805   8.676  12.156  0.00  0.00    +0.000 A 
ATOM      4  F   UNL     1      45.535   9.852  11.575  0.00  0.00    +0.000 F 
ATOM      5  C   UNL     1      44.820   7.695  12.202  0.00  0.00    +0.000 A 
ATOM      6  C   UNL     1      45.090   6.443  12.772  0.00  0.00    +0.000 A 
ATOM      7  C   UNL     1      46.369   6.227  13.319  0.00  0.00    +0.000 A 
ENDROOT
BRANCH   6   8
ATOM      8  C   UNL     1      44.100   5.284  12.736  0.00  0.00    +0.000 C 
ATOM      9  C   UNL     1      44.829   3.960  12.431  0.00  0.00    +0.000 C 
ATOM     10  C   UNL     1      45.104   3.782  10.940  0.00  0.00    +0.000 C 
ATOM     11  C   UNL     1      43.844   3.989  10.103  0.00  0.00    +0.000 C 
ATOM     12  N   UNL     1      43.203   5.273  10.370  0.00  0.00    +0.000 NA
ATOM     13  C   UNL     1      42.886   5.446  11.791  0.00  0.00    +0.000 C 
ATOM     14  H   UNL     1      42.351   5.357   9.816  0.00  0.00    +0.000 HD
ENDBRANCH   6   8
BRANCH   1  15
ATOM     15  C   UNL     1      48.758   6.927  13.773  0.00  0.00    +0.000 C 
BRANCH  15  16
ATOM     16  O   UNL     1      48.831   7.344  15.133  0.00  0.00    +0.000 OA
BRANCH  16  21
ATOM     17  C   UNL     1      48.783   4.528  17.417  0.00  0.00    +0.000 A 
ATOM     18  C   UNL     1      50.108   4.467  17.861  0.00  0.00    +0.000 A 
ATOM     19  C   UNL     1      51.044   5.377  17.376  0.00  0.00    +0.000 A 
ATOM     20  C   UNL     1      50.661   6.356  16.456  0.00  0.00    +0.000 A 
ATOM     21  C   UNL     1      49.334   6.435  16.023  0.00  0.00    +0.000 A 
ATOM     22  C   UNL     1      48.396   5.525  16.513  0.00  0.00    +0.000 A 
BRANCH  17  24
ATOM     23  N   UNL     1      48.121   2.918  19.116  0.00  0.00    +0.000 N 
ATOM     24  C   UNL     1      47.818   3.523  17.930  0.00  0.00    +0.000 C 
ATOM     25  O   UNL     1      46.775   3.275  17.339  0.00  0.00    +0.000 OA
ATOM     26  H   UNL     1      47.410   2.314  19.510  0.00  0.00    +0.000 HD
ATOM     27  H   UNL     1      48.840   3.263  19.735  0.00  0.00    +0.000 HD
ENDBRANCH  17  24
ENDBRANCH  16  21
ENDBRANCH  15  16
ENDBRANCH   1  15
TORSDOF 5
ENDMDL
MODEL 6
REMARK VINA RESULT:    -7.147      4.284      7.619
REMARK INTER + INTRA:          -9.502
REMARK INTER:                  -9.106
REMARK INTRA:                  -0.396
REMARK UNBOUND:                -0.266
REMARK  Name = 
REMARK  5 active torsions:
REMARK  status: ('A' for Active; 'I' for Inactive)
REMARK    1  A    between atoms: C_2  and  C_4
REMARK    2  A    between atoms: C_8  and  O_9
REMARK    3  A    between atoms: O_9  and  C_10
REMARK    4  A    between atoms: C_10  and  C_11
REMARK    5  A    between atoms: C_16  and  C_17
REMARK                            x       y       z     vdW  Elec       q    Type
REMARK                         _______ _______ _______ _____ _____    ______ ____
ROOT
ATOM      1  C   UNL     1      46.811   4.682  13.432  0.00  0.00    +0.000 A 
ATOM      2  C   UNL     1      47.575   5.854  13.439  0.00  0.00    +0.000 A 
ATOM      3  C   UNL     1      47.340   6.835  12.486  0.00  0.00    +0.000 A 
ATOM      4  F   UNL     1      48.094   7.941  12.482  0.00  0.00    +0.000 F 
ATOM      5  C   UNL     1      46.359   6.674  11.514  0.00  0.00    +0.000 A 
ATOM      6  C   UNL     1      45.580   5.509  11.475  0.00  0.00    +0.000 A 
ATOM      7  C   UNL     1      45.802   4.532  12.464  0.00  0.00    +0.000 A 
ENDROOT
BRANCH   6   8
ATOM      8  C   UNL     1      44.583   5.214  10.360  0.00  0.00    +0.000 C 
ATOM      9  C   UNL     1      43.408   4.373  10.896  0.00  0.00    +0.000 C 
ATOM     10  C   UNL     1      43.754   2.889  10.989  0.00  0.00    +0.000 C 
ATOM     11  C   UNL     1      44.334   2.359   9.681  0.00  0.00    +0.000 C 
ATOM     12  N   UNL     1      45.480   3.139   9.223  0.00  0.00    +0.000 NA
ATOM     13  C   UNL     1      45.157   4.562   9.080  0.00  0.00    +0.000 C 
ATOM     14  H   UNL     1      45.816   2.772   8.333  0.00  0.00    +0.000 HD
ENDBRANCH   6   8
BRANCH   1  15
ATOM     15  C   UNL     1      47.082   3.589  14.433  0.00  0.00    +0.000 C 
BRANCH  15  16
ATOM     16  O   UNL     1      46.544   3.975  15.694  0.00  0.00    +0.000 OA
BRANCH  16  21
ATOM     17  C   UNL     1      49.515   3.176  17.613  0.00  0.00    +0.000 A 
ATOM     18  C   UNL     1      49.381   3.988  18.744  0.00  0.00    +0.000 A 
ATOM     19  C   UNL     1      48.281   4.834  18.863  0.00  0.00    +0.000 A 
ATOM     20  C   UNL     1      47.307   4.866  17.862  0.00  0.00    +0.000 A 
ATOM     21  C   UNL     1      47.425   4.042  16.739  0.00  0.00    +0.000 A 
ATOM     22  C   UNL     1      48.526   3.192  16.622  0.00  0.00    +0.000 A 
BRANCH  17  24
ATOM     23  N   UNL     1      51.790   2.634  18.278  0.00  0.00    +0.000 N 
ATOM     24  C   UNL     1      50.715   2.309  17.502  0.00  0.00    +0.000 C 
ATOM     25  O   UNL     1      50.729   1.322  16.778  0.00  0.00    +0.000 OA
ATOM     26  H   UNL     1      52.564   1.980  18.276  0.00  0.00    +0.000 HD
ATOM     27  H   UNL     1      51.732   3.288  19.045  0.00  0.00    +0.000 HD
ENDBRANCH  17  24
ENDBRANCH  16  21
ENDBRANCH  15  16
ENDBRANCH   1  15
TORSDOF 5
ENDMDL
MODEL 7
REMARK VINA RESULT:    -7.011      4.117      6.725
REMARK INTER + INTRA:          -9.326
REMARK INTER:                  -8.963
REMARK INTRA:                  -0.363
REMARK UNBOUND:                -0.266
REMARK  Name = 
REMARK  5 active torsions:
REMARK  status: ('A' for Active; 'I' for Inactive)
REMARK    1  A    between atoms: C_2  and  C_4
REMARK    2  A    between atoms: C_8  and  O_9
REMARK    3  A    between atoms: O_9  and  C_10
REMARK    4  A    between atoms: C_10  and  C_11
REMARK    5  A    between atoms: C_16  and  C_17
REMARK                            x       y       z     vdW  Elec       q    Type
REMARK                         _______ _______ _______ _____ _____    ______ ____
ROOT
ATOM      1  C   UNL     1      46.469   4.300  13.312  0.00  0.00    +0.000 A 
ATOM      2  C   UNL     1      45.464   3.764  12.500  0.00  0.00    +0.000 A 
ATOM      3  C   UNL     1      44.927   4.530  11.474  0.00  0.00    +0.000 A 
ATOM      4  F   UNL     1      43.946   4.020  10.719  0.00  0.00    +0.000 F 
ATOM      5  C   UNL     1      45.365   5.829  11.240  0.00  0.00    +0.000 A 
ATOM      6  C   UNL     1      46.366   6.397  12.040  0.00  0.00    +0.000 A 
ATOM      7  C   UNL     1      46.929   5.603  13.058  0.00  0.00    +0.000 A 
ENDROOT
BRANCH   6   8
ATOM      8  C   UNL     1      46.795   7.855  11.921  0.00  0.00    +0.000 C 
ATOM      9  C   UNL     1      48.332   7.960  11.843  0.00  0.00    +0.000 C 
ATOM     10  C   UNL     1      48.988   7.871  13.218  0.00  0.00    +0.000 C 
ATOM     11  C   UNL     1      48.362   8.848  14.209  0.00  0.00    +0.000 C 
ATOM     12  N   UNL     1      46.914   8.690  14.307  0.00  0.00    +0.000 NA
ATOM     13  C   UNL     1      46.256   8.820  13.002  0.00  0.00    +0.000 C 
ATOM     14  H   UNL     1      46.533   9.381  14.953  0.00  0.00    +0.000 HD
ENDBRANCH   6   8
BRANCH   1  15
ATOM     15  C   UNL     1      47.034   3.496  14.455  0.00  0.00    +0.000 C 
BRANCH  15  16
ATOM     16  O   UNL     1      46.540   4.027  15.681  0.00  0.00    +0.000 OA
BRANCH  16  21
ATOM     17  C   UNL     1      49.511   3.165  17.572  0.00  0.00    +0.000 A 
ATOM     18  C   UNL     1      49.358   3.910  18.745  0.00  0.00    +0.000 A 
ATOM     19  C   UNL     1      48.246   4.733  18.903  0.00  0.00    +0.000 A 
ATOM     20  C   UNL     1      47.277   4.807  17.900  0.00  0.00    +0.000 A 
ATOM     21  C   UNL     1      47.414   4.049  16.733  0.00  0.00    +0.000 A 
ATOM     22  C   UNL     1      48.528   3.222  16.577  0.00  0.00    +0.000 A 
BRANCH  17  24
ATOM     23  N   UNL     1      51.810   2.655  18.179  0.00  0.00    +0.000 N 
ATOM     24  C   UNL     1      50.724   2.323  17.421  0.00  0.00    +0.000 C 
ATOM     25  O   UNL     1      50.742   1.348  16.680  0.00  0.00    +0.000 OA
ATOM     26  H   UNL     1      52.596   2.016  18.149  0.00  0.00    +0.000 HD
ATOM     27  H   UNL     1      51.755   3.295  18.958  0.00  0.00    +0.000 HD
ENDBRANCH  17  24
ENDBRANCH  16  21
ENDBRANCH  15  16
ENDBRANCH   1  15
TORSDOF 5
ENDMDL
MODEL 8
REMARK VINA RESULT:    -6.900      4.211      5.918
REMARK INTER + INTRA:          -9.183
REMARK INTER:                  -8.347
REMARK INTRA:                  -0.837
REMARK UNBOUND:                -0.266
REMARK  Name = 
REMARK  5 active torsions:
REMARK  status: ('A' for Active; 'I' for Inactive)
REMARK    1  A    between atoms: C_2  and  C_4
REMARK    2  A    between atoms: C_8  and  O_9
REMARK    3  A    between atoms: O_9  and  C_10
REMARK    4  A    between atoms: C_10  and  C_11
REMARK    5  A    between atoms: C_16  and  C_17
REMARK                            x       y       z     vdW  Elec       q    Type
REMARK                         _______ _______ _______ _____ _____    ______ ____
ROOT
ATOM      1  C   UNL     1      48.602   3.553  16.664  0.00  0.00    +0.000 A 
ATOM      2  C   UNL     1      49.247   2.318  16.775  0.00  0.00    +0.000 A 
ATOM      3  C   UNL     1      50.518   2.253  17.330  0.00  0.00    +0.000 A 
ATOM      4  F   UNL     1      51.141   1.070  17.407  0.00  0.00    +0.000 F 
ATOM      5  C   UNL     1      51.169   3.398  17.774  0.00  0.00    +0.000 A 
ATOM      6  C   UNL     1      50.552   4.652  17.670  0.00  0.00    +0.000 A 
ATOM      7  C   UNL     1      49.251   4.707  17.136  0.00  0.00    +0.000 A 
ENDROOT
BRANCH   6   8
ATOM      8  C   UNL     1      51.262   5.957  18.015  0.00  0.00    +0.000 C 
ATOM      9  C   UNL     1      50.690   7.119  17.178  0.00  0.00    +0.000 C 
ATOM     10  C   UNL     1      51.278   7.162  15.770  0.00  0.00    +0.000 C 
ATOM     11  C   UNL     1      52.804   7.123  15.792  0.00  0.00    +0.000 C 
ATOM     12  N   UNL     1      53.320   5.982  16.543  0.00  0.00    +0.000 NA
ATOM     13  C   UNL     1      52.805   5.947  17.916  0.00  0.00    +0.000 C 
ATOM     14  H   UNL     1      54.339   6.011  16.560  0.00  0.00    +0.000 HD
ENDBRANCH   6   8
BRANCH   1  15
ATOM     15  C   UNL     1      47.239   3.647  16.026  0.00  0.00    +0.000 C 
BRANCH  15  16
ATOM     16  O   UNL     1      47.336   3.230  14.668  0.00  0.00    +0.000 OA
BRANCH  16  21
ATOM     17  C   UNL     1      45.316   4.393  11.889  0.00  0.00    +0.000 A 
ATOM     18  C   UNL     1      45.763   5.706  11.711  0.00  0.00    +0.000 A 
ATOM     19  C   UNL     1      46.750   6.222  12.546  0.00  0.00    +0.000 A 
ATOM     20  C   UNL     1      47.303   5.429  13.554  0.00  0.00    +0.000 A 
ATOM     21  C   UNL     1      46.875   4.109  13.726  0.00  0.00    +0.000 A 
ATOM     22  C   UNL     1      45.888   3.592  12.885  0.00  0.00    +0.000 A 
BRANCH  17  24
ATOM     23  N   UNL     1      44.158   2.531  10.838  0.00  0.00    +0.000 N 
ATOM     24  C   UNL     1      44.240   3.884  11.003  0.00  0.00    +0.000 C 
ATOM     25  O   UNL     1      43.434   4.638  10.472  0.00  0.00    +0.000 OA
ATOM     26  H   UNL     1      43.361   2.186  10.318  0.00  0.00    +0.000 HD
ATOM     27  H   UNL     1      44.648   1.879  11.434  0.00  0.00    +0.000 HD
ENDBRANCH  17  24
ENDBRANCH  16  21
ENDBRANCH  15  16
ENDBRANCH   1  15
TORSDOF 5
ENDMDL
MODEL 9
REMARK VINA RESULT:    -6.889      4.653      7.586
REMARK INTER + INTRA:          -9.169
REMARK INTER:                  -8.357
REMARK INTRA:                  -0.811
REMARK UNBOUND:                -0.266
REMARK  Name = 
REMARK  5 active torsions:
REMARK  status: ('A' for Active; 'I' for Inactive)
REMARK    1  A    between atoms: C_2  and  C_4
REMARK    2  A    between atoms: C_8  and  O_9
REMARK    3  A    between atoms: O_9  and  C_10
REMARK    4  A    between atoms: C_10  and  C_11
REMARK    5  A    between atoms: C_16  and  C_17
REMARK                            x       y       z     vdW  Elec       q    Type
REMARK                         _______ _______ _______ _____ _____    ______ ____
ROOT
ATOM      1  C   UNL     1      46.388   8.818  12.140  0.00  0.00    +0.000 A 
ATOM      2  C   UNL     1      47.693   8.331  12.268  0.00  0.00    +0.000 A 
ATOM      3  C   UNL     1      47.903   6.976  12.481  0.00  0.00    +0.000 A 
ATOM      4  F   UNL     1      49.154   6.521  12.630  0.00  0.00    +0.000 F 
ATOM      5  C   UNL     1      46.838   6.088  12.579  0.00  0.00    +0.000 A 
ATOM      6  C   UNL     1      45.518   6.545  12.463  0.00  0.00    +0.000 A 
ATOM      7  C   UNL     1      45.313   7.916  12.214  0.00  0.00    +0.000 A 
ENDROOT
BRANCH   6   8
ATOM      8  C   UNL     1      44.305   5.649  12.692  0.00  0.00    +0.000 C 
ATOM      9  C   UNL     1      44.726   4.166  12.709  0.00  0.00    +0.000 C 
ATOM     10  C   UNL     1      44.890   3.596  11.302  0.00  0.00    +0.000 C 
ATOM     11  C   UNL     1      43.666   3.872  10.433  0.00  0.00    +0.000 C 
ATOM     12  N   UNL     1      43.323   5.290  10.389  0.00  0.00    +0.000 NA
ATOM     13  C   UNL     1      43.113   5.848  11.729  0.00  0.00    +0.000 C 
ATOM     14  H   UNL     1      42.484   5.426   9.826  0.00  0.00    +0.000 HD
ENDBRANCH   6   8
BRANCH   1  15
ATOM     15  C   UNL     1      46.140  10.292  11.950  0.00  0.00    +0.000 C 
BRANCH  15  16
ATOM     16  O   UNL     1      44.760  10.562  12.175  0.00  0.00    +0.000 OA
BRANCH  16  21
ATOM     17  C   UNL     1      41.765  10.949  10.167  0.00  0.00    +0.000 A 
ATOM     18  C   UNL     1      42.263  11.464   8.966  0.00  0.00    +0.000 A 
ATOM     19  C   UNL     1      43.628  11.703   8.827  0.00  0.00    +0.000 A 
ATOM     20  C   UNL     1      44.502  11.419   9.878  0.00  0.00    +0.000 A 
ATOM     21  C   UNL     1      44.014  10.886  11.075  0.00  0.00    +0.000 A 
ATOM     22  C   UNL     1      42.646  10.644  11.212  0.00  0.00    +0.000 A 
BRANCH  17  24
ATOM     23  N   UNL     1      39.887   9.772  11.168  0.00  0.00    +0.000 N 
ATOM     24  C   UNL     1      40.302  10.737  10.295  0.00  0.00    +0.000 C 
ATOM     25  O   UNL     1      39.497  11.421   9.676  0.00  0.00    +0.000 OA
ATOM     26  H   UNL     1      38.889   9.704  11.327  0.00  0.00    +0.000 HD
ATOM     27  H   UNL     1      40.501   9.359  11.855  0.00  0.00    +0.000 HD
ENDBRANCH  17  24
ENDBRANCH  16  21
ENDBRANCH  15  16
ENDBRANCH   1  15
TORSDOF 5
ENDMDL
