MODEL 1
REMARK VINA RESULT:    -8.445      0.000      0.000
REMARK INTER + INTRA:         -11.595
REMARK INTER:                 -10.913
REMARK INTRA:                  -0.681
REMARK UNBOUND:                -0.681
REMARK  Name = 
REMARK  5 active torsions:
REMARK  status: ('A' for Active; 'I' for Inactive)
REMARK    1  A    between atoms: C_2  and  C_4
REMARK    2  A    between atoms: C_7  and  O_8
REMARK    3  A    between atoms: O_8  and  C_9
REMARK    4  A    between atoms: C_9  and  C_10
REMARK    5  A    between atoms: C_15  and  C_16
REMARK                            x       y       z     vdW  Elec       q    Type
REMARK                         _______ _______ _______ _____ _____    ______ ____
ROOT
ATOM      1  C   UNL     1      44.895   4.295  11.835  0.00  0.00    +0.000 A 
ATOM      2  C   UNL     1      45.522   3.437  12.745  0.00  0.00    +0.000 A 
ATOM      3  C   UNL     1      46.614   3.891  13.471  0.00  0.00    +0.000 A 
ATOM      4  F   UNL     1      47.229   3.066  14.328  0.00  0.00    +0.000 F 
ATOM      5  C   UNL     1      47.123   5.169  13.270  0.00  0.00    +0.000 A 
ATOM      6  C   UNL     1      46.556   6.025  12.307  0.00  0.00    +0.000 A 
ATOM      7  C   UNL     1      45.388   5.603  11.664  0.00  0.00    +0.000 A 
ENDROOT
BRANCH   6   8
ATOM      8  C   UNL     1      47.350   7.253  11.866  0.00  0.00    +0.000 C 
ATOM      9  C   UNL     1      48.650   7.626  12.617  0.00  0.00    +0.000 C 
ATOM     10  C   UNL     1      48.458   8.365  13.954  0.00  0.00    +0.000 C 
ATOM     11  N   UNL     1      47.410   9.389  13.957  0.00  0.00    +0.000 NA
ATOM     12  C   UNL     1      46.167   8.874  13.385  0.00  0.00    +0.000 C 
ATOM     13  C   UNL     1      46.406   8.471  11.932  0.00  0.00    +0.000 C 
ATOM     14  H   UNL     1      47.713  10.193  13.407  0.00  0.00    +0.000 HD
ENDBRANCH   6   8
BRANCH   1  15
ATOM     15  C   UNL     1      43.731   3.825  10.995  0.00  0.00    +0.000 C 
BRANCH  15  16
ATOM     16  O   UNL     1      43.869   4.402   9.692  0.00  0.00    +0.000 OA
BRANCH  16  20
ATOM     17  C   UNL     1      46.610   2.403   7.367  0.00  0.00    +0.000 A 
ATOM     18  C   UNL     1      45.866   1.698   8.320  0.00  0.00    +0.000 A 
ATOM     19  C   UNL     1      44.944   2.391   9.105  0.00  0.00    +0.000 A 
ATOM     20  C   UNL     1      44.795   3.755   8.910  0.00  0.00    +0.000 A 
ATOM     21  N   UNL     1      45.505   4.461   8.002  0.00  0.00    +0.000 NA
ATOM     22  C   UNL     1      46.403   3.771   7.263  0.00  0.00    +0.000 A 
BRANCH  17  24
ATOM     23  N   UNL     1      48.820   2.408   6.354  0.00  0.00    +0.000 N 
ATOM     24  C   UNL     1      47.616   1.778   6.486  0.00  0.00    +0.000 C 
ATOM     25  O   UNL     1      47.401   0.705   5.934  0.00  0.00    +0.000 OA
ATOM     26  H   UNL     1      49.533   1.900   5.845  0.00  0.00    +0.000 HD
ATOM     27  H   UNL     1      49.130   3.130   6.990  0.00  0.00    +0.000 HD
ENDBRANCH  17  24
ENDBRANCH  16  20
ENDBRANCH  15  16
ENDBRANCH   1  15
TORSDOF 5
ENDMDL
MODEL 2
REMARK VINA RESULT:    -7.682      1.939      2.663
REMARK INTER + INTRA:         -10.609
REMARK INTER:                  -9.822
REMARK INTRA:                  -0.786
REMARK UNBOUND:                -0.681
REMARK  Name = 
REMARK  5 active torsions:
REMARK  status: ('A' for Active; 'I' for Inactive)
REMARK    1  A    between atoms: C_2  and  C_4
REMARK    2  A    between atoms: C_7  and  O_8
REMARK    3  A    between atoms: O_8  and  C_9
REMARK    4  A    between atoms: C_9  and  C_10
REMARK    5  A    between atoms: C_15  and  C_16
REMARK                            x       y       z     vdW  Elec       q    Type
REMARK                         _______ _______ _______ _____ _____    ______ ____
ROOT
ATOM      1  C   UNL     1      44.994   5.845  11.547  0.00  0.00    +0.000 A 
ATOM      2  C   UNL     1      44.181   6.953  11.286  0.00  0.00    +0.000 A 
ATOM      3  C   UNL     1      44.664   8.230  11.534  0.00  0.00    +0.000 A 
ATOM      4  F   UNL     1      43.881   9.291  11.303  0.00  0.00    +0.000 F 
ATOM      5  C   UNL     1      45.926   8.419  12.087  0.00  0.00    +0.000 A 
ATOM      6  C   UNL     1      46.733   7.318  12.429  0.00  0.00    +0.000 A 
ATOM      7  C   UNL     1      46.286   6.043  12.069  0.00  0.00    +0.000 A 
ENDROOT
BRANCH   6   8
ATOM      8  C   UNL     1      47.930   7.551  13.349  0.00  0.00    +0.000 C 
ATOM      9  C   UNL     1      48.289   8.993  13.778  0.00  0.00    +0.000 C 
ATOM     10  C   UNL     1      49.064   9.824  12.740  0.00  0.00    +0.000 C 
ATOM     11  N   UNL     1      50.114   9.099  12.018  0.00  0.00    +0.000 NA
ATOM     12  C   UNL     1      49.617   7.825  11.501  0.00  0.00    +0.000 C 
ATOM     13  C   UNL     1      49.173   6.944  12.666  0.00  0.00    +0.000 C 
ATOM     14  H   UNL     1      50.897   8.913  12.646  0.00  0.00    +0.000 HD
ENDBRANCH   6   8
BRANCH   1  15
ATOM     15  C   UNL     1      44.488   4.438  11.331  0.00  0.00    +0.000 C 
BRANCH  15  16
ATOM     16  O   UNL     1      44.001   4.349   9.987  0.00  0.00    +0.000 OA
BRANCH  16  20
ATOM     17  C   UNL     1      46.586   2.393   7.456  0.00  0.00    +0.000 A 
ATOM     18  C   UNL     1      45.880   1.665   8.422  0.00  0.00    +0.000 A 
ATOM     19  C   UNL     1      45.011   2.344   9.276  0.00  0.00    +0.000 A 
ATOM     20  C   UNL     1      44.874   3.716   9.136  0.00  0.00    +0.000 A 
ATOM     21  N   UNL     1      45.548   4.443   8.217  0.00  0.00    +0.000 NA
ATOM     22  C   UNL     1      46.396   3.766   7.410  0.00  0.00    +0.000 A 
BRANCH  17  24
ATOM     23  N   UNL     1      48.685   2.468   6.234  0.00  0.00    +0.000 N 
ATOM     24  C   UNL     1      47.535   1.784   6.503  0.00  0.00    +0.000 C 
ATOM     25  O   UNL     1      47.325   0.681   6.012  0.00  0.00    +0.000 OA
ATOM     26  H   UNL     1      49.372   1.976   5.675  0.00  0.00    +0.000 HD
ATOM     27  H   UNL     1      49.016   3.229   6.811  0.00  0.00    +0.000 HD
ENDBRANCH  17  24
ENDBRANCH  16  20
ENDBRANCH  15  16
ENDBRANCH   1  15
TORSDOF 5
ENDMDL
MODEL 3
REMARK VINA RESULT:    -7.265      5.005      7.819
REMARK INTER + INTRA:         -10.070
REMARK INTER:                  -9.380
REMARK INTRA:                  -0.691
REMARK UNBOUND:                -0.681
REMARK  Name = 
REMARK  5 active torsions:
REMARK  status: ('A' for Active; 'I' for Inactive)
REMARK    1  A    between atoms: C_2  and  C_4
REMARK    2  A    between atoms: C_7  and  O_8
REMARK    3  A    between atoms: O_8  and  C_9
REMARK    4  A    between atoms: C_9  and  C_10
REMARK    5  A    between atoms: C_15  and  C_16
REMARK                            x       y       z     vdW  Elec       q    Type
REMARK                         _______ _______ _______ _____ _____    ______ ____
ROOT
ATOM      1  C   UNL     1      46.673   5.063  13.970  0.00  0.00    +0.000 A 
ATOM      2  C   UNL     1      47.711   5.835  13.438  0.00  0.00    +0.000 A 
ATOM      3  C   UNL     1      47.503   6.543  12.263  0.00  0.00    +0.000 A 
ATOM      4  F   UNL     1      48.502   7.268  11.741  0.00  0.00    +0.000 F 
ATOM      5  C   UNL     1      46.295   6.454  11.581  0.00  0.00    +0.000 A 
ATOM      6  C   UNL     1      45.261   5.625  12.056  0.00  0.00    +0.000 A 
ATOM      7  C   UNL     1      45.437   5.008  13.299  0.00  0.00    +0.000 A 
ENDROOT
BRANCH   6   8
ATOM      8  C   UNL     1      44.114   5.278  11.109  0.00  0.00    +0.000 C 
ATOM      9  C   UNL     1      42.956   4.386  11.614  0.00  0.00    +0.000 C 
ATOM     10  C   UNL     1      43.243   2.874  11.646  0.00  0.00    +0.000 C 
ATOM     11  N   UNL     1      43.984   2.355  10.492  0.00  0.00    +0.000 NA
ATOM     12  C   UNL     1      45.162   3.173  10.209  0.00  0.00    +0.000 C 
ATOM     13  C   UNL     1      44.722   4.595   9.867  0.00  0.00    +0.000 C 
ATOM     14  H   UNL     1      43.382   2.356   9.668  0.00  0.00    +0.000 HD
ENDBRANCH   6   8
BRANCH   1  15
ATOM     15  C   UNL     1      46.873   4.244  15.224  0.00  0.00    +0.000 C 
BRANCH  15  16
ATOM     16  O   UNL     1      47.780   4.956  16.073  0.00  0.00    +0.000 OA
BRANCH  16  20
ATOM     17  C   UNL     1      50.856   2.572  17.404  0.00  0.00    +0.000 A 
ATOM     18  C   UNL     1      49.672   1.982  16.946  0.00  0.00    +0.000 A 
ATOM     19  C   UNL     1      48.636   2.804  16.502  0.00  0.00    +0.000 A 
ATOM     20  C   UNL     1      48.817   4.178  16.528  0.00  0.00    +0.000 A 
ATOM     21  N   UNL     1      49.947   4.773  16.971  0.00  0.00    +0.000 NA
ATOM     22  C   UNL     1      50.932   3.957  17.409  0.00  0.00    +0.000 A 
BRANCH  17  24
ATOM     23  N   UNL     1      51.847   0.464  18.102  0.00  0.00    +0.000 N 
ATOM     24  C   UNL     1      52.015   1.804  17.901  0.00  0.00    +0.000 C 
ATOM     25  O   UNL     1      53.105   2.337  18.077  0.00  0.00    +0.000 OA
ATOM     26  H   UNL     1      52.685  -0.059  18.324  0.00  0.00    +0.000 HD
ATOM     27  H   UNL     1      51.066  -0.051  17.719  0.00  0.00    +0.000 HD
ENDBRANCH  17  24
ENDBRANCH  16  20
ENDBRANCH  15  16
ENDBRANCH   1  15
TORSDOF 5
ENDMDL
MODEL 4
REMARK VINA RESULT:    -7.110      4.927      8.698
REMARK INTER + INTRA:          -9.870
REMARK INTER:                  -9.278
REMARK INTRA:                  -0.591
REMARK UNBOUND:                -0.681
REMARK  Name = 
REMARK  5 active torsions:
REMARK  status: ('A' for Active; 'I' for Inactive)
REMARK    1  A    between atoms: C_2  and  C_4
REMARK    2  A    between atoms: C_7  and  O_8
REMARK    3  A    between atoms: O_8  and  C_9
REMARK    4  A    between atoms: C_9  and  C_10
REMARK    5  A    between atoms: C_15  and  C_16
REMARK                            x       y       z     vdW  Elec       q    Type
REMARK                         _______ _______ _______ _____ _____    ______ ____
ROOT
ATOM      1  C   UNL     1      46.691   5.311  13.666  0.00  0.00    +0.000 A 
ATOM      2  C   UNL     1      47.653   6.074  12.996  0.00  0.00    +0.000 A 
ATOM      3  C   UNL     1      47.328   6.678  11.790  0.00  0.00    +0.000 A 
ATOM      4  F   UNL     1      48.253   7.393  11.137  0.00  0.00    +0.000 F 
ATOM      5  C   UNL     1      46.076   6.492  11.214  0.00  0.00    +0.000 A 
ATOM      6  C   UNL     1      45.117   5.668  11.831  0.00  0.00    +0.000 A 
ATOM      7  C   UNL     1      45.411   5.159  13.100  0.00  0.00    +0.000 A 
ENDROOT
BRANCH   6   8
ATOM      8  C   UNL     1      43.917   5.205  11.007  0.00  0.00    +0.000 C 
ATOM      9  C   UNL     1      42.873   4.262  11.649  0.00  0.00    +0.000 C 
ATOM     10  C   UNL     1      43.266   2.775  11.709  0.00  0.00    +0.000 C 
ATOM     11  N   UNL     1      43.935   2.257  10.513  0.00  0.00    +0.000 NA
ATOM     12  C   UNL     1      45.023   3.138  10.092  0.00  0.00    +0.000 C 
ATOM     13  C   UNL     1      44.457   4.512   9.740  0.00  0.00    +0.000 C 
ATOM     14  H   UNL     1      43.263   2.183   9.748  0.00  0.00    +0.000 HD
ENDBRANCH   6   8
BRANCH   1  15
ATOM     15  C   UNL     1      47.019   4.603  14.959  0.00  0.00    +0.000 C 
BRANCH  15  16
ATOM     16  O   UNL     1      48.297   5.071  15.404  0.00  0.00    +0.000 OA
BRANCH  16  20
ATOM     17  C   UNL     1      48.821   4.654  19.462  0.00  0.00    +0.000 A 
ATOM     18  C   UNL     1      48.381   3.561  18.705  0.00  0.00    +0.000 A 
ATOM     19  C   UNL     1      48.203   3.720  17.331  0.00  0.00    +0.000 A 
ATOM     20  C   UNL     1      48.472   4.955  16.762  0.00  0.00    +0.000 A 
ATOM     21  N   UNL     1      48.892   6.027  17.470  0.00  0.00    +0.000 NA
ATOM     22  C   UNL     1      49.044   5.853  18.802  0.00  0.00    +0.000 A 
BRANCH  17  24
ATOM     23  N   UNL     1      50.329   4.639  21.368  0.00  0.00    +0.000 N 
ATOM     24  C   UNL     1      49.040   4.605  20.921  0.00  0.00    +0.000 C 
ATOM     25  O   UNL     1      48.098   4.589  21.706  0.00  0.00    +0.000 OA
ATOM     26  H   UNL     1      50.448   4.728  22.370  0.00  0.00    +0.000 HD
ATOM     27  H   UNL     1      51.102   4.922  20.782  0.00  0.00    +0.000 HD
ENDBRANCH  17  24
ENDBRANCH  16  20
ENDBRANCH  15  16
ENDBRANCH   1  15
TORSDOF 5
ENDMDL
MODEL 5
REMARK VINA RESULT:    -6.441      4.308      6.502
REMARK INTER + INTRA:          -9.005
REMARK INTER:                  -8.148
REMARK INTRA:                  -0.857
REMARK UNBOUND:                -0.681
REMARK  Name = 
REMARK  5 active torsions:
REMARK  status: ('A' for Active; 'I' for Inactive)
REMARK    1  A    between atoms: C_2  and  C_4
REMARK    2  A    between atoms: C_7  and  O_8
REMARK    3  A    between atoms: O_8  and  C_9
REMARK    4  A    between atoms: C_9  and  C_10
REMARK    5  A    between atoms: C_15  and  C_16
REMARK                            x       y       z     vdW  Elec       q    Type
REMARK                         _______ _______ _______ _____ _____    ______ ____
ROOT
ATOM      1  C   UNL     1      48.794   7.768  14.885  0.00  0.00    +0.000 A 
ATOM      2  C   UNL     1      48.276   8.940  15.446  0.00  0.00    +0.000 A 
ATOM      3  C   UNL     1      48.287   9.101  16.824  0.00  0.00    +0.000 A 
ATOM      4  F   UNL     1      47.774  10.214  17.364  0.00  0.00    +0.000 F 
ATOM      5  C   UNL     1      48.760   8.093  17.656  0.00  0.00    +0.000 A 
ATOM      6  C   UNL     1      49.217   6.874  17.120  0.00  0.00    +0.000 A 
ATOM      7  C   UNL     1      49.309   6.765  15.729  0.00  0.00    +0.000 A 
ENDROOT
BRANCH   6   8
ATOM      8  C   UNL     1      49.381   5.682  18.060  0.00  0.00    +0.000 C 
ATOM      9  C   UNL     1      49.412   4.251  17.474  0.00  0.00    +0.000 C 
ATOM     10  C   UNL     1      48.041   3.645  17.122  0.00  0.00    +0.000 C 
ATOM     11  N   UNL     1      46.974   3.909  18.091  0.00  0.00    +0.000 NA
ATOM     12  C   UNL     1      46.919   5.326  18.444  0.00  0.00    +0.000 C 
ATOM     13  C   UNL     1      48.238   5.739  19.094  0.00  0.00    +0.000 C 
ATOM     14  H   UNL     1      47.140   3.368  18.941  0.00  0.00    +0.000 HD
ENDBRANCH   6   8
BRANCH   1  15
ATOM     15  C   UNL     1      48.761   7.536  13.393  0.00  0.00    +0.000 C 
BRANCH  15  16
ATOM     16  O   UNL     1      48.504   6.145  13.171  0.00  0.00    +0.000 OA
BRANCH  16  20
ATOM     17  C   UNL     1      44.622   5.398  12.037  0.00  0.00    +0.000 A 
ATOM     18  C   UNL     1      45.395   6.303  11.301  0.00  0.00    +0.000 A 
ATOM     19  C   UNL     1      46.708   6.550  11.701  0.00  0.00    +0.000 A 
ATOM     20  C   UNL     1      47.203   5.886  12.813  0.00  0.00    +0.000 A 
ATOM     21  N   UNL     1      46.476   5.012  13.545  0.00  0.00    +0.000 NA
ATOM     22  C   UNL     1      45.201   4.800  13.146  0.00  0.00    +0.000 A 
BRANCH  17  24
ATOM     23  N   UNL     1      42.863   3.745  11.744  0.00  0.00    +0.000 N 
ATOM     24  C   UNL     1      43.221   5.062  11.712  0.00  0.00    +0.000 C 
ATOM     25  O   UNL     1      42.395   5.936  11.474  0.00  0.00    +0.000 OA
ATOM     26  H   UNL     1      41.874   3.552  11.637  0.00  0.00    +0.000 HD
ATOM     27  H   UNL     1      43.429   3.037  12.191  0.00  0.00    +0.000 HD
ENDBRANCH  17  24
ENDBRANCH  16  20
ENDBRANCH  15  16
ENDBRANCH   1  15
TORSDOF 5
ENDMDL
MODEL 6
REMARK VINA RESULT:    -6.287      4.934      7.896
REMARK INTER + INTRA:          -8.806
REMARK INTER:                  -8.114
REMARK INTRA:                  -0.692
REMARK UNBOUND:                -0.681
REMARK  Name = 
REMARK  5 active torsions:
REMARK  status: ('A' for Active; 'I' for Inactive)
REMARK    1  A    between atoms: C_2  and  C_4
REMARK    2  A    between atoms: C_7  and  O_8
REMARK    3  A    between atoms: O_8  and  C_9
REMARK    4  A    between atoms: C_9  and  C_10
REMARK    5  A    between atoms: C_15  and  C_16
REMARK                            x       y       z     vdW  Elec       q    Type
REMARK                         _______ _______ _______ _____ _____    ______ ____
ROOT
ATOM      1  C   UNL     1      47.705   7.064  14.127  0.00  0.00    +0.000 A 
ATOM      2  C   UNL     1      47.179   8.320  13.808  0.00  0.00    +0.000 A 
ATOM      3  C   UNL     1      46.087   8.407  12.956  0.00  0.00    +0.000 A 
ATOM      4  F   UNL     1      45.592   9.610  12.634  0.00  0.00    +0.000 F 
ATOM      5  C   UNL     1      45.542   7.267  12.375  0.00  0.00    +0.000 A 
ATOM      6  C   UNL     1      46.101   5.999  12.621  0.00  0.00    +0.000 A 
ATOM      7  C   UNL     1      47.126   5.908  13.569  0.00  0.00    +0.000 A 
ENDROOT
BRANCH   6   8
ATOM      8  C   UNL     1      45.715   4.843  11.700  0.00  0.00    +0.000 C 
ATOM      9  C   UNL     1      44.752   5.102  10.519  0.00  0.00    +0.000 C 
ATOM     10  C   UNL     1      43.257   5.170  10.880  0.00  0.00    +0.000 C 
ATOM     11  N   UNL     1      42.806   4.175  11.858  0.00  0.00    +0.000 NA
ATOM     12  C   UNL     1      43.692   4.137  13.020  0.00  0.00    +0.000 C 
ATOM     13  C   UNL     1      45.096   3.733  12.574  0.00  0.00    +0.000 C 
ATOM     14  H   UNL     1      42.793   3.250  11.427  0.00  0.00    +0.000 HD
ENDBRANCH   6   8
BRANCH   1  15
ATOM     15  C   UNL     1      48.919   6.929  15.015  0.00  0.00    +0.000 C 
BRANCH  15  16
ATOM     16  O   UNL     1      48.485   6.401  16.274  0.00  0.00    +0.000 OA
BRANCH  16  20
ATOM     17  C   UNL     1      50.584   3.064  17.445  0.00  0.00    +0.000 A 
ATOM     18  C   UNL     1      49.233   2.945  17.099  0.00  0.00    +0.000 A 
ATOM     19  C   UNL     1      48.533   4.087  16.709  0.00  0.00    +0.000 A 
ATOM     20  C   UNL     1      49.203   5.300  16.674  0.00  0.00    +0.000 A 
ATOM     21  N   UNL     1      50.505   5.443  17.009  0.00  0.00    +0.000 NA
ATOM     22  C   UNL     1      51.159   4.325  17.397  0.00  0.00    +0.000 A 
BRANCH  17  24
ATOM     23  N   UNL     1      52.528   2.207  18.627  0.00  0.00    +0.000 N 
ATOM     24  C   UNL     1      51.422   1.927  17.876  0.00  0.00    +0.000 C 
ATOM     25  O   UNL     1      51.110   0.771  17.617  0.00  0.00    +0.000 OA
ATOM     26  H   UNL     1      53.016   1.407  19.012  0.00  0.00    +0.000 HD
ATOM     27  H   UNL     1      52.666   3.099  19.083  0.00  0.00    +0.000 HD
ENDBRANCH  17  24
ENDBRANCH  16  20
ENDBRANCH  15  16
ENDBRANCH   1  15
TORSDOF 5
ENDMDL
MODEL 7
REMARK VINA RESULT:    -6.241      3.878      6.126
REMARK INTER + INTRA:          -8.747
REMARK INTER:                  -7.932
REMARK INTRA:                  -0.814
REMARK UNBOUND:                -0.681
REMARK  Name = 
REMARK  5 active torsions:
REMARK  status: ('A' for Active; 'I' for Inactive)
REMARK    1  A    between atoms: C_2  and  C_4
REMARK    2  A    between atoms: C_7  and  O_8
REMARK    3  A    between atoms: O_8  and  C_9
REMARK    4  A    between atoms: C_9  and  C_10
REMARK    5  A    between atoms: C_15  and  C_16
REMARK                            x       y       z     vdW  Elec       q    Type
REMARK                         _______ _______ _______ _____ _____    ______ ____
ROOT
ATOM      1  C   UNL     1      46.901   9.454  12.145  0.00  0.00    +0.000 A 
ATOM      2  C   UNL     1      48.074   9.954  11.570  0.00  0.00    +0.000 A 
ATOM      3  C   UNL     1      48.060  11.203  10.965  0.00  0.00    +0.000 A 
ATOM      4  F   UNL     1      49.177  11.676  10.397  0.00  0.00    +0.000 F 
ATOM      5  C   UNL     1      46.885  11.940  10.878  0.00  0.00    +0.000 A 
ATOM      6  C   UNL     1      45.675  11.426  11.382  0.00  0.00    +0.000 A 
ATOM      7  C   UNL     1      45.722  10.221  12.091  0.00  0.00    +0.000 A 
ENDROOT
BRANCH   6   8
ATOM      8  C   UNL     1      44.367  12.087  10.951  0.00  0.00    +0.000 C 
ATOM      9  C   UNL     1      43.024  11.386  11.258  0.00  0.00    +0.000 C 
ATOM     10  C   UNL     1      42.634  10.244  10.302  0.00  0.00    +0.000 C 
ATOM     11  N   UNL     1      42.906  10.497   8.884  0.00  0.00    +0.000 NA
ATOM     12  C   UNL     1      44.267  10.991   8.687  0.00  0.00    +0.000 C 
ATOM     13  C   UNL     1      44.437  12.317   9.427  0.00  0.00    +0.000 C 
ATOM     14  H   UNL     1      42.251  11.194   8.528  0.00  0.00    +0.000 HD
ENDBRANCH   6   8
BRANCH   1  15
ATOM     15  C   UNL     1      46.865   8.082  12.775  0.00  0.00    +0.000 C 
BRANCH  15  16
ATOM     16  O   UNL     1      45.498   7.767  13.063  0.00  0.00    +0.000 OA
BRANCH  16  20
ATOM     17  C   UNL     1      44.358   4.155  11.461  0.00  0.00    +0.000 A 
ATOM     18  C   UNL     1      45.110   5.047  10.689  0.00  0.00    +0.000 A 
ATOM     19  C   UNL     1      45.485   6.271  11.244  0.00  0.00    +0.000 A 
ATOM     20  C   UNL     1      45.101   6.558  12.545  0.00  0.00    +0.000 A 
ATOM     21  N   UNL     1      44.369   5.717  13.310  0.00  0.00    +0.000 NA
ATOM     22  C   UNL     1      44.006   4.543  12.745  0.00  0.00    +0.000 A 
BRANCH  17  24
ATOM     23  N   UNL     1      44.609   2.254   9.967  0.00  0.00    +0.000 N 
ATOM     24  C   UNL     1      43.901   2.836  10.978  0.00  0.00    +0.000 C 
ATOM     25  O   UNL     1      42.953   2.260  11.500  0.00  0.00    +0.000 OA
ATOM     26  H   UNL     1      44.352   1.301   9.738  0.00  0.00    +0.000 HD
ATOM     27  H   UNL     1      45.535   2.561   9.702  0.00  0.00    +0.000 HD
ENDBRANCH  17  24
ENDBRANCH  16  20
ENDBRANCH  15  16
ENDBRANCH   1  15
TORSDOF 5
ENDMDL
MODEL 8
REMARK VINA RESULT:    -6.126      3.996      6.630
REMARK INTER + INTRA:          -8.598
REMARK INTER:                  -7.670
REMARK INTRA:                  -0.927
REMARK UNBOUND:                -0.681
REMARK  Name = 
REMARK  5 active torsions:
REMARK  status: ('A' for Active; 'I' for Inactive)
REMARK    1  A    between atoms: C_2  and  C_4
REMARK    2  A    between atoms: C_7  and  O_8
REMARK    3  A    between atoms: O_8  and  C_9
REMARK    4  A    between atoms: C_9  and  C_10
REMARK    5  A    between atoms: C_15  and  C_16
REMARK                            x       y       z     vdW  Elec       q    Type
REMARK                         _______ _______ _______ _____ _____    ______ ____
ROOT
ATOM      1  C   UNL     1      47.132   6.691  12.833  0.00  0.00    +0.000 A 
ATOM      2  C   UNL     1      47.615   6.302  14.087  0.00  0.00    +0.000 A 
ATOM      3  C   UNL     1      47.340   5.027  14.560  0.00  0.00    +0.000 A 
ATOM      4  F   UNL     1      47.784   4.659  15.769  0.00  0.00    +0.000 F 
ATOM      5  C   UNL     1      46.548   4.149  13.827  0.00  0.00    +0.000 A 
ATOM      6  C   UNL     1      45.989   4.544  12.597  0.00  0.00    +0.000 A 
ATOM      7  C   UNL     1      46.365   5.785  12.075  0.00  0.00    +0.000 A 
ENDROOT
BRANCH   6   8
ATOM      8  C   UNL     1      44.855   3.705  12.011  0.00  0.00    +0.000 C 
ATOM      9  C   UNL     1      44.254   4.091  10.640  0.00  0.00    +0.000 C 
ATOM     10  C   UNL     1      43.240   5.250  10.659  0.00  0.00    +0.000 C 
ATOM     11  N   UNL     1      42.298   5.237  11.781  0.00  0.00    +0.000 NA
ATOM     12  C   UNL     1      42.992   5.041  13.052  0.00  0.00    +0.000 C 
ATOM     13  C   UNL     1      43.704   3.689  13.038  0.00  0.00    +0.000 C 
ATOM     14  H   UNL     1      41.626   4.479  11.657  0.00  0.00    +0.000 HD
ENDBRANCH   6   8
BRANCH   1  15
ATOM     15  C   UNL     1      47.374   8.084  12.302  0.00  0.00    +0.000 C 
BRANCH  15  16
ATOM     16  O   UNL     1      46.391   8.950  12.879  0.00  0.00    +0.000 OA
BRANCH  16  20
ATOM     17  C   UNL     1      43.706  10.421  10.133  0.00  0.00    +0.000 A 
ATOM     18  C   UNL     1      43.514   9.143  10.672  0.00  0.00    +0.000 A 
ATOM     19  C   UNL     1      44.436   8.656  11.598  0.00  0.00    +0.000 A 
ATOM     20  C   UNL     1      45.509   9.458  11.955  0.00  0.00    +0.000 A 
ATOM     21  N   UNL     1      45.721  10.692  11.445  0.00  0.00    +0.000 NA
ATOM     22  C   UNL     1      44.822  11.137  10.539  0.00  0.00    +0.000 A 
BRANCH  17  24
ATOM     23  N   UNL     1      43.224  11.093   7.847  0.00  0.00    +0.000 N 
ATOM     24  C   UNL     1      42.800  11.037   9.143  0.00  0.00    +0.000 C 
ATOM     25  O   UNL     1      41.685  11.436   9.461  0.00  0.00    +0.000 OA
ATOM     26  H   UNL     1      42.540  11.406   7.169  0.00  0.00    +0.000 HD
ATOM     27  H   UNL     1      43.999  10.543   7.502  0.00  0.00    +0.000 HD
ENDBRANCH  17  24
ENDBRANCH  16  20
ENDBRANCH  15  16
ENDBRANCH   1  15
TORSDOF 5
ENDMDL
MODEL 9
REMARK VINA RESULT:    -6.009      4.706      8.387
REMARK INTER + INTRA:          -8.447
REMARK INTER:                  -7.670
REMARK INTRA:                  -0.778
REMARK UNBOUND:                -0.681
REMARK  Name = 
REMARK  5 active torsions:
REMARK  status: ('A' for Active; 'I' for Inactive)
REMARK    1  A    between atoms: C_2  and  C_4
REMARK    2  A    between atoms: C_7  and  O_8
REMARK    3  A    between atoms: O_8  and  C_9
REMARK    4  A    between atoms: C_9  and  C_10
REMARK    5  A    between atoms: C_15  and  C_16
REMARK                            x       y       z     vdW  Elec       q    Type
REMARK                         _______ _______ _______ _____ _____    ______ ____
ROOT
ATOM      1  C   UNL     1      47.861   7.448  13.408  0.00  0.00    +0.000 A 
ATOM      2  C   UNL     1      47.203   8.675  13.274  0.00  0.00    +0.000 A 
ATOM      3  C   UNL     1      45.942   8.716  12.697  0.00  0.00    +0.000 A 
ATOM      4  F   UNL     1      45.318   9.892  12.550  0.00  0.00    +0.000 F 
ATOM      5  C   UNL     1      45.346   7.561  12.204  0.00  0.00    +0.000 A 
ATOM      6  C   UNL     1      46.019   6.325  12.259  0.00  0.00    +0.000 A 
ATOM      7  C   UNL     1      47.237   6.274  12.944  0.00  0.00    +0.000 A 
ENDROOT
BRANCH   6   8
ATOM      8  C   UNL     1      45.500   5.175  11.398  0.00  0.00    +0.000 C 
ATOM      9  C   UNL     1      44.233   5.383  10.536  0.00  0.00    +0.000 C 
ATOM     10  C   UNL     1      42.892   5.283  11.286  0.00  0.00    +0.000 C 
ATOM     11  N   UNL     1      42.812   4.208  12.279  0.00  0.00    +0.000 NA
ATOM     12  C   UNL     1      43.980   4.212  13.158  0.00  0.00    +0.000 C 
ATOM     13  C   UNL     1      45.240   3.973  12.329  0.00  0.00    +0.000 C 
ATOM     14  H   UNL     1      42.764   3.305  11.806  0.00  0.00    +0.000 HD
ENDBRANCH   6   8
BRANCH   1  15
ATOM     15  C   UNL     1      49.252   7.368  13.991  0.00  0.00    +0.000 C 
BRANCH  15  16
ATOM     16  O   UNL     1      49.228   8.007  15.272  0.00  0.00    +0.000 OA
BRANCH  16  20
ATOM     17  C   UNL     1      48.680   5.420  18.421  0.00  0.00    +0.000 A 
ATOM     18  C   UNL     1      48.474   6.792  18.609  0.00  0.00    +0.000 A 
ATOM     19  C   UNL     1      48.669   7.657  17.533  0.00  0.00    +0.000 A 
ATOM     20  C   UNL     1      49.057   7.127  16.313  0.00  0.00    +0.000 A 
ATOM     21  N   UNL     1      49.269   5.807  16.106  0.00  0.00    +0.000 NA
ATOM     22  C   UNL     1      49.088   4.990  17.167  0.00  0.00    +0.000 A 
BRANCH  17  24
ATOM     23  N   UNL     1      48.436   3.101  19.111  0.00  0.00    +0.000 N 
ATOM     24  C   UNL     1      48.509   4.412  19.487  0.00  0.00    +0.000 C 
ATOM     25  O   UNL     1      48.487   4.732  20.670  0.00  0.00    +0.000 OA
ATOM     26  H   UNL     1      48.443   2.424  19.864  0.00  0.00    +0.000 HD
ATOM     27  H   UNL     1      48.719   2.780  18.195  0.00  0.00    +0.000 HD
ENDBRANCH  17  24
ENDBRANCH  16  20
ENDBRANCH  15  16
ENDBRANCH   1  15
TORSDOF 5
ENDMDL
