MODEL 1
REMARK VINA RESULT:    -8.192      0.000      0.000
REMARK INTER + INTRA:         -10.776
REMARK INTER:                 -10.108
REMARK INTRA:                  -0.668
REMARK UNBOUND:                -0.668
REMARK  Name = 
REMARK  4 active torsions:
REMARK  status: ('A' for Active; 'I' for Inactive)
REMARK    1  A    between atoms: C_2  and  C_5
REMARK    2  A    between atoms: N_9  and  C_10
REMARK    3  A    between atoms: C_10  and  C_11
REMARK    4  A    between atoms: C_15  and  C_16
REMARK                            x       y       z     vdW  Elec       q    Type
REMARK                         _______ _______ _______ _____ _____    ______ ____
ROOT
ATOM      1  C   UNL     1      44.036   5.375  10.817  0.00  0.00    +0.000 C 
ENDROOT
BRANCH   1   6
ATOM      2  C   UNL     1      46.447   2.556   7.496  0.00  0.00    +0.000 A 
ATOM      3  C   UNL     1      45.799   1.777   8.422  0.00  0.00    +0.000 A 
ATOM      4  N   UNL     1      44.962   2.271   9.356  0.00  0.00    +0.000 NA
ATOM      5  C   UNL     1      44.756   3.594   9.363  0.00  0.00    +0.000 A 
ATOM      6  N   UNL     1      43.838   4.043  10.289  0.00  0.00    +0.000 N 
ATOM      7  N   UNL     1      45.359   4.441   8.518  0.00  0.00    +0.000 NA
ATOM      8  C   UNL     1      46.189   3.902   7.597  0.00  0.00    +0.000 A 
ATOM      9  H   UNL     1      43.721   3.308  10.978  0.00  0.00    +0.000 HD
BRANCH   2  11
ATOM     10  F   UNL     1      47.390   0.634   6.459  0.00  0.00    +0.000 F 
ATOM     11  C   UNL     1      47.350   1.995   6.463  0.00  0.00    +0.000 C 
ATOM     12  F   UNL     1      48.639   2.403   6.617  0.00  0.00    +0.000 F 
ATOM     13  F   UNL     1      46.993   2.359   5.201  0.00  0.00    +0.000 F 
ENDBRANCH   2  11
ENDBRANCH   1   6
BRANCH   1  14
ATOM     14  C   UNL     1      45.086   5.322  11.898  0.00  0.00    +0.000 A 
ATOM     15  C   UNL     1      44.989   4.474  12.988  0.00  0.00    +0.000 A 
ATOM     16  N   UNL     1      45.920   4.397  13.965  0.00  0.00    +0.000 NA
ATOM     17  C   UNL     1      46.993   5.216  13.855  0.00  0.00    +0.000 A 
ATOM     18  C   UNL     1      47.199   6.127  12.822  0.00  0.00    +0.000 A 
ATOM     19  C   UNL     1      46.221   6.141  11.823  0.00  0.00    +0.000 A 
BRANCH  18  20
ATOM     20  C   UNL     1      48.447   6.998  12.791  0.00  0.00    +0.000 C 
ATOM     21  C   UNL     1      48.888   7.474  14.192  0.00  0.00    +0.000 C 
ATOM     22  C   UNL     1      48.040   8.639  14.701  0.00  0.00    +0.000 C 
ATOM     23  N   UNL     1      48.058   9.774  13.778  0.00  0.00    +0.000 NA
ATOM     24  C   UNL     1      47.582   9.387  12.451  0.00  0.00    +0.000 C 
ATOM     25  C   UNL     1      48.393   8.228  11.861  0.00  0.00    +0.000 C 
ATOM     26  H   UNL     1      49.008  10.136  13.702  0.00  0.00    +0.000 HD
ENDBRANCH  18  20
ENDBRANCH   1  14
TORSDOF 4
ENDMDL
MODEL 2
REMARK VINA RESULT:    -6.943      5.453      8.553
REMARK INTER + INTRA:          -9.235
REMARK INTER:                  -9.009
REMARK INTRA:                  -0.226
REMARK UNBOUND:                -0.668
REMARK  Name = 
REMARK  4 active torsions:
REMARK  status: ('A' for Active; 'I' for Inactive)
REMARK    1  A    between atoms: C_2  and  C_5
REMARK    2  A    between atoms: N_9  and  C_10
REMARK    3  A    between atoms: C_10  and  C_11
REMARK    4  A    between atoms: C_15  and  C_16
REMARK                            x       y       z     vdW  Elec       q    Type
REMARK                         _______ _______ _______ _____ _____    ______ ____
ROOT
ATOM      1  C   UNL     1      46.977   4.276  15.316  0.00  0.00    +0.000 C 
ENDROOT
BRANCH   1   6
ATOM      2  C   UNL     1      51.281   3.440  17.673  0.00  0.00    +0.000 A 
ATOM      3  C   UNL     1      51.109   4.780  17.428  0.00  0.00    +0.000 A 
ATOM      4  N   UNL     1      49.974   5.304  16.923  0.00  0.00    +0.000 NA
ATOM      5  C   UNL     1      48.968   4.461  16.659  0.00  0.00    +0.000 A 
ATOM      6  N   UNL     1      47.806   5.053  16.212  0.00  0.00    +0.000 N 
ATOM      7  N   UNL     1      49.046   3.136  16.840  0.00  0.00    +0.000 NA
ATOM      8  C   UNL     1      50.201   2.653  17.350  0.00  0.00    +0.000 A 
ATOM      9  H   UNL     1      48.044   5.985  15.894  0.00  0.00    +0.000 HD
BRANCH   2  11
ATOM     10  F   UNL     1      52.786   3.314  19.512  0.00  0.00    +0.000 F 
ATOM     11  C   UNL     1      52.529   2.881  18.247  0.00  0.00    +0.000 C 
ATOM     12  F   UNL     1      53.630   3.201  17.515  0.00  0.00    +0.000 F 
ATOM     13  F   UNL     1      52.511   1.522  18.317  0.00  0.00    +0.000 F 
ENDBRANCH   2  11
ENDBRANCH   1   6
BRANCH   1  14
ATOM     14  C   UNL     1      46.831   5.021  14.014  0.00  0.00    +0.000 A 
ATOM     15  C   UNL     1      47.727   5.997  13.612  0.00  0.00    +0.000 A 
ATOM     16  N   UNL     1      47.628   6.673  12.445  0.00  0.00    +0.000 NA
ATOM     17  C   UNL     1      46.577   6.368  11.647  0.00  0.00    +0.000 A 
ATOM     18  C   UNL     1      45.597   5.424  11.945  0.00  0.00    +0.000 A 
ATOM     19  C   UNL     1      45.768   4.733  13.148  0.00  0.00    +0.000 A 
BRANCH  18  20
ATOM     20  C   UNL     1      44.458   5.153  10.972  0.00  0.00    +0.000 C 
ATOM     21  C   UNL     1      43.230   4.501  11.643  0.00  0.00    +0.000 C 
ATOM     22  C   UNL     1      43.429   3.006  11.888  0.00  0.00    +0.000 C 
ATOM     23  N   UNL     1      43.742   2.286  10.653  0.00  0.00    +0.000 NA
ATOM     24  C   UNL     1      44.941   2.825  10.014  0.00  0.00    +0.000 C 
ATOM     25  C   UNL     1      44.817   4.324   9.720  0.00  0.00    +0.000 C 
ATOM     26  H   UNL     1      42.956   2.359  10.008  0.00  0.00    +0.000 HD
ENDBRANCH  18  20
ENDBRANCH   1  14
TORSDOF 4
ENDMDL
MODEL 3
REMARK VINA RESULT:    -6.776      4.819      7.782
REMARK INTER + INTRA:          -9.029
REMARK INTER:                  -8.631
REMARK INTRA:                  -0.398
REMARK UNBOUND:                -0.668
REMARK  Name = 
REMARK  4 active torsions:
REMARK  status: ('A' for Active; 'I' for Inactive)
REMARK    1  A    between atoms: C_2  and  C_5
REMARK    2  A    between atoms: N_9  and  C_10
REMARK    3  A    between atoms: C_10  and  C_11
REMARK    4  A    between atoms: C_15  and  C_16
REMARK                            x       y       z     vdW  Elec       q    Type
REMARK                         _______ _______ _______ _____ _____    ______ ____
ROOT
ATOM      1  C   UNL     1      48.450   7.030  12.674  0.00  0.00    +0.000 C 
ENDROOT
BRANCH   1   6
ATOM      2  C   UNL     1      48.302   4.393  16.894  0.00  0.00    +0.000 A 
ATOM      3  C   UNL     1      49.066   5.523  17.049  0.00  0.00    +0.000 A 
ATOM      4  N   UNL     1      49.169   6.486  16.111  0.00  0.00    +0.000 NA
ATOM      5  C   UNL     1      48.479   6.319  14.976  0.00  0.00    +0.000 A 
ATOM      6  N   UNL     1      48.562   7.362  14.078  0.00  0.00    +0.000 N 
ATOM      7  N   UNL     1      47.726   5.241  14.719  0.00  0.00    +0.000 NA
ATOM      8  C   UNL     1      47.649   4.302  15.689  0.00  0.00    +0.000 A 
ATOM      9  H   UNL     1      49.367   7.920  14.336  0.00  0.00    +0.000 HD
BRANCH   2  11
ATOM     10  F   UNL     1      48.177   3.857  19.209  0.00  0.00    +0.000 F 
ATOM     11  C   UNL     1      48.182   3.353  17.944  0.00  0.00    +0.000 C 
ATOM     12  F   UNL     1      49.203   2.454  17.909  0.00  0.00    +0.000 F 
ATOM     13  F   UNL     1      47.039   2.623  17.832  0.00  0.00    +0.000 F 
ENDBRANCH   2  11
ENDBRANCH   1   6
BRANCH   1  14
ATOM     14  C   UNL     1      47.029   7.263  12.228  0.00  0.00    +0.000 A 
ATOM     15  C   UNL     1      46.439   8.516  12.251  0.00  0.00    +0.000 A 
ATOM     16  N   UNL     1      45.172   8.757  11.845  0.00  0.00    +0.000 NA
ATOM     17  C   UNL     1      44.456   7.693  11.409  0.00  0.00    +0.000 A 
ATOM     18  C   UNL     1      44.924   6.383  11.356  0.00  0.00    +0.000 A 
ATOM     19  C   UNL     1      46.251   6.198  11.756  0.00  0.00    +0.000 A 
BRANCH  18  20
ATOM     20  C   UNL     1      44.034   5.260  10.841  0.00  0.00    +0.000 C 
ATOM     21  C   UNL     1      42.846   4.952  11.776  0.00  0.00    +0.000 C 
ATOM     22  C   UNL     1      43.263   4.119  12.988  0.00  0.00    +0.000 C 
ATOM     23  N   UNL     1      43.905   2.864  12.595  0.00  0.00    +0.000 NA
ATOM     24  C   UNL     1      45.081   3.109  11.762  0.00  0.00    +0.000 C 
ATOM     25  C   UNL     1      44.745   3.929  10.512  0.00  0.00    +0.000 C 
ATOM     26  H   UNL     1      43.241   2.289  12.079  0.00  0.00    +0.000 HD
ENDBRANCH  18  20
ENDBRANCH   1  14
TORSDOF 4
ENDMDL
MODEL 4
REMARK VINA RESULT:    -6.570      4.545      6.210
REMARK INTER + INTRA:          -8.774
REMARK INTER:                  -8.273
REMARK INTRA:                  -0.500
REMARK UNBOUND:                -0.668
REMARK  Name = 
REMARK  4 active torsions:
REMARK  status: ('A' for Active; 'I' for Inactive)
REMARK    1  A    between atoms: C_2  and  C_5
REMARK    2  A    between atoms: N_9  and  C_10
REMARK    3  A    between atoms: C_10  and  C_11
REMARK    4  A    between atoms: C_15  and  C_16
REMARK                            x       y       z     vdW  Elec       q    Type
REMARK                         _______ _______ _______ _____ _____    ______ ____
ROOT
ATOM      1  C   UNL     1      46.994   4.048  16.243  0.00  0.00    +0.000 C 
ENDROOT
BRANCH   1   6
ATOM      2  C   UNL     1      45.130   4.471  11.647  0.00  0.00    +0.000 A 
ATOM      3  C   UNL     1      45.496   5.698  12.142  0.00  0.00    +0.000 A 
ATOM      4  N   UNL     1      46.151   5.864  13.308  0.00  0.00    +0.000 NA
ATOM      5  C   UNL     1      46.459   4.765  14.006  0.00  0.00    +0.000 A 
ATOM      6  N   UNL     1      47.190   4.982  15.155  0.00  0.00    +0.000 N 
ATOM      7  N   UNL     1      46.125   3.526  13.621  0.00  0.00    +0.000 NA
ATOM      8  C   UNL     1      45.471   3.405  12.444  0.00  0.00    +0.000 A 
ATOM      9  H   UNL     1      47.095   5.962  15.393  0.00  0.00    +0.000 HD
BRANCH   2  11
ATOM     10  F   UNL     1      43.267   5.011  10.269  0.00  0.00    +0.000 F 
ATOM     11  C   UNL     1      44.427   4.303  10.352  0.00  0.00    +0.000 C 
ATOM     12  F   UNL     1      44.089   3.008  10.104  0.00  0.00    +0.000 F 
ATOM     13  F   UNL     1      45.180   4.700   9.291  0.00  0.00    +0.000 F 
ENDBRANCH   2  11
ENDBRANCH   1   6
BRANCH   1  14
ATOM     14  C   UNL     1      48.332   3.486  16.652  0.00  0.00    +0.000 A 
ATOM     15  C   UNL     1      48.748   2.217  16.285  0.00  0.00    +0.000 A 
ATOM     16  N   UNL     1      49.946   1.692  16.626  0.00  0.00    +0.000 NA
ATOM     17  C   UNL     1      50.762   2.466  17.381  0.00  0.00    +0.000 A 
ATOM     18  C   UNL     1      50.455   3.748  17.832  0.00  0.00    +0.000 A 
ATOM     19  C   UNL     1      49.217   4.253  17.421  0.00  0.00    +0.000 A 
BRANCH  18  20
ATOM     20  C   UNL     1      51.450   4.536  18.671  0.00  0.00    +0.000 C 
ATOM     21  C   UNL     1      51.498   6.035  18.305  0.00  0.00    +0.000 C 
ATOM     22  C   UNL     1      52.305   6.295  17.033  0.00  0.00    +0.000 C 
ATOM     23  N   UNL     1      53.671   5.780  17.137  0.00  0.00    +0.000 NA
ATOM     24  C   UNL     1      53.677   4.345  17.416  0.00  0.00    +0.000 C 
ATOM     25  C   UNL     1      52.898   3.999  18.689  0.00  0.00    +0.000 C 
ATOM     26  H   UNL     1      54.164   6.269  17.882  0.00  0.00    +0.000 HD
ENDBRANCH  18  20
ENDBRANCH   1  14
TORSDOF 4
ENDMDL
MODEL 5
REMARK VINA RESULT:    -6.503      4.610      6.181
REMARK INTER + INTRA:          -8.691
REMARK INTER:                  -8.309
REMARK INTRA:                  -0.382
REMARK UNBOUND:                -0.668
REMARK  Name = 
REMARK  4 active torsions:
REMARK  status: ('A' for Active; 'I' for Inactive)
REMARK    1  A    between atoms: C_2  and  C_5
REMARK    2  A    between atoms: N_9  and  C_10
REMARK    3  A    between atoms: C_10  and  C_11
REMARK    4  A    between atoms: C_15  and  C_16
REMARK                            x       y       z     vdW  Elec       q    Type
REMARK                         _______ _______ _______ _____ _____    ______ ____
ROOT
ATOM      1  C   UNL     1      46.993   4.080  16.202  0.00  0.00    +0.000 C 
ENDROOT
BRANCH   1   6
ATOM      2  C   UNL     1      45.036   4.441  11.639  0.00  0.00    +0.000 A 
ATOM      3  C   UNL     1      45.376   5.679  12.126  0.00  0.00    +0.000 A 
ATOM      4  N   UNL     1      46.046   5.865  13.280  0.00  0.00    +0.000 NA
ATOM      5  C   UNL     1      46.398   4.776  13.974  0.00  0.00    +0.000 A 
ATOM      6  N   UNL     1      47.142   5.016  15.110  0.00  0.00    +0.000 N 
ATOM      7  N   UNL     1      46.091   3.527  13.597  0.00  0.00    +0.000 NA
ATOM      8  C   UNL     1      45.421   3.386  12.432  0.00  0.00    +0.000 A 
ATOM      9  H   UNL     1      47.024   5.994  15.348  0.00  0.00    +0.000 HD
BRANCH   2  11
ATOM     10  F   UNL     1      45.057   4.580   9.264  0.00  0.00    +0.000 F 
ATOM     11  C   UNL     1      44.315   4.250  10.358  0.00  0.00    +0.000 C 
ATOM     12  F   UNL     1      43.183   5.001  10.277  0.00  0.00    +0.000 F 
ATOM     13  F   UNL     1      43.922   2.962  10.163  0.00  0.00    +0.000 F 
ENDBRANCH   2  11
ENDBRANCH   1   6
BRANCH   1  14
ATOM     14  C   UNL     1      48.359   3.621  16.645  0.00  0.00    +0.000 A 
ATOM     15  C   UNL     1      48.807   2.326  16.451  0.00  0.00    +0.000 A 
ATOM     16  N   UNL     1      50.031   1.890  16.826  0.00  0.00    +0.000 NA
ATOM     17  C   UNL     1      50.841   2.789  17.436  0.00  0.00    +0.000 A 
ATOM     18  C   UNL     1      50.503   4.112  17.709  0.00  0.00    +0.000 A 
ATOM     19  C   UNL     1      49.238   4.516  17.269  0.00  0.00    +0.000 A 
BRANCH  18  20
ATOM     20  C   UNL     1      51.493   5.042  18.396  0.00  0.00    +0.000 C 
ATOM     21  C   UNL     1      51.798   4.632  19.852  0.00  0.00    +0.000 C 
ATOM     22  C   UNL     1      50.684   5.043  20.815  0.00  0.00    +0.000 C 
ATOM     23  N   UNL     1      50.419   6.481  20.764  0.00  0.00    +0.000 NA
ATOM     24  C   UNL     1      50.058   6.906  19.413  0.00  0.00    +0.000 C 
ATOM     25  C   UNL     1      51.134   6.543  18.384  0.00  0.00    +0.000 C 
ATOM     26  H   UNL     1      51.249   6.991  21.066  0.00  0.00    +0.000 HD
ENDBRANCH  18  20
ENDBRANCH   1  14
TORSDOF 4
ENDMDL
MODEL 6
REMARK VINA RESULT:    -6.462      3.447      5.635
REMARK INTER + INTRA:          -8.641
REMARK INTER:                  -8.361
REMARK INTRA:                  -0.280
REMARK UNBOUND:                -0.668
REMARK  Name = 
REMARK  4 active torsions:
REMARK  status: ('A' for Active; 'I' for Inactive)
REMARK    1  A    between atoms: C_2  and  C_5
REMARK    2  A    between atoms: N_9  and  C_10
REMARK    3  A    between atoms: C_10  and  C_11
REMARK    4  A    between atoms: C_15  and  C_16
REMARK                            x       y       z     vdW  Elec       q    Type
REMARK                         _______ _______ _______ _____ _____    ______ ____
ROOT
ATOM      1  C   UNL     1      48.228   7.536  13.718  0.00  0.00    +0.000 C 
ENDROOT
BRANCH   1   6
ATOM      2  C   UNL     1      45.032   4.588  11.295  0.00  0.00    +0.000 A 
ATOM      3  C   UNL     1      44.980   4.359  12.647  0.00  0.00    +0.000 A 
ATOM      4  N   UNL     1      45.640   5.107  13.554  0.00  0.00    +0.000 NA
ATOM      5  C   UNL     1      46.376   6.127  13.095  0.00  0.00    +0.000 A 
ATOM      6  N   UNL     1      46.974   6.905  14.065  0.00  0.00    +0.000 N 
ATOM      7  N   UNL     1      46.510   6.417  11.794  0.00  0.00    +0.000 NA
ATOM      8  C   UNL     1      45.829   5.643  10.920  0.00  0.00    +0.000 A 
ATOM      9  H   UNL     1      46.973   6.369  14.925  0.00  0.00    +0.000 HD
BRANCH   2  11
ATOM     10  F   UNL     1      45.068   2.879   9.638  0.00  0.00    +0.000 F 
ATOM     11  C   UNL     1      44.284   3.767  10.311  0.00  0.00    +0.000 C 
ATOM     12  F   UNL     1      43.676   4.521   9.356  0.00  0.00    +0.000 F 
ATOM     13  F   UNL     1      43.297   3.028  10.887  0.00  0.00    +0.000 F 
ENDBRANCH   2  11
ENDBRANCH   1   6
BRANCH   1  14
ATOM     14  C   UNL     1      49.270   7.147  14.736  0.00  0.00    +0.000 A 
ATOM     15  C   UNL     1      50.569   7.623  14.690  0.00  0.00    +0.000 A 
ATOM     16  N   UNL     1      51.520   7.301  15.596  0.00  0.00    +0.000 NA
ATOM     17  C   UNL     1      51.158   6.453  16.588  0.00  0.00    +0.000 A 
ATOM     18  C   UNL     1      49.893   5.889  16.735  0.00  0.00    +0.000 A 
ATOM     19  C   UNL     1      48.942   6.283  15.789  0.00  0.00    +0.000 A 
BRANCH  18  20
ATOM     20  C   UNL     1      49.591   4.950  17.895  0.00  0.00    +0.000 C 
ATOM     21  C   UNL     1      49.423   3.480  17.455  0.00  0.00    +0.000 C 
ATOM     22  C   UNL     1      48.054   3.214  16.831  0.00  0.00    +0.000 C 
ATOM     23  N   UNL     1      46.961   3.575  17.735  0.00  0.00    +0.000 NA
ATOM     24  C   UNL     1      47.039   4.981  18.126  0.00  0.00    +0.000 C 
ATOM     25  C   UNL     1      48.382   5.329  18.776  0.00  0.00    +0.000 C 
ATOM     26  H   UNL     1      47.003   2.991  18.570  0.00  0.00    +0.000 HD
ENDBRANCH  18  20
ENDBRANCH   1  14
TORSDOF 4
ENDMDL
MODEL 7
REMARK VINA RESULT:    -6.156      4.776      6.488
REMARK INTER + INTRA:          -8.263
REMARK INTER:                  -7.844
REMARK INTRA:                  -0.419
REMARK UNBOUND:                -0.668
REMARK  Name = 
REMARK  4 active torsions:
REMARK  status: ('A' for Active; 'I' for Inactive)
REMARK    1  A    between atoms: C_2  and  C_5
REMARK    2  A    between atoms: N_9  and  C_10
REMARK    3  A    between atoms: C_10  and  C_11
REMARK    4  A    between atoms: C_15  and  C_16
REMARK                            x       y       z     vdW  Elec       q    Type
REMARK                         _______ _______ _______ _____ _____    ______ ____
ROOT
ATOM      1  C   UNL     1      47.150   4.208  16.037  0.00  0.00    +0.000 C 
ENDROOT
BRANCH   1   6
ATOM      2  C   UNL     1      44.991   4.521  11.562  0.00  0.00    +0.000 A 
ATOM      3  C   UNL     1      45.359   5.763  12.016  0.00  0.00    +0.000 A 
ATOM      4  N   UNL     1      46.082   5.961  13.137  0.00  0.00    +0.000 NA
ATOM      5  C   UNL     1      46.459   4.879  13.829  0.00  0.00    +0.000 A 
ATOM      6  N   UNL     1      47.255   5.129  14.926  0.00  0.00    +0.000 N 
ATOM      7  N   UNL     1      46.129   3.627  13.482  0.00  0.00    +0.000 NA
ATOM      8  C   UNL     1      45.406   3.474  12.351  0.00  0.00    +0.000 A 
ATOM      9  H   UNL     1      47.153   6.111  15.156  0.00  0.00    +0.000 HD
BRANCH   2  11
ATOM     10  F   UNL     1      43.085   5.080  10.252  0.00  0.00    +0.000 F 
ATOM     11  C   UNL     1      44.212   4.318  10.317  0.00  0.00    +0.000 C 
ATOM     12  F   UNL     1      43.797   3.031  10.163  0.00  0.00    +0.000 F 
ATOM     13  F   UNL     1      44.926   4.615   9.197  0.00  0.00    +0.000 F 
ENDBRANCH   2  11
ENDBRANCH   1   6
BRANCH   1  14
ATOM     14  C   UNL     1      47.841   4.807  17.236  0.00  0.00    +0.000 A 
ATOM     15  C   UNL     1      47.153   5.198  18.372  0.00  0.00    +0.000 A 
ATOM     16  N   UNL     1      47.747   5.725  19.466  0.00  0.00    +0.000 NA
ATOM     17  C   UNL     1      49.092   5.883  19.417  0.00  0.00    +0.000 A 
ATOM     18  C   UNL     1      49.895   5.551  18.329  0.00  0.00    +0.000 A 
ATOM     19  C   UNL     1      49.232   4.978  17.239  0.00  0.00    +0.000 A 
BRANCH  18  20
ATOM     20  C   UNL     1      51.402   5.763  18.381  0.00  0.00    +0.000 C 
ATOM     21  C   UNL     1      52.192   4.688  17.606  0.00  0.00    +0.000 C 
ATOM     22  C   UNL     1      52.310   3.380  18.388  0.00  0.00    +0.000 C 
ATOM     23  N   UNL     1      52.927   3.580  19.700  0.00  0.00    +0.000 NA
ATOM     24  C   UNL     1      52.171   4.543  20.500  0.00  0.00    +0.000 C 
ATOM     25  C   UNL     1      52.020   5.893  19.790  0.00  0.00    +0.000 C 
ATOM     26  H   UNL     1      53.881   3.918  19.580  0.00  0.00    +0.000 HD
ENDBRANCH  18  20
ENDBRANCH   1  14
TORSDOF 4
ENDMDL
MODEL 8
REMARK VINA RESULT:    -6.093      2.285      3.204
REMARK INTER + INTRA:          -8.186
REMARK INTER:                  -7.714
REMARK INTRA:                  -0.472
REMARK UNBOUND:                -0.668
REMARK  Name = 
REMARK  4 active torsions:
REMARK  status: ('A' for Active; 'I' for Inactive)
REMARK    1  A    between atoms: C_2  and  C_5
REMARK    2  A    between atoms: N_9  and  C_10
REMARK    3  A    between atoms: C_10  and  C_11
REMARK    4  A    between atoms: C_15  and  C_16
REMARK                            x       y       z     vdW  Elec       q    Type
REMARK                         _______ _______ _______ _____ _____    ______ ____
ROOT
ATOM      1  C   UNL     1      45.247   7.332  12.825  0.00  0.00    +0.000 C 
ENDROOT
BRANCH   1   6
ATOM      2  C   UNL     1      44.946   3.249   9.994  0.00  0.00    +0.000 A 
ATOM      3  C   UNL     1      45.089   2.917  11.318  0.00  0.00    +0.000 A 
ATOM      4  N   UNL     1      45.062   3.821  12.319  0.00  0.00    +0.000 NA
ATOM      5  C   UNL     1      44.877   5.104  11.987  0.00  0.00    +0.000 A 
ATOM      6  N   UNL     1      44.786   5.979  13.049  0.00  0.00    +0.000 N 
ATOM      7  N   UNL     1      44.752   5.531  10.723  0.00  0.00    +0.000 NA
ATOM      8  C   UNL     1      44.783   4.592   9.753  0.00  0.00    +0.000 A 
ATOM      9  H   UNL     1      45.171   5.511  13.861  0.00  0.00    +0.000 HD
BRANCH   2  11
ATOM     10  F   UNL     1      44.113   1.196   9.125  0.00  0.00    +0.000 F 
ATOM     11  C   UNL     1      44.959   2.241   8.906  0.00  0.00    +0.000 C 
ATOM     12  F   UNL     1      46.188   1.689   8.719  0.00  0.00    +0.000 F 
ATOM     13  F   UNL     1      44.598   2.764   7.703  0.00  0.00    +0.000 F 
ENDBRANCH   2  11
ENDBRANCH   1   6
BRANCH   1  14
ATOM     14  C   UNL     1      46.754   7.351  12.881  0.00  0.00    +0.000 A 
ATOM     15  C   UNL     1      47.480   6.463  13.655  0.00  0.00    +0.000 A 
ATOM     16  N   UNL     1      48.830   6.448  13.715  0.00  0.00    +0.000 NA
ATOM     17  C   UNL     1      49.486   7.375  12.976  0.00  0.00    +0.000 A 
ATOM     18  C   UNL     1      48.874   8.336  12.174  0.00  0.00    +0.000 A 
ATOM     19  C   UNL     1      47.478   8.282  12.125  0.00  0.00    +0.000 A 
BRANCH  18  20
ATOM     20  C   UNL     1      49.709   9.329  11.377  0.00  0.00    +0.000 C 
ATOM     21  C   UNL     1      51.037   9.698  12.071  0.00  0.00    +0.000 C 
ATOM     22  C   UNL     1      50.839  10.710  13.200  0.00  0.00    +0.000 C 
ATOM     23  N   UNL     1      50.183  11.931  12.731  0.00  0.00    +0.000 NA
ATOM     24  C   UNL     1      48.886  11.638  12.126  0.00  0.00    +0.000 C 
ATOM     25  C   UNL     1      48.998  10.638  10.970  0.00  0.00    +0.000 C 
ATOM     26  H   UNL     1      50.778  12.395  12.045  0.00  0.00    +0.000 HD
ENDBRANCH  18  20
ENDBRANCH   1  14
TORSDOF 4
ENDMDL
MODEL 9
REMARK VINA RESULT:    -5.896      3.738      5.438
REMARK INTER + INTRA:          -7.943
REMARK INTER:                  -7.581
REMARK INTRA:                  -0.362
REMARK UNBOUND:                -0.668
REMARK  Name = 
REMARK  4 active torsions:
REMARK  status: ('A' for Active; 'I' for Inactive)
REMARK    1  A    between atoms: C_2  and  C_5
REMARK    2  A    between atoms: N_9  and  C_10
REMARK    3  A    between atoms: C_10  and  C_11
REMARK    4  A    between atoms: C_15  and  C_16
REMARK                            x       y       z     vdW  Elec       q    Type
REMARK                         _______ _______ _______ _____ _____    ______ ____
ROOT
ATOM      1  C   UNL     1      46.985   4.265  15.879  0.00  0.00    +0.000 C 
ENDROOT
BRANCH   1   6
ATOM      2  C   UNL     1      45.067   4.428  11.289  0.00  0.00    +0.000 A 
ATOM      3  C   UNL     1      45.555   5.656  11.659  0.00  0.00    +0.000 A 
ATOM      4  N   UNL     1      46.247   5.869  12.796  0.00  0.00    +0.000 NA
ATOM      5  C   UNL     1      46.469   4.816  13.592  0.00  0.00    +0.000 A 
ATOM      6  N   UNL     1      47.241   5.070  14.705  0.00  0.00    +0.000 N 
ATOM      7  N   UNL     1      46.014   3.583  13.330  0.00  0.00    +0.000 NA
ATOM      8  C   UNL     1      45.327   3.414  12.179  0.00  0.00    +0.000 A 
ATOM      9  H   UNL     1      47.242   6.074  14.850  0.00  0.00    +0.000 HD
BRANCH   2  11
ATOM     10  F   UNL     1      43.939   2.912   9.842  0.00  0.00    +0.000 F 
ATOM     11  C   UNL     1      44.324   4.205  10.025  0.00  0.00    +0.000 C 
ATOM     12  F   UNL     1      45.052   4.533   8.924  0.00  0.00    +0.000 F 
ATOM     13  F   UNL     1      43.184   4.945   9.950  0.00  0.00    +0.000 F 
ENDBRANCH   2  11
ENDBRANCH   1   6
BRANCH   1  14
ATOM     14  C   UNL     1      48.054   4.543  16.906  0.00  0.00    +0.000 A 
ATOM     15  C   UNL     1      48.284   3.706  17.984  0.00  0.00    +0.000 A 
ATOM     16  N   UNL     1      49.243   3.923  18.913  0.00  0.00    +0.000 NA
ATOM     17  C   UNL     1      50.000   5.037  18.763  0.00  0.00    +0.000 A 
ATOM     18  C   UNL     1      49.857   5.967  17.736  0.00  0.00    +0.000 A 
ATOM     19  C   UNL     1      48.872   5.674  16.787  0.00  0.00    +0.000 A 
BRANCH  18  20
ATOM     20  C   UNL     1      50.768   7.184  17.658  0.00  0.00    +0.000 C 
ATOM     21  C   UNL     1      50.461   8.093  16.449  0.00  0.00    +0.000 C 
ATOM     22  C   UNL     1      51.029   7.534  15.145  0.00  0.00    +0.000 C 
ATOM     23  N   UNL     1      52.473   7.313  15.227  0.00  0.00    +0.000 NA
ATOM     24  C   UNL     1      52.808   6.400  16.319  0.00  0.00    +0.000 C 
ATOM     25  C   UNL     1      52.285   6.898  17.671  0.00  0.00    +0.000 C 
ATOM     26  H   UNL     1      52.946   8.204  15.377  0.00  0.00    +0.000 HD
ENDBRANCH  18  20
ENDBRANCH   1  14
TORSDOF 4
ENDMDL
