MODEL 1
REMARK VINA RESULT:    -8.347      0.000      0.000
REMARK INTER + INTRA:         -11.497
REMARK INTER:                 -10.787
REMARK INTRA:                  -0.710
REMARK UNBOUND:                -0.710
REMARK  Name = 
REMARK  5 active torsions:
REMARK  status: ('A' for Active; 'I' for Inactive)
REMARK    1  A    between atoms: C_2  and  C_3
REMARK    2  A    between atoms: C_7  and  N_8
REMARK    3  A    between atoms: N_8  and  C_9
REMARK    4  A    between atoms: C_9  and  C_10
REMARK    5  A    between atoms: C_14  and  C_15
REMARK                            x       y       z     vdW  Elec       q    Type
REMARK                         _______ _______ _______ _____ _____    ______ ____
ROOT
ATOM      1  C   UNL     1      43.585   4.945  10.786  0.00  0.00    +0.000 A 
ATOM      2  C   UNL     1      43.024   3.921  11.539  0.00  0.00    +0.000 A 
ATOM      3  N   UNL     1      43.227   2.605  11.310  0.00  0.00    +0.000 NA
ATOM      4  C   UNL     1      44.047   2.285  10.282  0.00  0.00    +0.000 A 
ATOM      5  C   UNL     1      44.691   3.210   9.454  0.00  0.00    +0.000 A 
ATOM      6  C   UNL     1      44.436   4.566   9.740  0.00  0.00    +0.000 A 
ENDROOT
BRANCH   5   7
ATOM      7  C   UNL     1      45.592   2.794   8.360  0.00  0.00    +0.000 A 
ATOM      8  C   UNL     1      45.948   3.685   7.331  0.00  0.00    +0.000 A 
ATOM      9  C   UNL     1      46.841   3.318   6.322  0.00  0.00    +0.000 A 
ATOM     10  C   UNL     1      47.391   2.041   6.313  0.00  0.00    +0.000 A 
ATOM     11  C   UNL     1      47.038   1.128   7.302  0.00  0.00    +0.000 A 
ATOM     12  C   UNL     1      46.147   1.501   8.312  0.00  0.00    +0.000 A 
ENDBRANCH   5   7
BRANCH   1  13
ATOM     13  C   UNL     1      43.267   6.385  11.100  0.00  0.00    +0.000 C 
BRANCH  13  14
ATOM     14  N   UNL     1      43.921   6.806  12.334  0.00  0.00    +0.000 N 
ATOM     15  H   UNL     1      43.363   6.600  13.159  0.00  0.00    +0.000 HD
BRANCH  14  20
ATOM     16  C   UNL     1      46.990   5.183  13.639  0.00  0.00    +0.000 A 
ATOM     17  C   UNL     1      47.994   6.046  13.200  0.00  0.00    +0.000 A 
ATOM     18  C   UNL     1      47.652   7.166  12.446  0.00  0.00    +0.000 A 
ATOM     19  C   UNL     1      46.309   7.421  12.127  0.00  0.00    +0.000 A 
ATOM     20  C   UNL     1      45.285   6.554  12.531  0.00  0.00    +0.000 A 
ATOM     21  C   UNL     1      45.650   5.444  13.312  0.00  0.00    +0.000 A 
BRANCH  16  23
ATOM     22  N   UNL     1      47.599   3.110  15.071  0.00  0.00    +0.000 NA
ATOM     23  C   UNL     1      47.323   4.034  14.431  0.00  0.00    +0.000 C 
ENDBRANCH  16  23
ENDBRANCH  14  20
ENDBRANCH  13  14
ENDBRANCH   1  13
TORSDOF 5
ENDMDL
MODEL 2
REMARK VINA RESULT:    -7.799      1.458      2.397
REMARK INTER + INTRA:         -10.788
REMARK INTER:                  -9.886
REMARK INTRA:                  -0.902
REMARK UNBOUND:                -0.710
REMARK  Name = 
REMARK  5 active torsions:
REMARK  status: ('A' for Active; 'I' for Inactive)
REMARK    1  A    between atoms: C_2  and  C_3
REMARK    2  A    between atoms: C_7  and  N_8
REMARK    3  A    between atoms: N_8  and  C_9
REMARK    4  A    between atoms: C_9  and  C_10
REMARK    5  A    between atoms: C_14  and  C_15
REMARK                            x       y       z     vdW  Elec       q    Type
REMARK                         _______ _______ _______ _____ _____    ______ ____
ROOT
ATOM      1  C   UNL     1      43.859   5.076  10.942  0.00  0.00    +0.000 A 
ATOM      2  C   UNL     1      43.186   4.089  11.650  0.00  0.00    +0.000 A 
ATOM      3  N   UNL     1      43.238   2.770  11.360  0.00  0.00    +0.000 NA
ATOM      4  C   UNL     1      44.017   2.407  10.315  0.00  0.00    +0.000 A 
ATOM      5  C   UNL     1      44.761   3.291   9.526  0.00  0.00    +0.000 A 
ATOM      6  C   UNL     1      44.662   4.652   9.875  0.00  0.00    +0.000 A 
ENDROOT
BRANCH   5   7
ATOM      7  C   UNL     1      45.608   2.825   8.409  0.00  0.00    +0.000 A 
ATOM      8  C   UNL     1      45.951   3.684   7.349  0.00  0.00    +0.000 A 
ATOM      9  C   UNL     1      46.795   3.270   6.316  0.00  0.00    +0.000 A 
ATOM     10  C   UNL     1      47.309   1.978   6.315  0.00  0.00    +0.000 A 
ATOM     11  C   UNL     1      46.967   1.097   7.336  0.00  0.00    +0.000 A 
ATOM     12  C   UNL     1      46.125   1.516   8.370  0.00  0.00    +0.000 A 
ENDBRANCH   5   7
BRANCH   1  13
ATOM     13  C   UNL     1      43.706   6.527  11.323  0.00  0.00    +0.000 C 
BRANCH  13  14
ATOM     14  N   UNL     1      44.319   6.793  12.619  0.00  0.00    +0.000 N 
ATOM     15  H   UNL     1      43.864   6.286  13.375  0.00  0.00    +0.000 HD
BRANCH  14  20
ATOM     16  C   UNL     1      47.818   7.965  12.239  0.00  0.00    +0.000 A 
ATOM     17  C   UNL     1      48.549   6.891  12.743  0.00  0.00    +0.000 A 
ATOM     18  C   UNL     1      47.875   5.775  13.233  0.00  0.00    +0.000 A 
ATOM     19  C   UNL     1      46.472   5.735  13.224  0.00  0.00    +0.000 A 
ATOM     20  C   UNL     1      45.714   6.813  12.750  0.00  0.00    +0.000 A 
ATOM     21  C   UNL     1      46.414   7.918  12.237  0.00  0.00    +0.000 A 
BRANCH  16  23
ATOM     22  N   UNL     1      49.037  10.048  11.292  0.00  0.00    +0.000 NA
ATOM     23  C   UNL     1      48.496   9.116  11.714  0.00  0.00    +0.000 C 
ENDBRANCH  16  23
ENDBRANCH  14  20
ENDBRANCH  13  14
ENDBRANCH   1  13
TORSDOF 5
ENDMDL
MODEL 3
REMARK VINA RESULT:    -7.539      1.780      2.338
REMARK INTER + INTRA:         -10.453
REMARK INTER:                  -9.707
REMARK INTRA:                  -0.745
REMARK UNBOUND:                -0.710
REMARK  Name = 
REMARK  5 active torsions:
REMARK  status: ('A' for Active; 'I' for Inactive)
REMARK    1  A    between atoms: C_2  and  C_3
REMARK    2  A    between atoms: C_7  and  N_8
REMARK    3  A    between atoms: N_8  and  C_9
REMARK    4  A    between atoms: C_9  and  C_10
REMARK    5  A    between atoms: C_14  and  C_15
REMARK                            x       y       z     vdW  Elec       q    Type
REMARK                         _______ _______ _______ _____ _____    ______ ____
ROOT
ATOM      1  C   UNL     1      43.824   5.014  11.012  0.00  0.00    +0.000 A 
ATOM      2  C   UNL     1      43.165   4.000  11.695  0.00  0.00    +0.000 A 
ATOM      3  N   UNL     1      43.236   2.690  11.373  0.00  0.00    +0.000 NA
ATOM      4  C   UNL     1      44.019   2.364  10.319  0.00  0.00    +0.000 A 
ATOM      5  C   UNL     1      44.751   3.277   9.553  0.00  0.00    +0.000 A 
ATOM      6  C   UNL     1      44.632   4.628   9.934  0.00  0.00    +0.000 A 
ENDROOT
BRANCH   5   7
ATOM      7  C   UNL     1      45.604   2.851   8.424  0.00  0.00    +0.000 A 
ATOM      8  C   UNL     1      45.950   3.746   7.396  0.00  0.00    +0.000 A 
ATOM      9  C   UNL     1      46.800   3.370   6.354  0.00  0.00    +0.000 A 
ATOM     10  C   UNL     1      47.316   2.079   6.311  0.00  0.00    +0.000 A 
ATOM     11  C   UNL     1      46.971   1.163   7.300  0.00  0.00    +0.000 A 
ATOM     12  C   UNL     1      46.124   1.545   8.343  0.00  0.00    +0.000 A 
ENDBRANCH   5   7
BRANCH   1  13
ATOM     13  C   UNL     1      43.650   6.452  11.428  0.00  0.00    +0.000 C 
BRANCH  13  14
ATOM     14  N   UNL     1      44.612   6.816  12.462  0.00  0.00    +0.000 N 
ATOM     15  H   UNL     1      44.998   6.002  12.937  0.00  0.00    +0.000 HD
BRANCH  14  20
ATOM     16  C   UNL     1      47.943   8.323  11.838  0.00  0.00    +0.000 A 
ATOM     17  C   UNL     1      47.673   9.688  11.920  0.00  0.00    +0.000 A 
ATOM     18  C   UNL     1      46.370  10.114  12.165  0.00  0.00    +0.000 A 
ATOM     19  C   UNL     1      45.337   9.177  12.322  0.00  0.00    +0.000 A 
ATOM     20  C   UNL     1      45.577   7.801  12.215  0.00  0.00    +0.000 A 
ATOM     21  C   UNL     1      46.903   7.392  11.993  0.00  0.00    +0.000 A 
BRANCH  16  23
ATOM     22  N   UNL     1      50.366   7.504  11.414  0.00  0.00    +0.000 NA
ATOM     23  C   UNL     1      49.283   7.866  11.604  0.00  0.00    +0.000 C 
ENDBRANCH  16  23
ENDBRANCH  14  20
ENDBRANCH  13  14
ENDBRANCH   1  13
TORSDOF 5
ENDMDL
MODEL 4
REMARK VINA RESULT:    -7.362      1.518      2.076
REMARK INTER + INTRA:         -10.224
REMARK INTER:                  -9.478
REMARK INTRA:                  -0.746
REMARK UNBOUND:                -0.710
REMARK  Name = 
REMARK  5 active torsions:
REMARK  status: ('A' for Active; 'I' for Inactive)
REMARK    1  A    between atoms: C_2  and  C_3
REMARK    2  A    between atoms: C_7  and  N_8
REMARK    3  A    between atoms: N_8  and  C_9
REMARK    4  A    between atoms: C_9  and  C_10
REMARK    5  A    between atoms: C_14  and  C_15
REMARK                            x       y       z     vdW  Elec       q    Type
REMARK                         _______ _______ _______ _____ _____    ______ ____
ROOT
ATOM      1  C   UNL     1      44.613   4.969  10.762  0.00  0.00    +0.000 A 
ATOM      2  C   UNL     1      43.702   4.081  11.317  0.00  0.00    +0.000 A 
ATOM      3  N   UNL     1      43.483   2.827  10.864  0.00  0.00    +0.000 NA
ATOM      4  C   UNL     1      44.223   2.425   9.805  0.00  0.00    +0.000 A 
ATOM      5  C   UNL     1      45.185   3.207   9.158  0.00  0.00    +0.000 A 
ATOM      6  C   UNL     1      45.364   4.506   9.673  0.00  0.00    +0.000 A 
ENDROOT
BRANCH   5   7
ATOM      7  C   UNL     1      45.974   2.699   8.016  0.00  0.00    +0.000 A 
ATOM      8  C   UNL     1      46.464   1.381   7.999  0.00  0.00    +0.000 A 
ATOM      9  C   UNL     1      47.164   0.875   6.902  0.00  0.00    +0.000 A 
ATOM     10  C   UNL     1      47.401   1.684   5.797  0.00  0.00    +0.000 A 
ATOM     11  C   UNL     1      46.952   3.001   5.795  0.00  0.00    +0.000 A 
ATOM     12  C   UNL     1      46.249   3.503   6.893  0.00  0.00    +0.000 A 
ENDBRANCH   5   7
BRANCH   1  13
ATOM     13  C   UNL     1      44.758   6.363  11.319  0.00  0.00    +0.000 C 
BRANCH  13  14
ATOM     14  N   UNL     1      45.523   6.350  12.561  0.00  0.00    +0.000 N 
ATOM     15  H   UNL     1      45.336   5.524  13.124  0.00  0.00    +0.000 HD
BRANCH  14  20
ATOM     16  C   UNL     1      48.918   7.070  13.869  0.00  0.00    +0.000 A 
ATOM     17  C   UNL     1      49.564   7.593  12.750  0.00  0.00    +0.000 A 
ATOM     18  C   UNL     1      48.874   7.690  11.544  0.00  0.00    +0.000 A 
ATOM     19  C   UNL     1      47.541   7.259  11.456  0.00  0.00    +0.000 A 
ATOM     20  C   UNL     1      46.879   6.702  12.558  0.00  0.00    +0.000 A 
ATOM     21  C   UNL     1      47.586   6.638  13.770  0.00  0.00    +0.000 A 
BRANCH  16  23
ATOM     22  N   UNL     1      50.163   6.911  16.137  0.00  0.00    +0.000 NA
ATOM     23  C   UNL     1      49.609   6.979  15.123  0.00  0.00    +0.000 C 
ENDBRANCH  16  23
ENDBRANCH  14  20
ENDBRANCH  13  14
ENDBRANCH   1  13
TORSDOF 5
ENDMDL
MODEL 5
REMARK VINA RESULT:    -7.051      2.672      4.081
REMARK INTER + INTRA:          -9.822
REMARK INTER:                  -9.288
REMARK INTRA:                  -0.534
REMARK UNBOUND:                -0.710
REMARK  Name = 
REMARK  5 active torsions:
REMARK  status: ('A' for Active; 'I' for Inactive)
REMARK    1  A    between atoms: C_2  and  C_3
REMARK    2  A    between atoms: C_7  and  N_8
REMARK    3  A    between atoms: N_8  and  C_9
REMARK    4  A    between atoms: C_9  and  C_10
REMARK    5  A    between atoms: C_14  and  C_15
REMARK                            x       y       z     vdW  Elec       q    Type
REMARK                         _______ _______ _______ _____ _____    ______ ____
ROOT
ATOM      1  C   UNL     1      44.461   5.361  10.911  0.00  0.00    +0.000 A 
ATOM      2  C   UNL     1      43.541   4.533  11.541  0.00  0.00    +0.000 A 
ATOM      3  N   UNL     1      43.290   3.255  11.180  0.00  0.00    +0.000 NA
ATOM      4  C   UNL     1      44.006   2.765  10.142  0.00  0.00    +0.000 A 
ATOM      5  C   UNL     1      44.974   3.479   9.428  0.00  0.00    +0.000 A 
ATOM      6  C   UNL     1      45.186   4.807   9.848  0.00  0.00    +0.000 A 
ENDROOT
BRANCH   5   7
ATOM      7  C   UNL     1      45.735   2.875   8.315  0.00  0.00    +0.000 A 
ATOM      8  C   UNL     1      46.100   3.634   7.188  0.00  0.00    +0.000 A 
ATOM      9  C   UNL     1      46.866   3.088   6.155  0.00  0.00    +0.000 A 
ATOM     10  C   UNL     1      47.275   1.761   6.222  0.00  0.00    +0.000 A 
ATOM     11  C   UNL     1      46.908   0.978   7.312  0.00  0.00    +0.000 A 
ATOM     12  C   UNL     1      46.145   1.529   8.345  0.00  0.00    +0.000 A 
ENDBRANCH   5   7
BRANCH   1  13
ATOM     13  C   UNL     1      44.642   6.787  11.367  0.00  0.00    +0.000 C 
BRANCH  13  14
ATOM     14  N   UNL     1      43.442   7.574  11.104  0.00  0.00    +0.000 N 
ATOM     15  H   UNL     1      42.658   7.296  11.691  0.00  0.00    +0.000 HD
BRANCH  14  20
ATOM     16  C   UNL     1      44.828  11.006  11.343  0.00  0.00    +0.000 A 
ATOM     17  C   UNL     1      43.762  11.789  10.902  0.00  0.00    +0.000 A 
ATOM     18  C   UNL     1      42.579  11.173  10.502  0.00  0.00    +0.000 A 
ATOM     19  C   UNL     1      42.463   9.774  10.538  0.00  0.00    +0.000 A 
ATOM     20  C   UNL     1      43.529   8.963  10.949  0.00  0.00    +0.000 A 
ATOM     21  C   UNL     1      44.704   9.608  11.372  0.00  0.00    +0.000 A 
BRANCH  16  23
ATOM     22  N   UNL     1      47.031  12.131  12.118  0.00  0.00    +0.000 NA
ATOM     23  C   UNL     1      46.048  11.626  11.775  0.00  0.00    +0.000 C 
ENDBRANCH  16  23
ENDBRANCH  14  20
ENDBRANCH  13  14
ENDBRANCH   1  13
TORSDOF 5
ENDMDL
MODEL 6
REMARK VINA RESULT:    -6.859      2.355      6.460
REMARK INTER + INTRA:          -9.574
REMARK INTER:                  -8.702
REMARK INTRA:                  -0.872
REMARK UNBOUND:                -0.710
REMARK  Name = 
REMARK  5 active torsions:
REMARK  status: ('A' for Active; 'I' for Inactive)
REMARK    1  A    between atoms: C_2  and  C_3
REMARK    2  A    between atoms: C_7  and  N_8
REMARK    3  A    between atoms: N_8  and  C_9
REMARK    4  A    between atoms: C_9  and  C_10
REMARK    5  A    between atoms: C_14  and  C_15
REMARK                            x       y       z     vdW  Elec       q    Type
REMARK                         _______ _______ _______ _____ _____    ______ ____
ROOT
ATOM      1  C   UNL     1      45.541   6.061  12.435  0.00  0.00    +0.000 A 
ATOM      2  C   UNL     1      45.987   5.149  13.384  0.00  0.00    +0.000 A 
ATOM      3  N   UNL     1      47.248   5.104  13.866  0.00  0.00    +0.000 NA
ATOM      4  C   UNL     1      48.115   6.028  13.391  0.00  0.00    +0.000 A 
ATOM      5  C   UNL     1      47.799   7.012  12.449  0.00  0.00    +0.000 A 
ATOM      6  C   UNL     1      46.471   7.005  11.980  0.00  0.00    +0.000 A 
ENDROOT
BRANCH   5   7
ATOM      7  C   UNL     1      48.790   8.006  11.987  0.00  0.00    +0.000 A 
ATOM      8  C   UNL     1      50.109   7.627  11.675  0.00  0.00    +0.000 A 
ATOM      9  C   UNL     1      51.038   8.548  11.185  0.00  0.00    +0.000 A 
ATOM     10  C   UNL     1      50.669   9.877  11.007  0.00  0.00    +0.000 A 
ATOM     11  C   UNL     1      49.380  10.287  11.331  0.00  0.00    +0.000 A 
ATOM     12  C   UNL     1      48.453   9.362  11.817  0.00  0.00    +0.000 A 
ENDBRANCH   5   7
BRANCH   1  13
ATOM     13  C   UNL     1      44.121   6.005  11.932  0.00  0.00    +0.000 C 
BRANCH  13  14
ATOM     14  N   UNL     1      44.086   5.763  10.495  0.00  0.00    +0.000 N 
ATOM     15  H   UNL     1      44.472   6.538   9.960  0.00  0.00    +0.000 HD
BRANCH  14  20
ATOM     16  C   UNL     1      45.527   3.274   8.152  0.00  0.00    +0.000 A 
ATOM     17  C   UNL     1      45.108   2.066   8.705  0.00  0.00    +0.000 A 
ATOM     18  C   UNL     1      44.358   2.074   9.878  0.00  0.00    +0.000 A 
ATOM     19  C   UNL     1      44.030   3.289  10.500  0.00  0.00    +0.000 A 
ATOM     20  C   UNL     1      44.464   4.516   9.980  0.00  0.00    +0.000 A 
ATOM     21  C   UNL     1      45.199   4.485   8.783  0.00  0.00    +0.000 A 
BRANCH  16  23
ATOM     22  N   UNL     1      46.894   3.295   5.948  0.00  0.00    +0.000 NA
ATOM     23  C   UNL     1      46.287   3.285   6.934  0.00  0.00    +0.000 C 
ENDBRANCH  16  23
ENDBRANCH  14  20
ENDBRANCH  13  14
ENDBRANCH   1  13
TORSDOF 5
ENDMDL
MODEL 7
REMARK VINA RESULT:    -6.756      2.370      4.197
REMARK INTER + INTRA:          -9.441
REMARK INTER:                  -8.892
REMARK INTRA:                  -0.548
REMARK UNBOUND:                -0.710
REMARK  Name = 
REMARK  5 active torsions:
REMARK  status: ('A' for Active; 'I' for Inactive)
REMARK    1  A    between atoms: C_2  and  C_3
REMARK    2  A    between atoms: C_7  and  N_8
REMARK    3  A    between atoms: N_8  and  C_9
REMARK    4  A    between atoms: C_9  and  C_10
REMARK    5  A    between atoms: C_14  and  C_15
REMARK                            x       y       z     vdW  Elec       q    Type
REMARK                         _______ _______ _______ _____ _____    ______ ____
ROOT
ATOM      1  C   UNL     1      43.840   4.747  10.811  0.00  0.00    +0.000 A 
ATOM      2  C   UNL     1      43.202   3.701  11.466  0.00  0.00    +0.000 A 
ATOM      3  N   UNL     1      43.328   2.399  11.128  0.00  0.00    +0.000 NA
ATOM      4  C   UNL     1      44.144   2.116  10.088  0.00  0.00    +0.000 A 
ATOM      5  C   UNL     1      44.859   3.065   9.350  0.00  0.00    +0.000 A 
ATOM      6  C   UNL     1      44.684   4.406   9.747  0.00  0.00    +0.000 A 
ENDROOT
BRANCH   5   7
ATOM      7  C   UNL     1      45.751   2.686   8.234  0.00  0.00    +0.000 A 
ATOM      8  C   UNL     1      46.338   1.409   8.174  0.00  0.00    +0.000 A 
ATOM      9  C   UNL     1      47.140   1.023   7.097  0.00  0.00    +0.000 A 
ATOM     10  C   UNL     1      47.382   1.914   6.058  0.00  0.00    +0.000 A 
ATOM     11  C   UNL     1      46.836   3.193   6.102  0.00  0.00    +0.000 A 
ATOM     12  C   UNL     1      46.032   3.575   7.179  0.00  0.00    +0.000 A 
ENDBRANCH   5   7
BRANCH   1  13
ATOM     13  C   UNL     1      43.606   6.173  11.243  0.00  0.00    +0.000 C 
BRANCH  13  14
ATOM     14  N   UNL     1      44.773   7.001  10.962  0.00  0.00    +0.000 N 
ATOM     15  H   UNL     1      45.166   6.819  10.040  0.00  0.00    +0.000 HD
BRANCH  14  20
ATOM     16  C   UNL     1      43.685  10.546  10.990  0.00  0.00    +0.000 A 
ATOM     17  C   UNL     1      44.732  11.175  11.662  0.00  0.00    +0.000 A 
ATOM     18  C   UNL     1      45.800  10.413  12.129  0.00  0.00    +0.000 A 
ATOM     19  C   UNL     1      45.819   9.023  11.929  0.00  0.00    +0.000 A 
ATOM     20  C   UNL     1      44.765   8.364  11.282  0.00  0.00    +0.000 A 
ATOM     21  C   UNL     1      43.710   9.156  10.797  0.00  0.00    +0.000 A 
BRANCH  16  23
ATOM     22  N   UNL     1      41.692  11.937  10.085  0.00  0.00    +0.000 NA
ATOM     23  C   UNL     1      42.584  11.318  10.487  0.00  0.00    +0.000 C 
ENDBRANCH  16  23
ENDBRANCH  14  20
ENDBRANCH  13  14
ENDBRANCH   1  13
TORSDOF 5
ENDMDL
MODEL 8
REMARK VINA RESULT:    -6.716      1.935      2.588
REMARK INTER + INTRA:          -9.388
REMARK INTER:                  -8.743
REMARK INTRA:                  -0.645
REMARK UNBOUND:                -0.710
REMARK  Name = 
REMARK  5 active torsions:
REMARK  status: ('A' for Active; 'I' for Inactive)
REMARK    1  A    between atoms: C_2  and  C_3
REMARK    2  A    between atoms: C_7  and  N_8
REMARK    3  A    between atoms: N_8  and  C_9
REMARK    4  A    between atoms: C_9  and  C_10
REMARK    5  A    between atoms: C_14  and  C_15
REMARK                            x       y       z     vdW  Elec       q    Type
REMARK                         _______ _______ _______ _____ _____    ______ ____
ROOT
ATOM      1  C   UNL     1      45.189   6.194  11.057  0.00  0.00    +0.000 A 
ATOM      2  C   UNL     1      43.823   6.028  11.253  0.00  0.00    +0.000 A 
ATOM      3  N   UNL     1      43.070   5.095  10.631  0.00  0.00    +0.000 NA
ATOM      4  C   UNL     1      43.712   4.267   9.774  0.00  0.00    +0.000 A 
ATOM      5  C   UNL     1      45.081   4.310   9.494  0.00  0.00    +0.000 A 
ATOM      6  C   UNL     1      45.812   5.307  10.169  0.00  0.00    +0.000 A 
ENDROOT
BRANCH   5   7
ATOM      7  C   UNL     1      45.724   3.361   8.561  0.00  0.00    +0.000 A 
ATOM      8  C   UNL     1      46.435   3.816   7.435  0.00  0.00    +0.000 A 
ATOM      9  C   UNL     1      47.091   2.931   6.578  0.00  0.00    +0.000 A 
ATOM     10  C   UNL     1      47.040   1.563   6.821  0.00  0.00    +0.000 A 
ATOM     11  C   UNL     1      46.323   1.080   7.912  0.00  0.00    +0.000 A 
ATOM     12  C   UNL     1      45.671   1.970   8.770  0.00  0.00    +0.000 A 
ENDBRANCH   5   7
BRANCH   1  13
ATOM     13  C   UNL     1      45.934   7.292  11.772  0.00  0.00    +0.000 C 
BRANCH  13  14
ATOM     14  N   UNL     1      47.238   6.824  12.229  0.00  0.00    +0.000 N 
ATOM     15  H   UNL     1      47.980   7.493  12.037  0.00  0.00    +0.000 HD
BRANCH  14  20
ATOM     16  C   UNL     1      48.586   6.137  15.616  0.00  0.00    +0.000 A 
ATOM     17  C   UNL     1      47.906   4.974  15.977  0.00  0.00    +0.000 A 
ATOM     18  C   UNL     1      46.977   4.424  15.098  0.00  0.00    +0.000 A 
ATOM     19  C   UNL     1      46.723   5.038  13.861  0.00  0.00    +0.000 A 
ATOM     20  C   UNL     1      47.371   6.222  13.487  0.00  0.00    +0.000 A 
ATOM     21  C   UNL     1      48.323   6.746  14.378  0.00  0.00    +0.000 A 
BRANCH  16  23
ATOM     22  N   UNL     1      50.345   7.175  17.213  0.00  0.00    +0.000 NA
ATOM     23  C   UNL     1      49.560   6.708  16.502  0.00  0.00    +0.000 C 
ENDBRANCH  16  23
ENDBRANCH  14  20
ENDBRANCH  13  14
ENDBRANCH   1  13
TORSDOF 5
ENDMDL
MODEL 9
REMARK VINA RESULT:    -6.367      2.653      4.917
REMARK INTER + INTRA:          -8.937
REMARK INTER:                  -8.244
REMARK INTRA:                  -0.693
REMARK UNBOUND:                -0.710
REMARK  Name = 
REMARK  5 active torsions:
REMARK  status: ('A' for Active; 'I' for Inactive)
REMARK    1  A    between atoms: C_2  and  C_3
REMARK    2  A    between atoms: C_7  and  N_8
REMARK    3  A    between atoms: N_8  and  C_9
REMARK    4  A    between atoms: C_9  and  C_10
REMARK    5  A    between atoms: C_14  and  C_15
REMARK                            x       y       z     vdW  Elec       q    Type
REMARK                         _______ _______ _______ _____ _____    ______ ____
ROOT
ATOM      1  C   UNL     1      47.303   7.006  13.334  0.00  0.00    +0.000 A 
ATOM      2  C   UNL     1      46.570   8.184  13.289  0.00  0.00    +0.000 A 
ATOM      3  N   UNL     1      45.500   8.388  12.489  0.00  0.00    +0.000 NA
ATOM      4  C   UNL     1      45.127   7.357  11.697  0.00  0.00    +0.000 A 
ATOM      5  C   UNL     1      45.762   6.112  11.651  0.00  0.00    +0.000 A 
ATOM      6  C   UNL     1      46.874   5.962  12.504  0.00  0.00    +0.000 A 
ENDROOT
BRANCH   5   7
ATOM      7  C   UNL     1      45.291   5.019  10.775  0.00  0.00    +0.000 A 
ATOM      8  C   UNL     1      45.499   5.060   9.384  0.00  0.00    +0.000 A 
ATOM      9  C   UNL     1      45.105   4.008   8.555  0.00  0.00    +0.000 A 
ATOM     10  C   UNL     1      44.481   2.891   9.099  0.00  0.00    +0.000 A 
ATOM     11  C   UNL     1      44.238   2.833  10.468  0.00  0.00    +0.000 A 
ATOM     12  C   UNL     1      44.637   3.886  11.295  0.00  0.00    +0.000 A 
ENDBRANCH   5   7
BRANCH   1  13
ATOM     13  C   UNL     1      48.506   6.889  14.236  0.00  0.00    +0.000 C 
BRANCH  13  14
ATOM     14  N   UNL     1      48.100   6.684  15.622  0.00  0.00    +0.000 N 
ATOM     15  H   UNL     1      47.172   7.057  15.814  0.00  0.00    +0.000 HD
BRANCH  14  20
ATOM     16  C   UNL     1      49.889   4.006  17.461  0.00  0.00    +0.000 A 
ATOM     17  C   UNL     1      49.002   2.934  17.365  0.00  0.00    +0.000 A 
ATOM     18  C   UNL     1      47.790   3.107  16.702  0.00  0.00    +0.000 A 
ATOM     19  C   UNL     1      47.462   4.351  16.139  0.00  0.00    +0.000 A 
ATOM     20  C   UNL     1      48.323   5.451  16.247  0.00  0.00    +0.000 A 
ATOM     21  C   UNL     1      49.551   5.247  16.898  0.00  0.00    +0.000 A 
BRANCH  16  23
ATOM     22  N   UNL     1      52.170   3.712  18.657  0.00  0.00    +0.000 NA
ATOM     23  C   UNL     1      51.150   3.841  18.126  0.00  0.00    +0.000 C 
ENDBRANCH  16  23
ENDBRANCH  14  20
ENDBRANCH  13  14
ENDBRANCH   1  13
TORSDOF 5
ENDMDL
