MODEL 1
REMARK VINA RESULT:    -7.783      0.000      0.000
REMARK INTER + INTRA:         -12.645
REMARK INTER:                 -11.422
REMARK INTRA:                  -1.223
REMARK UNBOUND:                -1.223
REMARK  Name = 
REMARK  8 active torsions:
REMARK  status: ('A' for Active; 'I' for Inactive)
REMARK    1  A    between atoms: C_2  and  C_3
REMARK    2  A    between atoms: C_3  and  N_4
REMARK    3  A    between atoms: C_3  and  C_26
REMARK    4  A    between atoms: N_4  and  C_5
REMARK    5  A    between atoms: C_5  and  C_6
REMARK    6  A    between atoms: C_9  and  C_10
REMARK    7  A    between atoms: C_10  and  N_11
REMARK    8  A    between atoms: C_12  and  C_14
REMARK                            x       y       z     vdW  Elec       q    Type
REMARK                         _______ _______ _______ _____ _____    ______ ____
ROOT
ATOM      1  C   UNL     1      45.346   6.626  11.392  0.00  0.00    +0.000 A 
ATOM      2  C   UNL     1      46.592   6.090  11.753  0.00  0.00    +0.000 A 
ATOM      3  C   UNL     1      47.416   6.761  12.659  0.00  0.00    +0.000 A 
ATOM      4  C   UNL     1      47.016   7.984  13.208  0.00  0.00    +0.000 A 
ATOM      5  C   UNL     1      45.793   8.541  12.814  0.00  0.00    +0.000 A 
ATOM      6  C   UNL     1      44.959   7.864  11.923  0.00  0.00    +0.000 A 
ENDROOT
BRANCH   1   7
ATOM      7  C   UNL     1      44.440   5.879  10.444  0.00  0.00    +0.000 C 
BRANCH   7   8
ATOM      8  N   UNL     1      45.235   5.204   9.409  0.00  0.00    +0.000 NA
ATOM      9  H   UNL     1      45.291   5.813   8.596  0.00  0.00    +0.000 HD
BRANCH   8  10
ATOM     10  C   UNL     1      44.667   3.911   8.980  0.00  0.00    +0.000 C 
BRANCH  10  11
ATOM     11  C   UNL     1      45.677   3.008   8.240  0.00  0.00    +0.000 A 
ATOM     12  C   UNL     1      46.592   3.541   7.304  0.00  0.00    +0.000 A 
ATOM     13  C   UNL     1      47.503   2.724   6.628  0.00  0.00    +0.000 A 
ATOM     14  C   UNL     1      47.535   1.359   6.884  0.00  0.00    +0.000 A 
ATOM     15  C   UNL     1      46.661   0.811   7.820  0.00  0.00    +0.000 A 
ATOM     16  C   UNL     1      45.751   1.627   8.501  0.00  0.00    +0.000 A 
ENDBRANCH  10  11
BRANCH  10  18
ATOM     17  N   UNL     1      43.499   2.514  11.082  0.00  0.00    +0.000 NA
ATOM     18  C   UNL     1      44.028   3.148  10.129  0.00  0.00    +0.000 C 
ENDBRANCH  10  18
ENDBRANCH   8  10
ENDBRANCH   7   8
ENDBRANCH   1   7
BRANCH   4  19
ATOM     19  C   UNL     1      47.909   8.716  14.169  0.00  0.00    +0.000 C 
BRANCH  19  20
ATOM     20  N   UNL     1      48.127   7.939  15.361  0.00  0.00    +0.000 N 
ATOM     21  C   UNL     1      49.388   7.546  15.723  0.00  0.00    +0.000 C 
ATOM     22  O   UNL     1      50.380   7.871  15.075  0.00  0.00    +0.000 OA
ATOM     23  H   UNL     1      47.317   7.491  15.780  0.00  0.00    +0.000 HD
BRANCH  21  24
ATOM     24  C   UNL     1      49.506   6.766  16.959  0.00  0.00    +0.000 A 
ATOM     25  C   UNL     1      50.250   7.273  18.016  0.00  0.00    +0.000 A 
ATOM     26  S   UNL     1      50.254   6.271  19.394  0.00  0.00    +0.000 S 
ATOM     27  C   UNL     1      49.300   5.099  18.611  0.00  0.00    +0.000 A 
ATOM     28  N   UNL     1      48.952   3.947  19.243  0.00  0.00    +0.000 NA
ATOM     29  C   UNL     1      48.252   3.133  18.525  0.00  0.00    +0.000 A 
ATOM     30  N   UNL     1      47.864   3.373  17.232  0.00  0.00    +0.000 N 
ATOM     31  C   UNL     1      48.165   4.536  16.562  0.00  0.00    +0.000 A 
ATOM     32  O   UNL     1      47.762   4.736  15.422  0.00  0.00    +0.000 OA
ATOM     33  C   UNL     1      48.965   5.477  17.322  0.00  0.00    +0.000 A 
ATOM     34  H   UNL     1      47.307   2.698  16.727  0.00  0.00    +0.000 HD
ENDBRANCH  21  24
ENDBRANCH  19  20
ENDBRANCH   4  19
TORSDOF 8
ENDMDL
MODEL 2
REMARK VINA RESULT:    -7.775      1.451      1.885
REMARK INTER + INTRA:         -12.633
REMARK INTER:                 -11.668
REMARK INTRA:                  -0.965
REMARK UNBOUND:                -1.223
REMARK  Name = 
REMARK  8 active torsions:
REMARK  status: ('A' for Active; 'I' for Inactive)
REMARK    1  A    between atoms: C_2  and  C_3
REMARK    2  A    between atoms: C_3  and  N_4
REMARK    3  A    between atoms: C_3  and  C_26
REMARK    4  A    between atoms: N_4  and  C_5
REMARK    5  A    between atoms: C_5  and  C_6
REMARK    6  A    between atoms: C_9  and  C_10
REMARK    7  A    between atoms: C_10  and  N_11
REMARK    8  A    between atoms: C_12  and  C_14
REMARK                            x       y       z     vdW  Elec       q    Type
REMARK                         _______ _______ _______ _____ _____    ______ ____
ROOT
ATOM      1  C   UNL     1      44.865   6.246  12.496  0.00  0.00    +0.000 A 
ATOM      2  C   UNL     1      45.213   7.604  12.430  0.00  0.00    +0.000 A 
ATOM      3  C   UNL     1      46.424   8.052  12.962  0.00  0.00    +0.000 A 
ATOM      4  C   UNL     1      47.301   7.154  13.580  0.00  0.00    +0.000 A 
ATOM      5  C   UNL     1      46.934   5.806  13.686  0.00  0.00    +0.000 A 
ATOM      6  C   UNL     1      45.733   5.353  13.139  0.00  0.00    +0.000 A 
ENDROOT
BRANCH   1   7
ATOM      7  C   UNL     1      43.574   5.759  11.884  0.00  0.00    +0.000 C 
BRANCH   7   8
ATOM      8  N   UNL     1      43.776   5.431  10.468  0.00  0.00    +0.000 NA
ATOM      9  H   UNL     1      43.093   5.944   9.915  0.00  0.00    +0.000 HD
BRANCH   8  10
ATOM     10  C   UNL     1      43.625   3.993  10.168  0.00  0.00    +0.000 C 
BRANCH  10  11
ATOM     11  C   UNL     1      44.712   3.441   9.221  0.00  0.00    +0.000 A 
ATOM     12  C   UNL     1      45.475   4.299   8.398  0.00  0.00    +0.000 A 
ATOM     13  C   UNL     1      46.455   3.802   7.534  0.00  0.00    +0.000 A 
ATOM     14  C   UNL     1      46.710   2.437   7.487  0.00  0.00    +0.000 A 
ATOM     15  C   UNL     1      45.990   1.570   8.306  0.00  0.00    +0.000 A 
ATOM     16  C   UNL     1      45.011   2.067   9.173  0.00  0.00    +0.000 A 
ENDBRANCH  10  11
BRANCH  10  18
ATOM     17  N   UNL     1      43.485   2.440  12.471  0.00  0.00    +0.000 NA
ATOM     18  C   UNL     1      43.548   3.143  11.426  0.00  0.00    +0.000 C 
ENDBRANCH  10  18
ENDBRANCH   8  10
ENDBRANCH   7   8
ENDBRANCH   1   7
BRANCH   4  19
ATOM     19  C   UNL     1      48.596   7.637  14.168  0.00  0.00    +0.000 C 
BRANCH  19  20
ATOM     20  N   UNL     1      48.530   7.659  15.606  0.00  0.00    +0.000 N 
ATOM     21  C   UNL     1      49.372   6.885  16.360  0.00  0.00    +0.000 C 
ATOM     22  O   UNL     1      50.238   6.179  15.847  0.00  0.00    +0.000 OA
ATOM     23  H   UNL     1      47.699   8.063  16.028  0.00  0.00    +0.000 HD
BRANCH  21  24
ATOM     24  C   UNL     1      49.233   6.986  17.816  0.00  0.00    +0.000 A 
ATOM     25  C   UNL     1      49.358   8.226  18.428  0.00  0.00    +0.000 A 
ATOM     26  S   UNL     1      49.127   8.184  20.115  0.00  0.00    +0.000 S 
ATOM     27  C   UNL     1      48.899   6.498  20.096  0.00  0.00    +0.000 A 
ATOM     28  N   UNL     1      48.675   5.811  21.249  0.00  0.00    +0.000 NA
ATOM     29  C   UNL     1      48.548   4.535  21.094  0.00  0.00    +0.000 A 
ATOM     30  N   UNL     1      48.620   3.885  19.889  0.00  0.00    +0.000 N 
ATOM     31  C   UNL     1      48.812   4.540  18.695  0.00  0.00    +0.000 A 
ATOM     32  O   UNL     1      48.824   3.933  17.630  0.00  0.00    +0.000 OA
ATOM     33  C   UNL     1      48.976   5.976  18.817  0.00  0.00    +0.000 A 
ATOM     34  H   UNL     1      48.501   2.884  19.835  0.00  0.00    +0.000 HD
ENDBRANCH  21  24
ENDBRANCH  19  20
ENDBRANCH   4  19
TORSDOF 8
ENDMDL
MODEL 3
REMARK VINA RESULT:    -7.737      2.058      2.799
REMARK INTER + INTRA:         -12.578
REMARK INTER:                 -11.519
REMARK INTRA:                  -1.059
REMARK UNBOUND:                -1.223
REMARK  Name = 
REMARK  8 active torsions:
REMARK  status: ('A' for Active; 'I' for Inactive)
REMARK    1  A    between atoms: C_2  and  C_3
REMARK    2  A    between atoms: C_3  and  N_4
REMARK    3  A    between atoms: C_3  and  C_26
REMARK    4  A    between atoms: N_4  and  C_5
REMARK    5  A    between atoms: C_5  and  C_6
REMARK    6  A    between atoms: C_9  and  C_10
REMARK    7  A    between atoms: C_10  and  N_11
REMARK    8  A    between atoms: C_12  and  C_14
REMARK                            x       y       z     vdW  Elec       q    Type
REMARK                         _______ _______ _______ _____ _____    ______ ____
ROOT
ATOM      1  C   UNL     1      45.286   6.016  12.307  0.00  0.00    +0.000 A 
ATOM      2  C   UNL     1      45.746   7.334  12.450  0.00  0.00    +0.000 A 
ATOM      3  C   UNL     1      46.876   7.610  13.222  0.00  0.00    +0.000 A 
ATOM      4  C   UNL     1      47.558   6.577  13.874  0.00  0.00    +0.000 A 
ATOM      5  C   UNL     1      47.072   5.267  13.768  0.00  0.00    +0.000 A 
ATOM      6  C   UNL     1      45.954   4.986  12.983  0.00  0.00    +0.000 A 
ENDROOT
BRANCH   1   7
ATOM      7  C   UNL     1      44.087   5.717  11.440  0.00  0.00    +0.000 C 
BRANCH   7   8
ATOM      8  N   UNL     1      44.517   5.399  10.073  0.00  0.00    +0.000 NA
ATOM      9  H   UNL     1      44.137   6.100   9.442  0.00  0.00    +0.000 HD
BRANCH   8  10
ATOM     10  C   UNL     1      44.072   4.070   9.609  0.00  0.00    +0.000 C 
BRANCH  10  11
ATOM     11  C   UNL     1      45.133   3.317   8.779  0.00  0.00    +0.000 A 
ATOM     12  C   UNL     1      45.284   1.915   8.875  0.00  0.00    +0.000 A 
ATOM     13  C   UNL     1      46.249   1.232   8.130  0.00  0.00    +0.000 A 
ATOM     14  C   UNL     1      47.074   1.930   7.256  0.00  0.00    +0.000 A 
ATOM     15  C   UNL     1      46.930   3.309   7.123  0.00  0.00    +0.000 A 
ATOM     16  C   UNL     1      45.962   3.994   7.866  0.00  0.00    +0.000 A 
ENDBRANCH  10  11
BRANCH  10  18
ATOM     17  N   UNL     1      43.175   2.463  11.694  0.00  0.00    +0.000 NA
ATOM     18  C   UNL     1      43.581   3.192  10.749  0.00  0.00    +0.000 C 
ENDBRANCH  10  18
ENDBRANCH   8  10
ENDBRANCH   7   8
ENDBRANCH   1   7
BRANCH   4  19
ATOM     19  C   UNL     1      48.764   6.874  14.719  0.00  0.00    +0.000 C 
BRANCH  19  20
ATOM     20  N   UNL     1      48.479   6.661  16.114  0.00  0.00    +0.000 N 
ATOM     21  C   UNL     1      49.408   6.088  16.942  0.00  0.00    +0.000 C 
ATOM     22  O   UNL     1      50.526   5.773  16.542  0.00  0.00    +0.000 OA
ATOM     23  H   UNL     1      47.507   6.717  16.404  0.00  0.00    +0.000 HD
BRANCH  21  24
ATOM     24  C   UNL     1      49.024   5.924  18.348  0.00  0.00    +0.000 A 
ATOM     25  C   UNL     1      49.220   4.697  18.968  0.00  0.00    +0.000 A 
ATOM     26  S   UNL     1      48.765   4.680  20.610  0.00  0.00    +0.000 S 
ATOM     27  C   UNL     1      48.246   6.299  20.539  0.00  0.00    +0.000 A 
ATOM     28  N   UNL     1      47.710   6.909  21.631  0.00  0.00    +0.000 NA
ATOM     29  C   UNL     1      47.331   8.127  21.430  0.00  0.00    +0.000 A 
ATOM     30  N   UNL     1      47.445   8.792  20.236  0.00  0.00    +0.000 N 
ATOM     31  C   UNL     1      48.008   8.228  19.115  0.00  0.00    +0.000 A 
ATOM     32  O   UNL     1      48.136   8.867  18.077  0.00  0.00    +0.000 OA
ATOM     33  C   UNL     1      48.436   6.853  19.285  0.00  0.00    +0.000 A 
ATOM     34  H   UNL     1      47.138   9.750  20.148  0.00  0.00    +0.000 HD
ENDBRANCH  21  24
ENDBRANCH  19  20
ENDBRANCH   4  19
TORSDOF 8
ENDMDL
MODEL 4
REMARK VINA RESULT:    -7.613      1.561      2.100
REMARK INTER + INTRA:         -12.395
REMARK INTER:                 -11.045
REMARK INTRA:                  -1.350
REMARK UNBOUND:                -1.223
REMARK  Name = 
REMARK  8 active torsions:
REMARK  status: ('A' for Active; 'I' for Inactive)
REMARK    1  A    between atoms: C_2  and  C_3
REMARK    2  A    between atoms: C_3  and  N_4
REMARK    3  A    between atoms: C_3  and  C_26
REMARK    4  A    between atoms: N_4  and  C_5
REMARK    5  A    between atoms: C_5  and  C_6
REMARK    6  A    between atoms: C_9  and  C_10
REMARK    7  A    between atoms: C_10  and  N_11
REMARK    8  A    between atoms: C_12  and  C_14
REMARK                            x       y       z     vdW  Elec       q    Type
REMARK                         _______ _______ _______ _____ _____    ______ ____
ROOT
ATOM      1  C   UNL     1      45.283   6.561  12.087  0.00  0.00    +0.000 A 
ATOM      2  C   UNL     1      45.499   7.946  12.015  0.00  0.00    +0.000 A 
ATOM      3  C   UNL     1      46.784   8.471  12.167  0.00  0.00    +0.000 A 
ATOM      4  C   UNL     1      47.872   7.625  12.407  0.00  0.00    +0.000 A 
ATOM      5  C   UNL     1      47.649   6.246  12.524  0.00  0.00    +0.000 A 
ATOM      6  C   UNL     1      46.370   5.717  12.355  0.00  0.00    +0.000 A 
ENDROOT
BRANCH   1   7
ATOM      7  C   UNL     1      43.900   5.993  11.883  0.00  0.00    +0.000 C 
BRANCH   7   8
ATOM      8  N   UNL     1      43.721   5.584  10.485  0.00  0.00    +0.000 NA
ATOM      9  H   UNL     1      42.867   6.008  10.129  0.00  0.00    +0.000 HD
BRANCH   8  10
ATOM     10  C   UNL     1      43.620   4.122  10.307  0.00  0.00    +0.000 C 
BRANCH  10  11
ATOM     11  C   UNL     1      44.675   3.542   9.341  0.00  0.00    +0.000 A 
ATOM     12  C   UNL     1      44.917   2.151   9.265  0.00  0.00    +0.000 A 
ATOM     13  C   UNL     1      45.877   1.624   8.398  0.00  0.00    +0.000 A 
ATOM     14  C   UNL     1      46.605   2.471   7.570  0.00  0.00    +0.000 A 
ATOM     15  C   UNL     1      46.370   3.843   7.607  0.00  0.00    +0.000 A 
ATOM     16  C   UNL     1      45.407   4.372   8.473  0.00  0.00    +0.000 A 
ENDBRANCH  10  11
BRANCH  10  18
ATOM     17  N   UNL     1      43.682   2.753  12.727  0.00  0.00    +0.000 NA
ATOM     18  C   UNL     1      43.653   3.373  11.629  0.00  0.00    +0.000 C 
ENDBRANCH  10  18
ENDBRANCH   8  10
ENDBRANCH   7   8
ENDBRANCH   1   7
BRANCH   4  19
ATOM     19  C   UNL     1      49.252   8.189  12.588  0.00  0.00    +0.000 C 
BRANCH  19  20
ATOM     20  N   UNL     1      49.981   7.451  13.585  0.00  0.00    +0.000 N 
ATOM     21  C   UNL     1      49.943   7.823  14.903  0.00  0.00    +0.000 C 
ATOM     22  O   UNL     1      49.260   8.768  15.290  0.00  0.00    +0.000 OA
ATOM     23  H   UNL     1      50.703   6.815  13.259  0.00  0.00    +0.000 HD
BRANCH  21  24
ATOM     24  C   UNL     1      50.712   7.000  15.843  0.00  0.00    +0.000 A 
ATOM     25  C   UNL     1      52.055   7.280  16.051  0.00  0.00    +0.000 A 
ATOM     26  S   UNL     1      52.795   6.264  17.202  0.00  0.00    +0.000 S 
ATOM     27  C   UNL     1      51.358   5.382  17.427  0.00  0.00    +0.000 A 
ATOM     28  N   UNL     1      51.314   4.328  18.285  0.00  0.00    +0.000 NA
ATOM     29  C   UNL     1      50.170   3.730  18.338  0.00  0.00    +0.000 A 
ATOM     30  N   UNL     1      49.065   4.095  17.613  0.00  0.00    +0.000 N 
ATOM     31  C   UNL     1      49.053   5.172  16.758  0.00  0.00    +0.000 A 
ATOM     32  O   UNL     1      48.034   5.499  16.160  0.00  0.00    +0.000 OA
ATOM     33  C   UNL     1      50.321   5.869  16.651  0.00  0.00    +0.000 A 
ATOM     34  H   UNL     1      48.196   3.591  17.709  0.00  0.00    +0.000 HD
ENDBRANCH  21  24
ENDBRANCH  19  20
ENDBRANCH   4  19
TORSDOF 8
ENDMDL
MODEL 5
REMARK VINA RESULT:    -7.149      2.182      2.560
REMARK INTER + INTRA:         -11.715
REMARK INTER:                 -10.594
REMARK INTRA:                  -1.121
REMARK UNBOUND:                -1.223
REMARK  Name = 
REMARK  8 active torsions:
REMARK  status: ('A' for Active; 'I' for Inactive)
REMARK    1  A    between atoms: C_2  and  C_3
REMARK    2  A    between atoms: C_3  and  N_4
REMARK    3  A    between atoms: C_3  and  C_26
REMARK    4  A    between atoms: N_4  and  C_5
REMARK    5  A    between atoms: C_5  and  C_6
REMARK    6  A    between atoms: C_9  and  C_10
REMARK    7  A    between atoms: C_10  and  N_11
REMARK    8  A    between atoms: C_12  and  C_14
REMARK                            x       y       z     vdW  Elec       q    Type
REMARK                         _______ _______ _______ _____ _____    ______ ____
ROOT
ATOM      1  C   UNL     1      46.299   5.949  12.488  0.00  0.00    +0.000 A 
ATOM      2  C   UNL     1      47.455   5.775  13.265  0.00  0.00    +0.000 A 
ATOM      3  C   UNL     1      47.982   6.840  13.998  0.00  0.00    +0.000 A 
ATOM      4  C   UNL     1      47.371   8.098  13.959  0.00  0.00    +0.000 A 
ATOM      5  C   UNL     1      46.243   8.283  13.149  0.00  0.00    +0.000 A 
ATOM      6  C   UNL     1      45.705   7.217  12.428  0.00  0.00    +0.000 A 
ENDROOT
BRANCH   1   7
ATOM      7  C   UNL     1      45.709   4.786  11.727  0.00  0.00    +0.000 C 
BRANCH   7   8
ATOM      8  N   UNL     1      45.032   5.264  10.516  0.00  0.00    +0.000 NA
ATOM      9  H   UNL     1      44.341   5.960  10.784  0.00  0.00    +0.000 HD
BRANCH   8  10
ATOM     10  C   UNL     1      44.344   4.195   9.765  0.00  0.00    +0.000 C 
BRANCH  10  11
ATOM     11  C   UNL     1      45.270   3.424   8.798  0.00  0.00    +0.000 A 
ATOM     12  C   UNL     1      45.426   2.023   8.890  0.00  0.00    +0.000 A 
ATOM     13  C   UNL     1      46.268   1.324   8.022  0.00  0.00    +0.000 A 
ATOM     14  C   UNL     1      46.960   2.005   7.028  0.00  0.00    +0.000 A 
ATOM     15  C   UNL     1      46.806   3.383   6.899  0.00  0.00    +0.000 A 
ATOM     16  C   UNL     1      45.960   4.084   7.765  0.00  0.00    +0.000 A 
ENDBRANCH  10  11
BRANCH  10  18
ATOM     17  N   UNL     1      43.011   2.414  11.433  0.00  0.00    +0.000 NA
ATOM     18  C   UNL     1      43.615   3.222  10.676  0.00  0.00    +0.000 C 
ENDBRANCH  10  18
ENDBRANCH   8  10
ENDBRANCH   7   8
ENDBRANCH   1   7
BRANCH   4  19
ATOM     19  C   UNL     1      47.946   9.250  14.734  0.00  0.00    +0.000 C 
BRANCH  19  20
ATOM     20  N   UNL     1      47.688   9.100  16.142  0.00  0.00    +0.000 N 
ATOM     21  C   UNL     1      48.645   9.416  17.070  0.00  0.00    +0.000 C 
ATOM     22  O   UNL     1      49.738   9.874  16.744  0.00  0.00    +0.000 OA
ATOM     23  H   UNL     1      46.888   8.534  16.412  0.00  0.00    +0.000 HD
BRANCH  21  24
ATOM     24  C   UNL     1      48.281   9.238  18.479  0.00  0.00    +0.000 A 
ATOM     25  C   UNL     1      48.231  10.346  19.314  0.00  0.00    +0.000 A 
ATOM     26  S   UNL     1      47.751   9.981  20.908  0.00  0.00    +0.000 S 
ATOM     27  C   UNL     1      47.638   8.321  20.551  0.00  0.00    +0.000 A 
ATOM     28  N   UNL     1      47.288   7.424  21.512  0.00  0.00    +0.000 NA
ATOM     29  C   UNL     1      47.269   6.195  21.113  0.00  0.00    +0.000 A 
ATOM     30  N   UNL     1      47.564   5.785  19.838  0.00  0.00    +0.000 N 
ATOM     31  C   UNL     1      47.892   6.658  18.827  0.00  0.00    +0.000 A 
ATOM     32  O   UNL     1      48.105   6.261  17.687  0.00  0.00    +0.000 OA
ATOM     33  C   UNL     1      47.942   8.051  19.229  0.00  0.00    +0.000 A 
ATOM     34  H   UNL     1      47.521   4.808  19.588  0.00  0.00    +0.000 HD
ENDBRANCH  21  24
ENDBRANCH  19  20
ENDBRANCH   4  19
TORSDOF 8
ENDMDL
MODEL 6
REMARK VINA RESULT:    -7.119      3.414      8.243
REMARK INTER + INTRA:         -11.671
REMARK INTER:                 -10.020
REMARK INTRA:                  -1.651
REMARK UNBOUND:                -1.223
REMARK  Name = 
REMARK  8 active torsions:
REMARK  status: ('A' for Active; 'I' for Inactive)
REMARK    1  A    between atoms: C_2  and  C_3
REMARK    2  A    between atoms: C_3  and  N_4
REMARK    3  A    between atoms: C_3  and  C_26
REMARK    4  A    between atoms: N_4  and  C_5
REMARK    5  A    between atoms: C_5  and  C_6
REMARK    6  A    between atoms: C_9  and  C_10
REMARK    7  A    between atoms: C_10  and  N_11
REMARK    8  A    between atoms: C_12  and  C_14
REMARK                            x       y       z     vdW  Elec       q    Type
REMARK                         _______ _______ _______ _____ _____    ______ ____
ROOT
ATOM      1  C   UNL     1      48.731   7.675  16.378  0.00  0.00    +0.000 A 
ATOM      2  C   UNL     1      48.267   8.887  15.842  0.00  0.00    +0.000 A 
ATOM      3  C   UNL     1      48.113   9.039  14.463  0.00  0.00    +0.000 A 
ATOM      4  C   UNL     1      48.431   7.989  13.594  0.00  0.00    +0.000 A 
ATOM      5  C   UNL     1      48.936   6.795  14.125  0.00  0.00    +0.000 A 
ATOM      6  C   UNL     1      49.074   6.634  15.504  0.00  0.00    +0.000 A 
ENDROOT
BRANCH   1   7
ATOM      7  C   UNL     1      48.859   7.500  17.871  0.00  0.00    +0.000 C 
BRANCH   7   8
ATOM      8  N   UNL     1      47.535   7.307  18.474  0.00  0.00    +0.000 NA
ATOM      9  H   UNL     1      47.376   8.048  19.152  0.00  0.00    +0.000 HD
BRANCH   8  10
ATOM     10  C   UNL     1      47.385   6.010  19.164  0.00  0.00    +0.000 C 
BRANCH  10  11
ATOM     11  C   UNL     1      47.928   4.813  18.354  0.00  0.00    +0.000 A 
ATOM     12  C   UNL     1      47.169   4.219  17.321  0.00  0.00    +0.000 A 
ATOM     13  C   UNL     1      47.656   3.131  16.591  0.00  0.00    +0.000 A 
ATOM     14  C   UNL     1      48.920   2.622  16.863  0.00  0.00    +0.000 A 
ATOM     15  C   UNL     1      49.699   3.203  17.860  0.00  0.00    +0.000 A 
ATOM     16  C   UNL     1      49.215   4.295  18.589  0.00  0.00    +0.000 A 
ENDBRANCH  10  11
BRANCH  10  18
ATOM     17  N   UNL     1      48.500   6.027  21.711  0.00  0.00    +0.000 NA
ATOM     18  C   UNL     1      47.995   6.019  20.556  0.00  0.00    +0.000 C 
ENDBRANCH  10  18
ENDBRANCH   8  10
ENDBRANCH   7   8
ENDBRANCH   1   7
BRANCH   4  19
ATOM     19  C   UNL     1      48.282   8.157  12.109  0.00  0.00    +0.000 C 
BRANCH  19  20
ATOM     20  N   UNL     1      47.602   7.027  11.531  0.00  0.00    +0.000 N 
ATOM     21  C   UNL     1      46.235   6.995  11.451  0.00  0.00    +0.000 C 
ATOM     22  O   UNL     1      45.541   7.936  11.827  0.00  0.00    +0.000 OA
ATOM     23  H   UNL     1      48.137   6.171  11.415  0.00  0.00    +0.000 HD
BRANCH  21  24
ATOM     24  C   UNL     1      45.639   5.804  10.836  0.00  0.00    +0.000 A 
ATOM     25  C   UNL     1      45.815   5.580   9.477  0.00  0.00    +0.000 A 
ATOM     26  S   UNL     1      45.100   4.136   8.924  0.00  0.00    +0.000 S 
ATOM     27  C   UNL     1      44.488   3.782  10.472  0.00  0.00    +0.000 A 
ATOM     28  N   UNL     1      43.741   2.667  10.689  0.00  0.00    +0.000 NA
ATOM     29  C   UNL     1      43.316   2.535  11.901  0.00  0.00    +0.000 A 
ATOM     30  N   UNL     1      43.578   3.417  12.918  0.00  0.00    +0.000 N 
ATOM     31  C   UNL     1      44.354   4.541  12.755  0.00  0.00    +0.000 A 
ATOM     32  O   UNL     1      44.606   5.283  13.697  0.00  0.00    +0.000 OA
ATOM     33  C   UNL     1      44.843   4.742  11.404  0.00  0.00    +0.000 A 
ATOM     34  H   UNL     1      43.224   3.251  13.849  0.00  0.00    +0.000 HD
ENDBRANCH  21  24
ENDBRANCH  19  20
ENDBRANCH   4  19
TORSDOF 8
ENDMDL
MODEL 7
REMARK VINA RESULT:    -7.095      3.060      8.629
REMARK INTER + INTRA:         -11.636
REMARK INTER:                  -9.751
REMARK INTRA:                  -1.884
REMARK UNBOUND:                -1.223
REMARK  Name = 
REMARK  8 active torsions:
REMARK  status: ('A' for Active; 'I' for Inactive)
REMARK    1  A    between atoms: C_2  and  C_3
REMARK    2  A    between atoms: C_3  and  N_4
REMARK    3  A    between atoms: C_3  and  C_26
REMARK    4  A    between atoms: N_4  and  C_5
REMARK    5  A    between atoms: C_5  and  C_6
REMARK    6  A    between atoms: C_9  and  C_10
REMARK    7  A    between atoms: C_10  and  N_11
REMARK    8  A    between atoms: C_12  and  C_14
REMARK                            x       y       z     vdW  Elec       q    Type
REMARK                         _______ _______ _______ _____ _____    ______ ____
ROOT
ATOM      1  C   UNL     1      48.902   8.020  16.149  0.00  0.00    +0.000 A 
ATOM      2  C   UNL     1      48.375   9.153  15.509  0.00  0.00    +0.000 A 
ATOM      3  C   UNL     1      47.938   9.079  14.185  0.00  0.00    +0.000 A 
ATOM      4  C   UNL     1      48.031   7.878  13.474  0.00  0.00    +0.000 A 
ATOM      5  C   UNL     1      48.598   6.759  14.098  0.00  0.00    +0.000 A 
ATOM      6  C   UNL     1      49.019   6.825  15.426  0.00  0.00    +0.000 A 
ENDROOT
BRANCH   1   7
ATOM      7  C   UNL     1      49.337   8.093  17.592  0.00  0.00    +0.000 C 
BRANCH   7   8
ATOM      8  N   UNL     1      48.266   7.606  18.470  0.00  0.00    +0.000 NA
ATOM      9  H   UNL     1      48.028   8.342  19.130  0.00  0.00    +0.000 HD
BRANCH   8  10
ATOM     10  C   UNL     1      48.634   6.399  19.236  0.00  0.00    +0.000 C 
BRANCH  10  11
ATOM     11  C   UNL     1      48.525   5.092  18.420  0.00  0.00    +0.000 A 
ATOM     12  C   UNL     1      49.642   4.247  18.233  0.00  0.00    +0.000 A 
ATOM     13  C   UNL     1      49.548   3.068  17.489  0.00  0.00    +0.000 A 
ATOM     14  C   UNL     1      48.331   2.693  16.931  0.00  0.00    +0.000 A 
ATOM     15  C   UNL     1      47.208   3.495  17.122  0.00  0.00    +0.000 A 
ATOM     16  C   UNL     1      47.300   4.675  17.868  0.00  0.00    +0.000 A 
ENDBRANCH  10  11
BRANCH  10  18
ATOM     17  N   UNL     1      51.158   6.601  20.386  0.00  0.00    +0.000 NA
ATOM     18  C   UNL     1      50.013   6.508  19.864  0.00  0.00    +0.000 C 
ENDBRANCH  10  18
ENDBRANCH   8  10
ENDBRANCH   7   8
ENDBRANCH   1   7
BRANCH   4  19
ATOM     19  C   UNL     1      47.577   7.800  12.044  0.00  0.00    +0.000 C 
BRANCH  19  20
ATOM     20  N   UNL     1      46.900   6.557  11.787  0.00  0.00    +0.000 N 
ATOM     21  C   UNL     1      45.535   6.470  11.866  0.00  0.00    +0.000 C 
ATOM     22  O   UNL     1      44.837   7.450  12.116  0.00  0.00    +0.000 OA
ATOM     23  H   UNL     1      47.462   5.711  11.790  0.00  0.00    +0.000 HD
BRANCH  21  24
ATOM     24  C   UNL     1      44.940   5.162  11.576  0.00  0.00    +0.000 A 
ATOM     25  C   UNL     1      44.229   4.502  12.569  0.00  0.00    +0.000 A 
ATOM     26  S   UNL     1      43.565   3.016  12.064  0.00  0.00    +0.000 S 
ATOM     27  C   UNL     1      44.244   3.179  10.512  0.00  0.00    +0.000 A 
ATOM     28  N   UNL     1      44.072   2.212   9.571  0.00  0.00    +0.000 NA
ATOM     29  C   UNL     1      44.665   2.449   8.448  0.00  0.00    +0.000 A 
ATOM     30  N   UNL     1      45.409   3.569   8.181  0.00  0.00    +0.000 N 
ATOM     31  C   UNL     1      45.585   4.586   9.089  0.00  0.00    +0.000 A 
ATOM     32  O   UNL     1      46.218   5.595   8.801  0.00  0.00    +0.000 OA
ATOM     33  C   UNL     1      44.950   4.361  10.374  0.00  0.00    +0.000 A 
ATOM     34  H   UNL     1      45.839   3.699   7.276  0.00  0.00    +0.000 HD
ENDBRANCH  21  24
ENDBRANCH  19  20
ENDBRANCH   4  19
TORSDOF 8
ENDMDL
MODEL 8
REMARK VINA RESULT:    -7.027      3.380      4.857
REMARK INTER + INTRA:         -11.535
REMARK INTER:                 -10.359
REMARK INTRA:                  -1.176
REMARK UNBOUND:                -1.223
REMARK  Name = 
REMARK  8 active torsions:
REMARK  status: ('A' for Active; 'I' for Inactive)
REMARK    1  A    between atoms: C_2  and  C_3
REMARK    2  A    between atoms: C_3  and  N_4
REMARK    3  A    between atoms: C_3  and  C_26
REMARK    4  A    between atoms: N_4  and  C_5
REMARK    5  A    between atoms: C_5  and  C_6
REMARK    6  A    between atoms: C_9  and  C_10
REMARK    7  A    between atoms: C_10  and  N_11
REMARK    8  A    between atoms: C_12  and  C_14
REMARK                            x       y       z     vdW  Elec       q    Type
REMARK                         _______ _______ _______ _____ _____    ______ ____
ROOT
ATOM      1  C   UNL     1      45.749   6.066  11.746  0.00  0.00    +0.000 A 
ATOM      2  C   UNL     1      46.203   5.074  12.629  0.00  0.00    +0.000 A 
ATOM      3  C   UNL     1      47.170   5.372  13.591  0.00  0.00    +0.000 A 
ATOM      4  C   UNL     1      47.708   6.660  13.680  0.00  0.00    +0.000 A 
ATOM      5  C   UNL     1      47.287   7.639  12.770  0.00  0.00    +0.000 A 
ATOM      6  C   UNL     1      46.309   7.349  11.819  0.00  0.00    +0.000 A 
ENDROOT
BRANCH   1   7
ATOM      7  C   UNL     1      44.675   5.752  10.733  0.00  0.00    +0.000 C 
BRANCH   7   8
ATOM      8  N   UNL     1      45.280   5.244   9.495  0.00  0.00    +0.000 NA
ATOM      9  H   UNL     1      45.161   5.943   8.766  0.00  0.00    +0.000 HD
BRANCH   8  10
ATOM     10  C   UNL     1      44.683   3.978   9.023  0.00  0.00    +0.000 C 
BRANCH  10  11
ATOM     11  C   UNL     1      45.677   3.069   8.270  0.00  0.00    +0.000 A 
ATOM     12  C   UNL     1      45.731   1.678   8.513  0.00  0.00    +0.000 A 
ATOM     13  C   UNL     1      46.635   0.854   7.837  0.00  0.00    +0.000 A 
ATOM     14  C   UNL     1      47.493   1.396   6.888  0.00  0.00    +0.000 A 
ATOM     15  C   UNL     1      47.444   2.759   6.611  0.00  0.00    +0.000 A 
ATOM     16  C   UNL     1      46.538   3.586   7.284  0.00  0.00    +0.000 A 
ENDBRANCH  10  11
BRANCH  10  18
ATOM     17  N   UNL     1      43.451   2.558  11.072  0.00  0.00    +0.000 NA
ATOM     18  C   UNL     1      44.010   3.202  10.143  0.00  0.00    +0.000 C 
ENDBRANCH  10  18
ENDBRANCH   8  10
ENDBRANCH   7   8
ENDBRANCH   1   7
BRANCH   4  19
ATOM     19  C   UNL     1      48.761   6.978  14.704  0.00  0.00    +0.000 C 
BRANCH  19  20
ATOM     20  N   UNL     1      50.030   7.227  14.074  0.00  0.00    +0.000 N 
ATOM     21  C   UNL     1      50.855   8.224  14.525  0.00  0.00    +0.000 C 
ATOM     22  O   UNL     1      50.567   8.912  15.502  0.00  0.00    +0.000 OA
ATOM     23  H   UNL     1      50.183   6.820  13.156  0.00  0.00    +0.000 HD
BRANCH  21  24
ATOM     24  C   UNL     1      52.131   8.392  13.823  0.00  0.00    +0.000 A 
ATOM     25  C   UNL     1      53.318   8.320  14.540  0.00  0.00    +0.000 A 
ATOM     26  S   UNL     1      54.712   8.491  13.576  0.00  0.00    +0.000 S 
ATOM     27  C   UNL     1      53.779   8.715  12.171  0.00  0.00    +0.000 A 
ATOM     28  N   UNL     1      54.372   8.943  10.968  0.00  0.00    +0.000 NA
ATOM     29  C   UNL     1      53.546   9.124   9.991  0.00  0.00    +0.000 A 
ATOM     30  N   UNL     1      52.181   9.092  10.109  0.00  0.00    +0.000 N 
ATOM     31  C   UNL     1      51.537   8.835  11.297  0.00  0.00    +0.000 A 
ATOM     32  O   UNL     1      50.314   8.768  11.357  0.00  0.00    +0.000 OA
ATOM     33  C   UNL     1      52.421   8.639  12.430  0.00  0.00    +0.000 A 
ATOM     34  H   UNL     1      51.590   9.232   9.302  0.00  0.00    +0.000 HD
ENDBRANCH  21  24
ENDBRANCH  19  20
ENDBRANCH   4  19
TORSDOF 8
ENDMDL
MODEL 9
REMARK VINA RESULT:    -6.978      1.768      2.760
REMARK INTER + INTRA:         -11.464
REMARK INTER:                 -10.497
REMARK INTRA:                  -0.967
REMARK UNBOUND:                -1.223
REMARK  Name = 
REMARK  8 active torsions:
REMARK  status: ('A' for Active; 'I' for Inactive)
REMARK    1  A    between atoms: C_2  and  C_3
REMARK    2  A    between atoms: C_3  and  N_4
REMARK    3  A    between atoms: C_3  and  C_26
REMARK    4  A    between atoms: N_4  and  C_5
REMARK    5  A    between atoms: C_5  and  C_6
REMARK    6  A    between atoms: C_9  and  C_10
REMARK    7  A    between atoms: C_10  and  N_11
REMARK    8  A    between atoms: C_12  and  C_14
REMARK                            x       y       z     vdW  Elec       q    Type
REMARK                         _______ _______ _______ _____ _____    ______ ____
ROOT
ATOM      1  C   UNL     1      45.292   6.471  12.354  0.00  0.00    +0.000 A 
ATOM      2  C   UNL     1      45.565   7.823  12.617  0.00  0.00    +0.000 A 
ATOM      3  C   UNL     1      46.759   8.197  13.236  0.00  0.00    +0.000 A 
ATOM      4  C   UNL     1      47.695   7.227  13.614  0.00  0.00    +0.000 A 
ATOM      5  C   UNL     1      47.403   5.875  13.391  0.00  0.00    +0.000 A 
ATOM      6  C   UNL     1      46.218   5.500  12.757  0.00  0.00    +0.000 A 
ENDROOT
BRANCH   1   7
ATOM      7  C   UNL     1      44.017   6.074  11.649  0.00  0.00    +0.000 C 
BRANCH   7   8
ATOM      8  N   UNL     1      44.310   5.643  10.276  0.00  0.00    +0.000 NA
ATOM      9  H   UNL     1      43.781   6.226   9.633  0.00  0.00    +0.000 HD
BRANCH   8  10
ATOM     10  C   UNL     1      43.962   4.232  10.015  0.00  0.00    +0.000 C 
BRANCH  10  11
ATOM     11  C   UNL     1      44.955   3.514   9.076  0.00  0.00    +0.000 A 
ATOM     12  C   UNL     1      45.132   2.113   9.127  0.00  0.00    +0.000 A 
ATOM     13  C   UNL     1      46.036   1.461   8.284  0.00  0.00    +0.000 A 
ATOM     14  C   UNL     1      46.770   2.190   7.356  0.00  0.00    +0.000 A 
ATOM     15  C   UNL     1      46.597   3.569   7.267  0.00  0.00    +0.000 A 
ATOM     16  C   UNL     1      45.690   4.223   8.109  0.00  0.00    +0.000 A 
ENDBRANCH  10  11
BRANCH  10  18
ATOM     17  N   UNL     1      43.630   2.770  12.357  0.00  0.00    +0.000 NA
ATOM     18  C   UNL     1      43.781   3.432  11.295  0.00  0.00    +0.000 C 
ENDBRANCH  10  18
ENDBRANCH   8  10
ENDBRANCH   7   8
ENDBRANCH   1   7
BRANCH   4  19
ATOM     19  C   UNL     1      48.973   7.626  14.295  0.00  0.00    +0.000 C 
BRANCH  19  20
ATOM     20  N   UNL     1      49.203   6.822  15.466  0.00  0.00    +0.000 N 
ATOM     21  C   UNL     1      48.935   7.309  16.718  0.00  0.00    +0.000 C 
ATOM     22  O   UNL     1      48.453   8.426  16.889  0.00  0.00    +0.000 OA
ATOM     23  H   UNL     1      49.787   5.997  15.358  0.00  0.00    +0.000 HD
BRANCH  21  24
ATOM     24  C   UNL     1      49.193   6.408  17.845  0.00  0.00    +0.000 A 
ATOM     25  C   UNL     1      48.318   5.358  18.091  0.00  0.00    +0.000 A 
ATOM     26  S   UNL     1      48.779   4.377  19.407  0.00  0.00    +0.000 S 
ATOM     27  C   UNL     1      50.139   5.350  19.725  0.00  0.00    +0.000 A 
ATOM     28  N   UNL     1      50.968   5.069  20.765  0.00  0.00    +0.000 NA
ATOM     29  C   UNL     1      51.943   5.904  20.911  0.00  0.00    +0.000 A 
ATOM     30  N   UNL     1      52.165   6.991  20.105  0.00  0.00    +0.000 N 
ATOM     31  C   UNL     1      51.372   7.297  19.024  0.00  0.00    +0.000 A 
ATOM     32  O   UNL     1      51.626   8.251  18.297  0.00  0.00    +0.000 OA
ATOM     33  C   UNL     1      50.252   6.397  18.827  0.00  0.00    +0.000 A 
ATOM     34  H   UNL     1      52.954   7.600  20.267  0.00  0.00    +0.000 HD
ENDBRANCH  21  24
ENDBRANCH  19  20
ENDBRANCH   4  19
TORSDOF 8
ENDMDL
