MODEL 1
REMARK VINA RESULT:    -7.928      0.000      0.000
REMARK INTER + INTRA:         -12.948
REMARK INTER:                 -11.868
REMARK INTRA:                  -1.080
REMARK UNBOUND:                -1.080
REMARK  Name = 
REMARK  9 active torsions:
REMARK  status: ('A' for Active; 'I' for Inactive)
REMARK    1  A    between atoms: C_2  and  C_13
REMARK    2  A    between atoms: N_3  and  CA_4
REMARK    3  A    between atoms: CA_4  and  C_5
REMARK    4  A    between atoms: CA_4  and  C_7
REMARK    5  A    between atoms: C_5  and  O_6
REMARK    6  A    between atoms: C_16  and  C_17
REMARK    7  A    between atoms: C_17  and  N_18
REMARK    8  A    between atoms: N_18  and  C_19
REMARK    9  A    between atoms: C_19  and  C_20
REMARK                            x       y       z     vdW  Elec       q    Type
REMARK                         _______ _______ _______ _____ _____    ______ ____
ROOT
ATOM      1  C   UNL     1      46.771   4.484  14.026  0.00  0.00    +0.000 A 
ATOM      2  C   UNL     1      46.020   3.620  13.216  0.00  0.00    +0.000 A 
ATOM      3  C   UNL     1      45.442   4.092  12.037  0.00  0.00    +0.000 A 
ATOM      4  C   UNL     1      45.606   5.428  11.646  0.00  0.00    +0.000 A 
ATOM      5  C   UNL     1      46.343   6.292  12.471  0.00  0.00    +0.000 A 
ATOM      6  C   UNL     1      46.926   5.822  13.653  0.00  0.00    +0.000 A 
ENDROOT
BRANCH   1   8
ATOM      7  O   UNL     1      47.809   2.809  15.326  0.00  0.00    +0.000 OA
ATOM      8  C   UNL     1      47.467   3.980  15.240  0.00  0.00    +0.000 C 
ATOM      9  N   UNL     1      47.679   4.910  16.227  0.00  0.00    +0.000 N 
ATOM     10  H   UNL     1      47.561   5.891  16.014  0.00  0.00    +0.000 HD
BRANCH   9  11
ATOM     11  CA  UNL     1      48.293   4.580  17.508  0.00  0.00    +0.000 C 
BRANCH  11  12
ATOM     12  C   UNL     1      49.803   4.687  17.352  0.00  0.00    +0.000 A 
ATOM     13  C   UNL     1      50.376   5.907  16.958  0.00  0.00    +0.000 A 
ATOM     14  C   UNL     1      51.760   6.088  16.994  0.00  0.00    +0.000 A 
ATOM     15  C   UNL     1      52.590   5.055  17.423  0.00  0.00    +0.000 A 
ATOM     16  C   UNL     1      52.041   3.824  17.777  0.00  0.00    +0.000 A 
ATOM     17  C   UNL     1      50.658   3.637  17.729  0.00  0.00    +0.000 A 
ENDBRANCH  11  12
BRANCH  11  18
ATOM     18  C   UNL     1      47.686   5.409  18.663  0.00  0.00    +0.000 C 
BRANCH  18  19
ATOM     19  O   UNL     1      46.254   5.382  18.691  0.00  0.00    +0.000 OA
ATOM     20  H   UNL     1      45.966   5.437  17.763  0.00  0.00    +0.000 HD
ENDBRANCH  18  19
ENDBRANCH  11  18
ENDBRANCH   9  11
ENDBRANCH   1   8
BRANCH   4  21
ATOM     21  C   UNL     1      45.044   5.909  10.327  0.00  0.00    +0.000 C 
BRANCH  21  22
ATOM     22  N   UNL     1      45.828   5.406   9.202  0.00  0.00    +0.000 NA
ATOM     23  H   UNL     1      46.649   4.916   9.567  0.00  0.00    +0.000 HD
BRANCH  22  24
ATOM     24  C   UNL     1      45.042   4.468   8.396  0.00  0.00    +0.000 C 
BRANCH  24  25
ATOM     25  C   UNL     1      45.899   3.304   7.944  0.00  0.00    +0.000 A 
ATOM     26  C   UNL     1      46.970   3.563   7.064  0.00  0.00    +0.000 A 
ATOM     27  C   UNL     1      47.804   2.536   6.613  0.00  0.00    +0.000 A 
ATOM     28  C   UNL     1      47.575   1.229   7.031  0.00  0.00    +0.000 A 
ATOM     29  C   UNL     1      46.515   0.948   7.891  0.00  0.00    +0.000 A 
ATOM     30  C   UNL     1      45.676   1.975   8.342  0.00  0.00    +0.000 A 
ATOM     31 CL   UNL     1      44.383   1.528   9.396  0.00  0.00    +0.000 Cl
ENDBRANCH  24  25
ENDBRANCH  22  24
ENDBRANCH  21  22
ENDBRANCH   4  21
TORSDOF 9
ENDMDL
MODEL 2
REMARK VINA RESULT:    -7.719      3.058      8.569
REMARK INTER + INTRA:         -12.635
REMARK INTER:                 -11.259
REMARK INTRA:                  -1.375
REMARK UNBOUND:                -1.080
REMARK  Name = 
REMARK  9 active torsions:
REMARK  status: ('A' for Active; 'I' for Inactive)
REMARK    1  A    between atoms: C_2  and  C_13
REMARK    2  A    between atoms: N_3  and  CA_4
REMARK    3  A    between atoms: CA_4  and  C_5
REMARK    4  A    between atoms: CA_4  and  C_7
REMARK    5  A    between atoms: C_5  and  O_6
REMARK    6  A    between atoms: C_16  and  C_17
REMARK    7  A    between atoms: C_17  and  N_18
REMARK    8  A    between atoms: N_18  and  C_19
REMARK    9  A    between atoms: C_19  and  C_20
REMARK                            x       y       z     vdW  Elec       q    Type
REMARK                         _______ _______ _______ _____ _____    ______ ____
ROOT
ATOM      1  C   UNL     1      46.100   6.515  12.481  0.00  0.00    +0.000 A 
ATOM      2  C   UNL     1      47.058   5.694  13.094  0.00  0.00    +0.000 A 
ATOM      3  C   UNL     1      47.960   6.235  14.011  0.00  0.00    +0.000 A 
ATOM      4  C   UNL     1      47.919   7.599  14.334  0.00  0.00    +0.000 A 
ATOM      5  C   UNL     1      46.970   8.418  13.703  0.00  0.00    +0.000 A 
ATOM      6  C   UNL     1      46.062   7.879  12.784  0.00  0.00    +0.000 A 
ENDROOT
BRANCH   1   8
ATOM      7  O   UNL     1      44.166   6.635  11.133  0.00  0.00    +0.000 OA
ATOM      8  C   UNL     1      45.075   5.942  11.568  0.00  0.00    +0.000 C 
ATOM      9  N   UNL     1      45.228   4.611  11.271  0.00  0.00    +0.000 N 
ATOM     10  H   UNL     1      46.101   4.154  11.492  0.00  0.00    +0.000 HD
BRANCH   9  11
ATOM     11  CA  UNL     1      44.284   3.871  10.441  0.00  0.00    +0.000 C 
BRANCH  11  12
ATOM     12  C   UNL     1      45.038   3.324   9.238  0.00  0.00    +0.000 A 
ATOM     13  C   UNL     1      45.605   4.212   8.310  0.00  0.00    +0.000 A 
ATOM     14  C   UNL     1      46.461   3.747   7.309  0.00  0.00    +0.000 A 
ATOM     15  C   UNL     1      46.762   2.389   7.222  0.00  0.00    +0.000 A 
ATOM     16  C   UNL     1      46.174   1.489   8.108  0.00  0.00    +0.000 A 
ATOM     17  C   UNL     1      45.307   1.951   9.101  0.00  0.00    +0.000 A 
ENDBRANCH  11  12
BRANCH  11  18
ATOM     18  C   UNL     1      43.499   2.823  11.263  0.00  0.00    +0.000 C 
BRANCH  18  19
ATOM     19  O   UNL     1      44.014   2.639  12.587  0.00  0.00    +0.000 OA
ATOM     20  H   UNL     1      43.426   1.994  13.017  0.00  0.00    +0.000 HD
ENDBRANCH  18  19
ENDBRANCH  11  18
ENDBRANCH   9  11
ENDBRANCH   1   8
BRANCH   4  21
ATOM     21  C   UNL     1      48.847   8.159  15.388  0.00  0.00    +0.000 C 
BRANCH  21  22
ATOM     22  N   UNL     1      48.461   7.713  16.724  0.00  0.00    +0.000 NA
ATOM     23  H   UNL     1      47.610   7.151  16.650  0.00  0.00    +0.000 HD
BRANCH  22  24
ATOM     24  C   UNL     1      49.515   6.891  17.324  0.00  0.00    +0.000 C 
BRANCH  24  25
ATOM     25  C   UNL     1      49.097   5.436  17.369  0.00  0.00    +0.000 A 
ATOM     26  C   UNL     1      47.720   5.135  17.375  0.00  0.00    +0.000 A 
ATOM     27  C   UNL     1      47.265   3.814  17.410  0.00  0.00    +0.000 A 
ATOM     28  C   UNL     1      48.183   2.770  17.445  0.00  0.00    +0.000 A 
ATOM     29  C   UNL     1      49.550   3.043  17.451  0.00  0.00    +0.000 A 
ATOM     30  C   UNL     1      50.008   4.367  17.420  0.00  0.00    +0.000 A 
ATOM     31 CL   UNL     1      51.718   4.607  17.442  0.00  0.00    +0.000 Cl
ENDBRANCH  24  25
ENDBRANCH  22  24
ENDBRANCH  21  22
ENDBRANCH   4  21
TORSDOF 9
ENDMDL
MODEL 3
REMARK VINA RESULT:    -7.533      3.499      8.970
REMARK INTER + INTRA:         -12.357
REMARK INTER:                 -11.166
REMARK INTRA:                  -1.190
REMARK UNBOUND:                -1.080
REMARK  Name = 
REMARK  9 active torsions:
REMARK  status: ('A' for Active; 'I' for Inactive)
REMARK    1  A    between atoms: C_2  and  C_13
REMARK    2  A    between atoms: N_3  and  CA_4
REMARK    3  A    between atoms: CA_4  and  C_5
REMARK    4  A    between atoms: CA_4  and  C_7
REMARK    5  A    between atoms: C_5  and  O_6
REMARK    6  A    between atoms: C_16  and  C_17
REMARK    7  A    between atoms: C_17  and  N_18
REMARK    8  A    between atoms: N_18  and  C_19
REMARK    9  A    between atoms: C_19  and  C_20
REMARK                            x       y       z     vdW  Elec       q    Type
REMARK                         _______ _______ _______ _____ _____    ______ ____
ROOT
ATOM      1  C   UNL     1      45.570   6.760  12.142  0.00  0.00    +0.000 A 
ATOM      2  C   UNL     1      46.763   6.208  12.629  0.00  0.00    +0.000 A 
ATOM      3  C   UNL     1      47.637   6.986  13.388  0.00  0.00    +0.000 A 
ATOM      4  C   UNL     1      47.335   8.325  13.676  0.00  0.00    +0.000 A 
ATOM      5  C   UNL     1      46.147   8.877  13.170  0.00  0.00    +0.000 A 
ATOM      6  C   UNL     1      45.267   8.098  12.410  0.00  0.00    +0.000 A 
ENDROOT
BRANCH   1   8
ATOM      7  O   UNL     1      43.414   6.267  11.314  0.00  0.00    +0.000 OA
ATOM      8  C   UNL     1      44.585   5.923  11.406  0.00  0.00    +0.000 C 
ATOM      9  N   UNL     1      45.083   4.766  10.863  0.00  0.00    +0.000 N 
ATOM     10  H   UNL     1      46.084   4.643  10.797  0.00  0.00    +0.000 HD
BRANCH   9  11
ATOM     11  CA  UNL     1      44.250   3.797  10.160  0.00  0.00    +0.000 C 
BRANCH  11  12
ATOM     12  C   UNL     1      45.069   3.203   9.024  0.00  0.00    +0.000 A 
ATOM     13  C   UNL     1      45.695   4.054   8.099  0.00  0.00    +0.000 A 
ATOM     14  C   UNL     1      46.605   3.549   7.167  0.00  0.00    +0.000 A 
ATOM     15  C   UNL     1      46.901   2.188   7.147  0.00  0.00    +0.000 A 
ATOM     16  C   UNL     1      46.256   1.323   8.028  0.00  0.00    +0.000 A 
ATOM     17  C   UNL     1      45.337   1.825   8.952  0.00  0.00    +0.000 A 
ENDBRANCH  11  12
BRANCH  11  18
ATOM     18  C   UNL     1      43.624   2.770  11.131  0.00  0.00    +0.000 C 
BRANCH  18  19
ATOM     19  O   UNL     1      44.357   2.624  12.353  0.00  0.00    +0.000 OA
ATOM     20  H   UNL     1      44.003   3.296  12.962  0.00  0.00    +0.000 HD
ENDBRANCH  18  19
ENDBRANCH  11  18
ENDBRANCH   9  11
ENDBRANCH   1   8
BRANCH   4  21
ATOM     21  C   UNL     1      48.248   9.137  14.566  0.00  0.00    +0.000 C 
BRANCH  21  22
ATOM     22  N   UNL     1      47.735   9.203  15.932  0.00  0.00    +0.000 NA
ATOM     23  H   UNL     1      46.951   8.552  16.020  0.00  0.00    +0.000 HD
BRANCH  22  24
ATOM     24  C   UNL     1      48.770   8.824  16.897  0.00  0.00    +0.000 C 
BRANCH  24  25
ATOM     25  C   UNL     1      48.461   7.474  17.510  0.00  0.00    +0.000 A 
ATOM     26  C   UNL     1      48.820   6.315  16.792  0.00  0.00    +0.000 A 
ATOM     27  C   UNL     1      48.569   5.038  17.302  0.00  0.00    +0.000 A 
ATOM     28  C   UNL     1      47.947   4.899  18.538  0.00  0.00    +0.000 A 
ATOM     29  C   UNL     1      47.573   6.031  19.261  0.00  0.00    +0.000 A 
ATOM     30  C   UNL     1      47.820   7.312  18.750  0.00  0.00    +0.000 A 
ATOM     31 CL   UNL     1      47.310   8.653  19.712  0.00  0.00    +0.000 Cl
ENDBRANCH  24  25
ENDBRANCH  22  24
ENDBRANCH  21  22
ENDBRANCH   4  21
TORSDOF 9
ENDMDL
MODEL 4
REMARK VINA RESULT:    -7.366      2.846      8.671
REMARK INTER + INTRA:         -12.106
REMARK INTER:                 -10.822
REMARK INTRA:                  -1.284
REMARK UNBOUND:                -1.080
REMARK  Name = 
REMARK  9 active torsions:
REMARK  status: ('A' for Active; 'I' for Inactive)
REMARK    1  A    between atoms: C_2  and  C_13
REMARK    2  A    between atoms: N_3  and  CA_4
REMARK    3  A    between atoms: CA_4  and  C_5
REMARK    4  A    between atoms: CA_4  and  C_7
REMARK    5  A    between atoms: C_5  and  O_6
REMARK    6  A    between atoms: C_16  and  C_17
REMARK    7  A    between atoms: C_17  and  N_18
REMARK    8  A    between atoms: N_18  and  C_19
REMARK    9  A    between atoms: C_19  and  C_20
REMARK                            x       y       z     vdW  Elec       q    Type
REMARK                         _______ _______ _______ _____ _____    ______ ____
ROOT
ATOM      1  C   UNL     1      46.381   6.053  12.663  0.00  0.00    +0.000 A 
ATOM      2  C   UNL     1      46.693   5.271  13.783  0.00  0.00    +0.000 A 
ATOM      3  C   UNL     1      47.646   5.712  14.703  0.00  0.00    +0.000 A 
ATOM      4  C   UNL     1      48.298   6.939  14.521  0.00  0.00    +0.000 A 
ATOM      5  C   UNL     1      47.994   7.709  13.387  0.00  0.00    +0.000 A 
ATOM      6  C   UNL     1      47.038   7.270  12.464  0.00  0.00    +0.000 A 
ENDROOT
BRANCH   1   8
ATOM      7  O   UNL     1      44.405   6.412  11.422  0.00  0.00    +0.000 OA
ATOM      8  C   UNL     1      45.308   5.641  11.718  0.00  0.00    +0.000 C 
ATOM      9  N   UNL     1      45.410   4.364  11.230  0.00  0.00    +0.000 N 
ATOM     10  H   UNL     1      46.277   3.858  11.349  0.00  0.00    +0.000 HD
BRANCH   9  11
ATOM     11  CA  UNL     1      44.415   3.773  10.341  0.00  0.00    +0.000 C 
BRANCH  11  12
ATOM     12  C   UNL     1      45.139   3.218   9.123  0.00  0.00    +0.000 A 
ATOM     13  C   UNL     1      45.667   4.099   8.166  0.00  0.00    +0.000 A 
ATOM     14  C   UNL     1      46.496   3.630   7.146  0.00  0.00    +0.000 A 
ATOM     15  C   UNL     1      46.810   2.274   7.068  0.00  0.00    +0.000 A 
ATOM     16  C   UNL     1      46.260   1.380   7.983  0.00  0.00    +0.000 A 
ATOM     17  C   UNL     1      45.420   1.846   8.996  0.00  0.00    +0.000 A 
ENDBRANCH  11  12
BRANCH  11  18
ATOM     18  C   UNL     1      43.508   2.768  11.087  0.00  0.00    +0.000 C 
BRANCH  18  19
ATOM     19  O   UNL     1      43.981   2.440  12.398  0.00  0.00    +0.000 OA
ATOM     20  H   UNL     1      44.507   3.203  12.694  0.00  0.00    +0.000 HD
ENDBRANCH  18  19
ENDBRANCH  11  18
ENDBRANCH   9  11
ENDBRANCH   1   8
BRANCH   4  21
ATOM     21  C   UNL     1      49.269   7.446  15.564  0.00  0.00    +0.000 C 
BRANCH  21  22
ATOM     22  N   UNL     1      48.632   7.550  16.875  0.00  0.00    +0.000 NA
ATOM     23  H   UNL     1      47.751   7.031  16.853  0.00  0.00    +0.000 HD
BRANCH  22  24
ATOM     24  C   UNL     1      49.488   6.978  17.917  0.00  0.00    +0.000 C 
BRANCH  24  25
ATOM     25  C   UNL     1      49.474   5.465  17.850  0.00  0.00    +0.000 A 
ATOM     26  C   UNL     1      50.657   4.802  17.467  0.00  0.00    +0.000 A 
ATOM     27  C   UNL     1      50.715   3.407  17.391  0.00  0.00    +0.000 A 
ATOM     28  C   UNL     1      49.586   2.652  17.690  0.00  0.00    +0.000 A 
ATOM     29  C   UNL     1      48.401   3.288  18.059  0.00  0.00    +0.000 A 
ATOM     30  C   UNL     1      48.340   4.686  18.134  0.00  0.00    +0.000 A 
ATOM     31 CL   UNL     1      46.826   5.382  18.589  0.00  0.00    +0.000 Cl
ENDBRANCH  24  25
ENDBRANCH  22  24
ENDBRANCH  21  22
ENDBRANCH   4  21
TORSDOF 9
ENDMDL
MODEL 5
REMARK VINA RESULT:    -7.057      4.715      8.735
REMARK INTER + INTRA:         -11.644
REMARK INTER:                 -10.338
REMARK INTRA:                  -1.307
REMARK UNBOUND:                -1.080
REMARK  Name = 
REMARK  9 active torsions:
REMARK  status: ('A' for Active; 'I' for Inactive)
REMARK    1  A    between atoms: C_2  and  C_13
REMARK    2  A    between atoms: N_3  and  CA_4
REMARK    3  A    between atoms: CA_4  and  C_5
REMARK    4  A    between atoms: CA_4  and  C_7
REMARK    5  A    between atoms: C_5  and  O_6
REMARK    6  A    between atoms: C_16  and  C_17
REMARK    7  A    between atoms: C_17  and  N_18
REMARK    8  A    between atoms: N_18  and  C_19
REMARK    9  A    between atoms: C_19  and  C_20
REMARK                            x       y       z     vdW  Elec       q    Type
REMARK                         _______ _______ _______ _____ _____    ______ ____
ROOT
ATOM      1  C   UNL     1      45.458   6.597  11.925  0.00  0.00    +0.000 A 
ATOM      2  C   UNL     1      45.043   7.905  12.212  0.00  0.00    +0.000 A 
ATOM      3  C   UNL     1      45.893   8.776  12.896  0.00  0.00    +0.000 A 
ATOM      4  C   UNL     1      47.168   8.358  13.300  0.00  0.00    +0.000 A 
ATOM      5  C   UNL     1      47.570   7.041  13.026  0.00  0.00    +0.000 A 
ATOM      6  C   UNL     1      46.722   6.166  12.339  0.00  0.00    +0.000 A 
ENDROOT
BRANCH   1   8
ATOM      7  O   UNL     1      43.399   5.875  11.025  0.00  0.00    +0.000 OA
ATOM      8  C   UNL     1      44.603   5.683  11.122  0.00  0.00    +0.000 C 
ATOM      9  N   UNL     1      45.258   4.635  10.526  0.00  0.00    +0.000 N 
ATOM     10  H   UNL     1      46.267   4.649  10.475  0.00  0.00    +0.000 HD
BRANCH   9  11
ATOM     11  CA  UNL     1      44.569   3.608   9.752  0.00  0.00    +0.000 C 
BRANCH  11  12
ATOM     12  C   UNL     1      45.526   3.099   8.684  0.00  0.00    +0.000 A 
ATOM     13  C   UNL     1      45.863   1.736   8.644  0.00  0.00    +0.000 A 
ATOM     14  C   UNL     1      46.579   1.210   7.568  0.00  0.00    +0.000 A 
ATOM     15  C   UNL     1      46.968   2.036   6.516  0.00  0.00    +0.000 A 
ATOM     16  C   UNL     1      46.680   3.398   6.559  0.00  0.00    +0.000 A 
ATOM     17  C   UNL     1      45.974   3.929   7.641  0.00  0.00    +0.000 A 
ENDBRANCH  11  12
BRANCH  11  18
ATOM     18  C   UNL     1      43.956   2.520  10.663  0.00  0.00    +0.000 C 
BRANCH  18  19
ATOM     19  O   UNL     1      42.814   2.974  11.400  0.00  0.00    +0.000 OA
ATOM     20  H   UNL     1      42.643   2.296  12.077  0.00  0.00    +0.000 HD
ENDBRANCH  18  19
ENDBRANCH  11  18
ENDBRANCH   9  11
ENDBRANCH   1   8
BRANCH   4  21
ATOM     21  C   UNL     1      48.112   9.333  13.969  0.00  0.00    +0.000 C 
BRANCH  21  22
ATOM     22  N   UNL     1      47.999  10.666  13.382  0.00  0.00    +0.000 NA
ATOM     23  H   UNL     1      48.148  11.362  14.117  0.00  0.00    +0.000 HD
BRANCH  22  24
ATOM     24  C   UNL     1      49.007  10.863  12.338  0.00  0.00    +0.000 C 
BRANCH  24  25
ATOM     25  C   UNL     1      48.373  11.426  11.083  0.00  0.00    +0.000 A 
ATOM     26  C   UNL     1      46.980  11.644  11.077  0.00  0.00    +0.000 A 
ATOM     27  C   UNL     1      46.332  12.167   9.954  0.00  0.00    +0.000 A 
ATOM     28  C   UNL     1      47.068  12.476   8.815  0.00  0.00    +0.000 A 
ATOM     29  C   UNL     1      48.445  12.258   8.794  0.00  0.00    +0.000 A 
ATOM     30  C   UNL     1      49.096  11.731   9.918  0.00  0.00    +0.000 A 
ATOM     31 CL   UNL     1      50.801  11.486   9.793  0.00  0.00    +0.000 Cl
ENDBRANCH  24  25
ENDBRANCH  22  24
ENDBRANCH  21  22
ENDBRANCH   4  21
TORSDOF 9
ENDMDL
MODEL 6
REMARK VINA RESULT:    -6.999      5.178      8.401
REMARK INTER + INTRA:         -11.557
REMARK INTER:                 -10.304
REMARK INTRA:                  -1.253
REMARK UNBOUND:                -1.080
REMARK  Name = 
REMARK  9 active torsions:
REMARK  status: ('A' for Active; 'I' for Inactive)
REMARK    1  A    between atoms: C_2  and  C_13
REMARK    2  A    between atoms: N_3  and  CA_4
REMARK    3  A    between atoms: CA_4  and  C_5
REMARK    4  A    between atoms: CA_4  and  C_7
REMARK    5  A    between atoms: C_5  and  O_6
REMARK    6  A    between atoms: C_16  and  C_17
REMARK    7  A    between atoms: C_17  and  N_18
REMARK    8  A    between atoms: N_18  and  C_19
REMARK    9  A    between atoms: C_19  and  C_20
REMARK                            x       y       z     vdW  Elec       q    Type
REMARK                         _______ _______ _______ _____ _____    ______ ____
ROOT
ATOM      1  C   UNL     1      45.584   6.966  11.544  0.00  0.00    +0.000 A 
ATOM      2  C   UNL     1      45.113   8.213  11.978  0.00  0.00    +0.000 A 
ATOM      3  C   UNL     1      46.013   9.210  12.354  0.00  0.00    +0.000 A 
ATOM      4  C   UNL     1      47.395   8.981  12.300  0.00  0.00    +0.000 A 
ATOM      5  C   UNL     1      47.860   7.724  11.881  0.00  0.00    +0.000 A 
ATOM      6  C   UNL     1      46.960   6.723  11.502  0.00  0.00    +0.000 A 
ENDROOT
BRANCH   1   8
ATOM      7  O   UNL     1      43.444   6.005  11.277  0.00  0.00    +0.000 OA
ATOM      8  C   UNL     1      44.644   5.921  11.056  0.00  0.00    +0.000 C 
ATOM      9  N   UNL     1      45.221   4.885  10.367  0.00  0.00    +0.000 N 
ATOM     10  H   UNL     1      46.174   4.977  10.044  0.00  0.00    +0.000 HD
BRANCH   9  11
ATOM     11  CA  UNL     1      44.460   3.744   9.869  0.00  0.00    +0.000 C 
BRANCH  11  12
ATOM     12  C   UNL     1      45.259   3.093   8.750  0.00  0.00    +0.000 A 
ATOM     13  C   UNL     1      45.862   3.895   7.768  0.00  0.00    +0.000 A 
ATOM     14  C   UNL     1      46.756   3.345   6.847  0.00  0.00    +0.000 A 
ATOM     15  C   UNL     1      47.059   1.986   6.894  0.00  0.00    +0.000 A 
ATOM     16  C   UNL     1      46.437   1.167   7.834  0.00  0.00    +0.000 A 
ATOM     17  C   UNL     1      45.534   1.714   8.747  0.00  0.00    +0.000 A 
ENDBRANCH  11  12
BRANCH  11  18
ATOM     18  C   UNL     1      44.033   2.797  11.014  0.00  0.00    +0.000 C 
BRANCH  18  19
ATOM     19  O   UNL     1      42.690   3.018  11.462  0.00  0.00    +0.000 OA
ATOM     20  H   UNL     1      42.576   3.983  11.505  0.00  0.00    +0.000 HD
ENDBRANCH  18  19
ENDBRANCH  11  18
ENDBRANCH   9  11
ENDBRANCH   1   8
BRANCH   4  21
ATOM     21  C   UNL     1      48.364  10.094  12.632  0.00  0.00    +0.000 C 
BRANCH  21  22
ATOM     22  N   UNL     1      49.698   9.568  12.912  0.00  0.00    +0.000 NA
ATOM     23  H   UNL     1      49.741   8.596  12.596  0.00  0.00    +0.000 HD
BRANCH  22  24
ATOM     24  C   UNL     1      50.722  10.338  12.200  0.00  0.00    +0.000 C 
BRANCH  24  25
ATOM     25  C   UNL     1      51.395   9.484  11.146  0.00  0.00    +0.000 A 
ATOM     26  C   UNL     1      51.259   8.084  11.232  0.00  0.00    +0.000 A 
ATOM     27  C   UNL     1      51.849   7.237  10.288  0.00  0.00    +0.000 A 
ATOM     28  C   UNL     1      52.592   7.779   9.245  0.00  0.00    +0.000 A 
ATOM     29  C   UNL     1      52.750   9.161   9.147  0.00  0.00    +0.000 A 
ATOM     30  C   UNL     1      52.162  10.011  10.093  0.00  0.00    +0.000 A 
ATOM     31 CL   UNL     1      52.423  11.707   9.895  0.00  0.00    +0.000 Cl
ENDBRANCH  24  25
ENDBRANCH  22  24
ENDBRANCH  21  22
ENDBRANCH   4  21
TORSDOF 9
ENDMDL
MODEL 7
REMARK VINA RESULT:    -6.827      3.038      8.887
REMARK INTER + INTRA:         -11.299
REMARK INTER:                 -10.466
REMARK INTRA:                  -0.833
REMARK UNBOUND:                -1.080
REMARK  Name = 
REMARK  9 active torsions:
REMARK  status: ('A' for Active; 'I' for Inactive)
REMARK    1  A    between atoms: C_2  and  C_13
REMARK    2  A    between atoms: N_3  and  CA_4
REMARK    3  A    between atoms: CA_4  and  C_5
REMARK    4  A    between atoms: CA_4  and  C_7
REMARK    5  A    between atoms: C_5  and  O_6
REMARK    6  A    between atoms: C_16  and  C_17
REMARK    7  A    between atoms: C_17  and  N_18
REMARK    8  A    between atoms: N_18  and  C_19
REMARK    9  A    between atoms: C_19  and  C_20
REMARK                            x       y       z     vdW  Elec       q    Type
REMARK                         _______ _______ _______ _____ _____    ______ ____
ROOT
ATOM      1  C   UNL     1      46.764   6.486  13.261  0.00  0.00    +0.000 A 
ATOM      2  C   UNL     1      47.525   7.613  13.601  0.00  0.00    +0.000 A 
ATOM      3  C   UNL     1      48.392   7.570  14.693  0.00  0.00    +0.000 A 
ATOM      4  C   UNL     1      48.516   6.403  15.460  0.00  0.00    +0.000 A 
ATOM      5  C   UNL     1      47.738   5.284  15.126  0.00  0.00    +0.000 A 
ATOM      6  C   UNL     1      46.869   5.323  14.029  0.00  0.00    +0.000 A 
ENDROOT
BRANCH   1   8
ATOM      7  O   UNL     1      45.994   7.369  11.211  0.00  0.00    +0.000 OA
ATOM      8  C   UNL     1      45.900   6.483  12.049  0.00  0.00    +0.000 C 
ATOM      9  N   UNL     1      45.013   5.440  11.960  0.00  0.00    +0.000 N 
ATOM     10  H   UNL     1      45.127   4.643  12.570  0.00  0.00    +0.000 HD
BRANCH   9  11
ATOM     11  CA  UNL     1      44.050   5.311  10.872  0.00  0.00    +0.000 C 
BRANCH  11  12
ATOM     12  C   UNL     1      44.605   4.315   9.864  0.00  0.00    +0.000 A 
ATOM     13  C   UNL     1      45.454   4.763   8.840  0.00  0.00    +0.000 A 
ATOM     14  C   UNL     1      46.127   3.852   8.023  0.00  0.00    +0.000 A 
ATOM     15  C   UNL     1      45.962   2.483   8.218  0.00  0.00    +0.000 A 
ATOM     16  C   UNL     1      45.089   2.022   9.201  0.00  0.00    +0.000 A 
ATOM     17  C   UNL     1      44.405   2.931  10.011  0.00  0.00    +0.000 A 
ENDBRANCH  11  12
BRANCH  11  18
ATOM     18  C   UNL     1      42.631   4.997  11.400  0.00  0.00    +0.000 C 
BRANCH  18  19
ATOM     19  O   UNL     1      41.905   6.164  11.804  0.00  0.00    +0.000 OA
ATOM     20  H   UNL     1      41.808   6.711  11.005  0.00  0.00    +0.000 HD
ENDBRANCH  18  19
ENDBRANCH  11  18
ENDBRANCH   9  11
ENDBRANCH   1   8
BRANCH   4  21
ATOM     21  C   UNL     1      49.517   6.340  16.592  0.00  0.00    +0.000 C 
BRANCH  21  22
ATOM     22  N   UNL     1      50.248   5.076  16.583  0.00  0.00    +0.000 NA
ATOM     23  H   UNL     1      51.155   5.224  16.134  0.00  0.00    +0.000 HD
BRANCH  22  24
ATOM     24  C   UNL     1      50.473   4.593  17.947  0.00  0.00    +0.000 C 
BRANCH  24  25
ATOM     25  C   UNL     1      51.367   3.370  17.940  0.00  0.00    +0.000 A 
ATOM     26  C   UNL     1      52.656   3.481  18.500  0.00  0.00    +0.000 A 
ATOM     27  C   UNL     1      53.530   2.390  18.532  0.00  0.00    +0.000 A 
ATOM     28  C   UNL     1      53.131   1.171  17.997  0.00  0.00    +0.000 A 
ATOM     29  C   UNL     1      51.865   1.041  17.428  0.00  0.00    +0.000 A 
ATOM     30  C   UNL     1      50.988   2.134  17.392  0.00  0.00    +0.000 A 
ATOM     31 CL   UNL     1      49.446   1.879  16.656  0.00  0.00    +0.000 Cl
ENDBRANCH  24  25
ENDBRANCH  22  24
ENDBRANCH  21  22
ENDBRANCH   4  21
TORSDOF 9
ENDMDL
MODEL 8
REMARK VINA RESULT:    -6.817      3.438      8.964
REMARK INTER + INTRA:         -11.285
REMARK INTER:                 -10.700
REMARK INTRA:                  -0.584
REMARK UNBOUND:                -1.080
REMARK  Name = 
REMARK  9 active torsions:
REMARK  status: ('A' for Active; 'I' for Inactive)
REMARK    1  A    between atoms: C_2  and  C_13
REMARK    2  A    between atoms: N_3  and  CA_4
REMARK    3  A    between atoms: CA_4  and  C_5
REMARK    4  A    between atoms: CA_4  and  C_7
REMARK    5  A    between atoms: C_5  and  O_6
REMARK    6  A    between atoms: C_16  and  C_17
REMARK    7  A    between atoms: C_17  and  N_18
REMARK    8  A    between atoms: N_18  and  C_19
REMARK    9  A    between atoms: C_19  and  C_20
REMARK                            x       y       z     vdW  Elec       q    Type
REMARK                         _______ _______ _______ _____ _____    ______ ____
ROOT
ATOM      1  C   UNL     1      46.804   5.080  13.964  0.00  0.00    +0.000 A 
ATOM      2  C   UNL     1      46.978   4.480  15.219  0.00  0.00    +0.000 A 
ATOM      3  C   UNL     1      47.937   4.973  16.105  0.00  0.00    +0.000 A 
ATOM      4  C   UNL     1      48.732   6.074  15.756  0.00  0.00    +0.000 A 
ATOM      5  C   UNL     1      48.565   6.659  14.491  0.00  0.00    +0.000 A 
ATOM      6  C   UNL     1      47.604   6.167  13.601  0.00  0.00    +0.000 A 
ENDROOT
BRANCH   1   8
ATOM      7  O   UNL     1      45.382   3.452  13.016  0.00  0.00    +0.000 OA
ATOM      8  C   UNL     1      45.730   4.624  13.041  0.00  0.00    +0.000 C 
ATOM      9  N   UNL     1      45.187   5.598  12.242  0.00  0.00    +0.000 N 
ATOM     10  H   UNL     1      45.371   6.569  12.454  0.00  0.00    +0.000 HD
BRANCH   9  11
ATOM     11  CA  UNL     1      44.167   5.320  11.237  0.00  0.00    +0.000 C 
BRANCH  11  12
ATOM     12  C   UNL     1      44.797   4.468  10.145  0.00  0.00    +0.000 A 
ATOM     13  C   UNL     1      44.365   3.145   9.959  0.00  0.00    +0.000 A 
ATOM     14  C   UNL     1      44.783   2.407   8.850  0.00  0.00    +0.000 A 
ATOM     15  C   UNL     1      45.638   2.981   7.912  0.00  0.00    +0.000 A 
ATOM     16  C   UNL     1      46.111   4.277   8.103  0.00  0.00    +0.000 A 
ATOM     17  C   UNL     1      45.704   5.012   9.218  0.00  0.00    +0.000 A 
ENDBRANCH  11  12
BRANCH  11  18
ATOM     18  C   UNL     1      42.883   4.739  11.872  0.00  0.00    +0.000 C 
BRANCH  18  19
ATOM     19  O   UNL     1      41.702   5.483  11.547  0.00  0.00    +0.000 OA
ATOM     20  H   UNL     1      41.419   5.171  10.670  0.00  0.00    +0.000 HD
ENDBRANCH  18  19
ENDBRANCH  11  18
ENDBRANCH   9  11
ENDBRANCH   1   8
BRANCH   4  21
ATOM     21  C   UNL     1      49.711   6.652  16.753  0.00  0.00    +0.000 C 
BRANCH  21  22
ATOM     22  N   UNL     1      50.061   5.673  17.780  0.00  0.00    +0.000 NA
ATOM     23  H   UNL     1      49.546   4.808  17.598  0.00  0.00    +0.000 HD
BRANCH  22  24
ATOM     24  C   UNL     1      51.496   5.378  17.752  0.00  0.00    +0.000 C 
BRANCH  24  25
ATOM     25  C   UNL     1      51.733   3.883  17.711  0.00  0.00    +0.000 A 
ATOM     26  C   UNL     1      50.657   3.044  17.357  0.00  0.00    +0.000 A 
ATOM     27  C   UNL     1      50.809   1.656  17.294  0.00  0.00    +0.000 A 
ATOM     28  C   UNL     1      52.040   1.082  17.590  0.00  0.00    +0.000 A 
ATOM     29  C   UNL     1      53.116   1.891  17.953  0.00  0.00    +0.000 A 
ATOM     30  C   UNL     1      52.965   3.283  18.020  0.00  0.00    +0.000 A 
ATOM     31 CL   UNL     1      54.351   4.201  18.491  0.00  0.00    +0.000 Cl
ENDBRANCH  24  25
ENDBRANCH  22  24
ENDBRANCH  21  22
ENDBRANCH   4  21
TORSDOF 9
ENDMDL
MODEL 9
REMARK VINA RESULT:    -6.710      3.498      9.466
REMARK INTER + INTRA:         -11.125
REMARK INTER:                  -9.741
REMARK INTRA:                  -1.384
REMARK UNBOUND:                -1.080
REMARK  Name = 
REMARK  9 active torsions:
REMARK  status: ('A' for Active; 'I' for Inactive)
REMARK    1  A    between atoms: C_2  and  C_13
REMARK    2  A    between atoms: N_3  and  CA_4
REMARK    3  A    between atoms: CA_4  and  C_5
REMARK    4  A    between atoms: CA_4  and  C_7
REMARK    5  A    between atoms: C_5  and  O_6
REMARK    6  A    between atoms: C_16  and  C_17
REMARK    7  A    between atoms: C_17  and  N_18
REMARK    8  A    between atoms: N_18  and  C_19
REMARK    9  A    between atoms: C_19  and  C_20
REMARK                            x       y       z     vdW  Elec       q    Type
REMARK                         _______ _______ _______ _____ _____    ______ ____
ROOT
ATOM      1  C   UNL     1      47.017   5.588  13.864  0.00  0.00    +0.000 A 
ATOM      2  C   UNL     1      47.979   6.472  14.371  0.00  0.00    +0.000 A 
ATOM      3  C   UNL     1      48.631   6.184  15.571  0.00  0.00    +0.000 A 
ATOM      4  C   UNL     1      48.337   5.011  16.280  0.00  0.00    +0.000 A 
ATOM      5  C   UNL     1      47.359   4.140  15.775  0.00  0.00    +0.000 A 
ATOM      6  C   UNL     1      46.705   4.424  14.571  0.00  0.00    +0.000 A 
ENDROOT
BRANCH   1   8
ATOM      7  O   UNL     1      46.896   6.571  11.720  0.00  0.00    +0.000 OA
ATOM      8  C   UNL     1      46.374   5.833  12.544  0.00  0.00    +0.000 C 
ATOM      9  N   UNL     1      45.181   5.188  12.341  0.00  0.00    +0.000 N 
ATOM     10  H   UNL     1      44.910   4.442  12.967  0.00  0.00    +0.000 HD
BRANCH   9  11
ATOM     11  CA  UNL     1      44.383   5.359  11.131  0.00  0.00    +0.000 C 
BRANCH  11  12
ATOM     12  C   UNL     1      44.879   4.364  10.092  0.00  0.00    +0.000 A 
ATOM     13  C   UNL     1      44.503   3.014  10.186  0.00  0.00    +0.000 A 
ATOM     14  C   UNL     1      44.781   2.123   9.149  0.00  0.00    +0.000 A 
ATOM     15  C   UNL     1      45.438   2.567   8.003  0.00  0.00    +0.000 A 
ATOM     16  C   UNL     1      45.856   3.892   7.911  0.00  0.00    +0.000 A 
ATOM     17  C   UNL     1      45.591   4.782   8.954  0.00  0.00    +0.000 A 
ENDBRANCH  11  12
BRANCH  11  18
ATOM     18  C   UNL     1      42.868   5.301  11.432  0.00  0.00    +0.000 C 
BRANCH  18  19
ATOM     19  O   UNL     1      42.543   5.659  12.781  0.00  0.00    +0.000 OA
ATOM     20  H   UNL     1      41.662   5.283  12.954  0.00  0.00    +0.000 HD
ENDBRANCH  18  19
ENDBRANCH  11  18
ENDBRANCH   9  11
ENDBRANCH   1   8
BRANCH   4  21
ATOM     21  C   UNL     1      49.106   4.668  17.536  0.00  0.00    +0.000 C 
BRANCH  21  22
ATOM     22  N   UNL     1      50.264   5.543  17.703  0.00  0.00    +0.000 NA
ATOM     23  H   UNL     1      50.269   6.229  16.945  0.00  0.00    +0.000 HD
BRANCH  22  24
ATOM     24  C   UNL     1      50.200   6.255  18.981  0.00  0.00    +0.000 C 
BRANCH  24  25
ATOM     25  C   UNL     1      49.292   7.463  18.874  0.00  0.00    +0.000 A 
ATOM     26  C   UNL     1      49.765   8.596  18.183  0.00  0.00    +0.000 A 
ATOM     27  C   UNL     1      48.977   9.742  18.041  0.00  0.00    +0.000 A 
ATOM     28  C   UNL     1      47.703   9.775  18.597  0.00  0.00    +0.000 A 
ATOM     29  C   UNL     1      47.218   8.670  19.295  0.00  0.00    +0.000 A 
ATOM     30  C   UNL     1      48.008   7.522  19.441  0.00  0.00    +0.000 A 
ATOM     31 CL   UNL     1      47.327   6.208  20.332  0.00  0.00    +0.000 Cl
ENDBRANCH  24  25
ENDBRANCH  22  24
ENDBRANCH  21  22
ENDBRANCH   4  21
TORSDOF 9
ENDMDL
