MODEL 1
REMARK VINA RESULT:    -8.036      0.000      0.000
REMARK INTER + INTRA:         -11.640
REMARK INTER:                 -10.855
REMARK INTRA:                  -0.785
REMARK UNBOUND:                -0.785
REMARK  Name = 
REMARK  6 active torsions:
REMARK  status: ('A' for Active; 'I' for Inactive)
REMARK    1  A    between atoms: C_2  and  C_4
REMARK    2  A    between atoms: C_7  and  S_8
REMARK    3  A    between atoms: S_8  and  C_9
REMARK    4  A    between atoms: C_9  and  C_10
REMARK    5  A    between atoms: C_10  and  C_11
REMARK    6  A    between atoms: C_15  and  C_16
REMARK                            x       y       z     vdW  Elec       q    Type
REMARK                         _______ _______ _______ _____ _____    ______ ____
ROOT
ATOM      1  C   UNL     1      43.283   3.763  11.781  0.00  0.00    +0.000 C 
ENDROOT
BRANCH   1   2
ATOM      2  S   UNL     1      43.578   4.797  10.306  0.00  0.00    +0.000 S 
BRANCH   2   6
ATOM      3  C   UNL     1      46.506   2.398   7.675  0.00  0.00    +0.000 A 
ATOM      4  C   UNL     1      45.679   1.707   8.562  0.00  0.00    +0.000 A 
ATOM      5  C   UNL     1      44.781   2.409   9.376  0.00  0.00    +0.000 A 
ATOM      6  C   UNL     1      44.698   3.803   9.323  0.00  0.00    +0.000 A 
ATOM      7  C   UNL     1      45.549   4.486   8.442  0.00  0.00    +0.000 A 
ATOM      8  C   UNL     1      46.452   3.792   7.628  0.00  0.00    +0.000 A 
BRANCH   3  10
ATOM      9  N   UNL     1      48.575   2.383   6.391  0.00  0.00    +0.000 N 
ATOM     10  C   UNL     1      47.466   1.688   6.788  0.00  0.00    +0.000 C 
ATOM     11  O   UNL     1      47.296   0.523   6.458  0.00  0.00    +0.000 OA
ATOM     12  H   UNL     1      49.272   1.854   5.883  0.00  0.00    +0.000 HD
ATOM     13  H   UNL     1      48.873   3.233   6.848  0.00  0.00    +0.000 HD
ENDBRANCH   3  10
ENDBRANCH   2   6
ENDBRANCH   1   2
BRANCH   1  14
ATOM     14  C   UNL     1      43.387   4.594  13.061  0.00  0.00    +0.000 C 
BRANCH  14  15
ATOM     15  C   UNL     1      44.750   5.243  13.152  0.00  0.00    +0.000 A 
ATOM     16  C   UNL     1      45.894   4.472  13.382  0.00  0.00    +0.000 A 
ATOM     17  C   UNL     1      47.149   5.074  13.393  0.00  0.00    +0.000 A 
ATOM     18  C   UNL     1      47.272   6.445  13.152  0.00  0.00    +0.000 A 
ATOM     19  C   UNL     1      46.150   7.246  12.876  0.00  0.00    +0.000 A 
ATOM     20  C   UNL     1      44.890   6.621  12.911  0.00  0.00    +0.000 A 
BRANCH  19  21
ATOM     21  C   UNL     1      46.291   8.665  12.467  0.00  0.00    +0.000 A 
ATOM     22  C   UNL     1      47.556   9.199  12.155  0.00  0.00    +0.000 A 
ATOM     23  C   UNL     1      47.706  10.504  11.680  0.00  0.00    +0.000 A 
ATOM     24  C   UNL     1      46.587  11.308  11.497  0.00  0.00    +0.000 A 
ATOM     25  C   UNL     1      45.325  10.815  11.813  0.00  0.00    +0.000 A 
ATOM     26  C   UNL     1      45.181   9.511  12.302  0.00  0.00    +0.000 A 
ENDBRANCH  19  21
ENDBRANCH  14  15
ENDBRANCH   1  14
TORSDOF 6
ENDMDL
MODEL 2
REMARK VINA RESULT:    -7.835      1.649      2.850
REMARK INTER + INTRA:         -11.368
REMARK INTER:                 -10.345
REMARK INTRA:                  -1.023
REMARK UNBOUND:                -0.785
REMARK  Name = 
REMARK  6 active torsions:
REMARK  status: ('A' for Active; 'I' for Inactive)
REMARK    1  A    between atoms: C_2  and  C_4
REMARK    2  A    between atoms: C_7  and  S_8
REMARK    3  A    between atoms: S_8  and  C_9
REMARK    4  A    between atoms: C_9  and  C_10
REMARK    5  A    between atoms: C_10  and  C_11
REMARK    6  A    between atoms: C_15  and  C_16
REMARK                            x       y       z     vdW  Elec       q    Type
REMARK                         _______ _______ _______ _____ _____    ______ ____
ROOT
ATOM      1  C   UNL     1      44.369   4.345  12.217  0.00  0.00    +0.000 C 
ENDROOT
BRANCH   1   2
ATOM      2  S   UNL     1      43.584   4.636  10.595  0.00  0.00    +0.000 S 
BRANCH   2   6
ATOM      3  C   UNL     1      46.499   2.524   7.715  0.00  0.00    +0.000 A 
ATOM      4  C   UNL     1      46.402   3.916   7.672  0.00  0.00    +0.000 A 
ATOM      5  C   UNL     1      45.524   4.585   8.534  0.00  0.00    +0.000 A 
ATOM      6  C   UNL     1      44.727   3.881   9.442  0.00  0.00    +0.000 A 
ATOM      7  C   UNL     1      44.819   2.482   9.459  0.00  0.00    +0.000 A 
ATOM      8  C   UNL     1      45.692   1.804   8.599  0.00  0.00    +0.000 A 
BRANCH   3  10
ATOM      9  N   UNL     1      48.566   2.423   6.432  0.00  0.00    +0.000 N 
ATOM     10  C   UNL     1      47.426   1.777   6.823  0.00  0.00    +0.000 C 
ATOM     11  O   UNL     1      47.203   0.624   6.484  0.00  0.00    +0.000 OA
ATOM     12  H   UNL     1      49.238   1.867   5.920  0.00  0.00    +0.000 HD
ATOM     13  H   UNL     1      48.903   3.255   6.896  0.00  0.00    +0.000 HD
ENDBRANCH   3  10
ENDBRANCH   2   6
ENDBRANCH   1   2
BRANCH   1  14
ATOM     14  C   UNL     1      45.868   4.644  12.160  0.00  0.00    +0.000 C 
BRANCH  14  15
ATOM     15  C   UNL     1      46.104   6.138  12.200  0.00  0.00    +0.000 A 
ATOM     16  C   UNL     1      45.153   6.995  12.761  0.00  0.00    +0.000 A 
ATOM     17  C   UNL     1      45.414   8.359  12.855  0.00  0.00    +0.000 A 
ATOM     18  C   UNL     1      46.635   8.872  12.411  0.00  0.00    +0.000 A 
ATOM     19  C   UNL     1      47.634   8.036  11.880  0.00  0.00    +0.000 A 
ATOM     20  C   UNL     1      47.329   6.668  11.759  0.00  0.00    +0.000 A 
BRANCH  19  21
ATOM     21  C   UNL     1      48.985   8.552  11.554  0.00  0.00    +0.000 A 
ATOM     22  C   UNL     1      49.209   9.935  11.406  0.00  0.00    +0.000 A 
ATOM     23  C   UNL     1      50.487  10.453  11.190  0.00  0.00    +0.000 A 
ATOM     24  C   UNL     1      51.581   9.598  11.123  0.00  0.00    +0.000 A 
ATOM     25  C   UNL     1      51.391   8.226  11.249  0.00  0.00    +0.000 A 
ATOM     26  C   UNL     1      50.105   7.708  11.452  0.00  0.00    +0.000 A 
ENDBRANCH  19  21
ENDBRANCH  14  15
ENDBRANCH   1  14
TORSDOF 6
ENDMDL
MODEL 3
REMARK VINA RESULT:    -7.784      3.739      7.263
REMARK INTER + INTRA:         -11.300
REMARK INTER:                 -10.033
REMARK INTRA:                  -1.266
REMARK UNBOUND:                -0.785
REMARK  Name = 
REMARK  6 active torsions:
REMARK  status: ('A' for Active; 'I' for Inactive)
REMARK    1  A    between atoms: C_2  and  C_4
REMARK    2  A    between atoms: C_7  and  S_8
REMARK    3  A    between atoms: S_8  and  C_9
REMARK    4  A    between atoms: C_9  and  C_10
REMARK    5  A    between atoms: C_10  and  C_11
REMARK    6  A    between atoms: C_15  and  C_16
REMARK                            x       y       z     vdW  Elec       q    Type
REMARK                         _______ _______ _______ _____ _____    ______ ____
ROOT
ATOM      1  C   UNL     1      45.432   7.626  12.530  0.00  0.00    +0.000 C 
ENDROOT
BRANCH   1   2
ATOM      2  S   UNL     1      47.165   7.068  12.398  0.00  0.00    +0.000 S 
BRANCH   2   6
ATOM      3  C   UNL     1      47.604   3.955  15.770  0.00  0.00    +0.000 A 
ATOM      4  C   UNL     1      46.984   3.573  14.579  0.00  0.00    +0.000 A 
ATOM      5  C   UNL     1      46.835   4.498  13.537  0.00  0.00    +0.000 A 
ATOM      6  C   UNL     1      47.292   5.812  13.668  0.00  0.00    +0.000 A 
ATOM      7  C   UNL     1      47.893   6.188  14.878  0.00  0.00    +0.000 A 
ATOM      8  C   UNL     1      48.043   5.271  15.926  0.00  0.00    +0.000 A 
BRANCH   3  10
ATOM      9  N   UNL     1      49.053   2.521  17.101  0.00  0.00    +0.000 N 
ATOM     10  C   UNL     1      47.789   3.001  16.895  0.00  0.00    +0.000 C 
ATOM     11  O   UNL     1      46.865   2.687  17.632  0.00  0.00    +0.000 OA
ATOM     12  H   UNL     1      49.187   1.963  17.934  0.00  0.00    +0.000 HD
ATOM     13  H   UNL     1      49.869   2.953  16.690  0.00  0.00    +0.000 HD
ENDBRANCH   3  10
ENDBRANCH   2   6
ENDBRANCH   1   2
BRANCH   1  14
ATOM     14  C   UNL     1      44.663   7.335  11.241  0.00  0.00    +0.000 C 
BRANCH  14  15
ATOM     15  C   UNL     1      44.459   5.845  11.080  0.00  0.00    +0.000 A 
ATOM     16  C   UNL     1      43.483   5.175  11.824  0.00  0.00    +0.000 A 
ATOM     17  C   UNL     1      43.258   3.818  11.615  0.00  0.00    +0.000 A 
ATOM     18  C   UNL     1      43.989   3.126  10.646  0.00  0.00    +0.000 A 
ATOM     19  C   UNL     1      44.950   3.774   9.849  0.00  0.00    +0.000 A 
ATOM     20  C   UNL     1      45.186   5.136  10.108  0.00  0.00    +0.000 A 
BRANCH  19  21
ATOM     21  C   UNL     1      45.614   3.082   8.718  0.00  0.00    +0.000 A 
ATOM     22  C   UNL     1      46.138   3.816   7.636  0.00  0.00    +0.000 A 
ATOM     23  C   UNL     1      46.848   3.198   6.605  0.00  0.00    +0.000 A 
ATOM     24  C   UNL     1      47.061   1.825   6.634  0.00  0.00    +0.000 A 
ATOM     25  C   UNL     1      46.541   1.070   7.680  0.00  0.00    +0.000 A 
ATOM     26  C   UNL     1      45.818   1.691   8.706  0.00  0.00    +0.000 A 
ENDBRANCH  19  21
ENDBRANCH  14  15
ENDBRANCH   1  14
TORSDOF 6
ENDMDL
MODEL 4
REMARK VINA RESULT:    -7.688      2.227      4.291
REMARK INTER + INTRA:         -11.170
REMARK INTER:                 -10.474
REMARK INTRA:                  -0.697
REMARK UNBOUND:                -0.785
REMARK  Name = 
REMARK  6 active torsions:
REMARK  status: ('A' for Active; 'I' for Inactive)
REMARK    1  A    between atoms: C_2  and  C_4
REMARK    2  A    between atoms: C_7  and  S_8
REMARK    3  A    between atoms: S_8  and  C_9
REMARK    4  A    between atoms: C_9  and  C_10
REMARK    5  A    between atoms: C_10  and  C_11
REMARK    6  A    between atoms: C_15  and  C_16
REMARK                            x       y       z     vdW  Elec       q    Type
REMARK                         _______ _______ _______ _____ _____    ______ ____
ROOT
ATOM      1  C   UNL     1      44.888   4.688  11.832  0.00  0.00    +0.000 C 
ENDROOT
BRANCH   1   2
ATOM      2  S   UNL     1      43.755   4.053  10.550  0.00  0.00    +0.000 S 
BRANCH   2   6
ATOM      3  C   UNL     1      46.608   2.452   7.301  0.00  0.00    +0.000 A 
ATOM      4  C   UNL     1      46.081   1.557   8.234  0.00  0.00    +0.000 A 
ATOM      5  C   UNL     1      45.213   2.014   9.233  0.00  0.00    +0.000 A 
ATOM      6  C   UNL     1      44.864   3.365   9.324  0.00  0.00    +0.000 A 
ATOM      7  C   UNL     1      45.418   4.257   8.393  0.00  0.00    +0.000 A 
ATOM      8  C   UNL     1      46.289   3.808   7.393  0.00  0.00    +0.000 A 
BRANCH   3  10
ATOM      9  N   UNL     1      48.828   2.411   6.302  0.00  0.00    +0.000 N 
ATOM     10  C   UNL     1      47.525   2.004   6.220  0.00  0.00    +0.000 C 
ATOM     11  O   UNL     1      47.146   1.272   5.317  0.00  0.00    +0.000 OA
ATOM     12  H   UNL     1      49.463   2.009   5.625  0.00  0.00    +0.000 HD
ATOM     13  H   UNL     1      49.226   2.785   7.153  0.00  0.00    +0.000 HD
ENDBRANCH   3  10
ENDBRANCH   2   6
ENDBRANCH   1   2
BRANCH   1  14
ATOM     14  C   UNL     1      45.615   5.943  11.347  0.00  0.00    +0.000 C 
BRANCH  14  15
ATOM     15  C   UNL     1      46.768   6.269  12.270  0.00  0.00    +0.000 A 
ATOM     16  C   UNL     1      47.640   7.322  11.979  0.00  0.00    +0.000 A 
ATOM     17  C   UNL     1      48.654   7.655  12.872  0.00  0.00    +0.000 A 
ATOM     18  C   UNL     1      48.789   6.953  14.073  0.00  0.00    +0.000 A 
ATOM     19  C   UNL     1      47.907   5.915  14.421  0.00  0.00    +0.000 A 
ATOM     20  C   UNL     1      46.916   5.572  13.483  0.00  0.00    +0.000 A 
BRANCH  19  21
ATOM     21  C   UNL     1      47.950   5.275  15.758  0.00  0.00    +0.000 A 
ATOM     22  C   UNL     1      47.286   4.055  15.991  0.00  0.00    +0.000 A 
ATOM     23  C   UNL     1      47.386   3.385  17.213  0.00  0.00    +0.000 A 
ATOM     24  C   UNL     1      48.165   3.918  18.234  0.00  0.00    +0.000 A 
ATOM     25  C   UNL     1      48.820   5.129  18.040  0.00  0.00    +0.000 A 
ATOM     26  C   UNL     1      48.706   5.805  16.819  0.00  0.00    +0.000 A 
ENDBRANCH  19  21
ENDBRANCH  14  15
ENDBRANCH   1  14
TORSDOF 6
ENDMDL
MODEL 5
REMARK VINA RESULT:    -7.124      1.104      2.097
REMARK INTER + INTRA:         -10.408
REMARK INTER:                  -9.509
REMARK INTRA:                  -0.899
REMARK UNBOUND:                -0.785
REMARK  Name = 
REMARK  6 active torsions:
REMARK  status: ('A' for Active; 'I' for Inactive)
REMARK    1  A    between atoms: C_2  and  C_4
REMARK    2  A    between atoms: C_7  and  S_8
REMARK    3  A    between atoms: S_8  and  C_9
REMARK    4  A    between atoms: C_9  and  C_10
REMARK    5  A    between atoms: C_10  and  C_11
REMARK    6  A    between atoms: C_15  and  C_16
REMARK                            x       y       z     vdW  Elec       q    Type
REMARK                         _______ _______ _______ _____ _____    ______ ____
ROOT
ATOM      1  C   UNL     1      44.468   5.587  11.795  0.00  0.00    +0.000 C 
ENDROOT
BRANCH   1   2
ATOM      2  S   UNL     1      43.529   4.331  10.863  0.00  0.00    +0.000 S 
BRANCH   2   6
ATOM      3  C   UNL     1      46.476   2.826   7.652  0.00  0.00    +0.000 A 
ATOM      4  C   UNL     1      46.281   4.201   7.795  0.00  0.00    +0.000 A 
ATOM      5  C   UNL     1      45.390   4.688   8.760  0.00  0.00    +0.000 A 
ATOM      6  C   UNL     1      44.679   3.817   9.590  0.00  0.00    +0.000 A 
ATOM      7  C   UNL     1      44.868   2.437   9.422  0.00  0.00    +0.000 A 
ATOM      8  C   UNL     1      45.754   1.942   8.457  0.00  0.00    +0.000 A 
BRANCH   3  10
ATOM      9  N   UNL     1      47.414   2.847   5.406  0.00  0.00    +0.000 N 
ATOM     10  C   UNL     1      47.419   2.271   6.646  0.00  0.00    +0.000 C 
ATOM     11  O   UNL     1      48.194   1.366   6.921  0.00  0.00    +0.000 OA
ATOM     12  H   UNL     1      48.135   2.536   4.768  0.00  0.00    +0.000 HD
ATOM     13  H   UNL     1      46.988   3.746   5.228  0.00  0.00    +0.000 HD
ENDBRANCH   3  10
ENDBRANCH   2   6
ENDBRANCH   1   2
BRANCH   1  14
ATOM     14  C   UNL     1      45.687   4.965  12.477  0.00  0.00    +0.000 C 
BRANCH  14  15
ATOM     15  C   UNL     1      46.619   6.049  12.972  0.00  0.00    +0.000 A 
ATOM     16  C   UNL     1      47.542   5.787  13.989  0.00  0.00    +0.000 A 
ATOM     17  C   UNL     1      48.440   6.773  14.386  0.00  0.00    +0.000 A 
ATOM     18  C   UNL     1      48.439   8.020  13.754  0.00  0.00    +0.000 A 
ATOM     19  C   UNL     1      47.554   8.308  12.699  0.00  0.00    +0.000 A 
ATOM     20  C   UNL     1      46.629   7.308  12.345  0.00  0.00    +0.000 A 
BRANCH  19  21
ATOM     21  C   UNL     1      47.653   9.569  11.925  0.00  0.00    +0.000 A 
ATOM     22  C   UNL     1      46.534  10.412  11.781  0.00  0.00    +0.000 A 
ATOM     23  C   UNL     1      46.623  11.647  11.136  0.00  0.00    +0.000 A 
ATOM     24  C   UNL     1      47.842  12.076  10.624  0.00  0.00    +0.000 A 
ATOM     25  C   UNL     1      48.962  11.259  10.735  0.00  0.00    +0.000 A 
ATOM     26  C   UNL     1      48.865  10.014  11.370  0.00  0.00    +0.000 A 
ENDBRANCH  19  21
ENDBRANCH  14  15
ENDBRANCH   1  14
TORSDOF 6
ENDMDL
MODEL 6
REMARK VINA RESULT:    -7.042      4.463      7.696
REMARK INTER + INTRA:         -10.298
REMARK INTER:                  -9.065
REMARK INTRA:                  -1.233
REMARK UNBOUND:                -0.785
REMARK  Name = 
REMARK  6 active torsions:
REMARK  status: ('A' for Active; 'I' for Inactive)
REMARK    1  A    between atoms: C_2  and  C_4
REMARK    2  A    between atoms: C_7  and  S_8
REMARK    3  A    between atoms: S_8  and  C_9
REMARK    4  A    between atoms: C_9  and  C_10
REMARK    5  A    between atoms: C_10  and  C_11
REMARK    6  A    between atoms: C_15  and  C_16
REMARK                            x       y       z     vdW  Elec       q    Type
REMARK                         _______ _______ _______ _____ _____    ______ ____
ROOT
ATOM      1  C   UNL     1      49.746   7.462  12.785  0.00  0.00    +0.000 C 
ENDROOT
BRANCH   1   2
ATOM      2  S   UNL     1      49.838   8.139  14.477  0.00  0.00    +0.000 S 
BRANCH   2   6
ATOM      3  C   UNL     1      48.255   4.615  16.994  0.00  0.00    +0.000 A 
ATOM      4  C   UNL     1      49.394   5.295  17.430  0.00  0.00    +0.000 A 
ATOM      5  C   UNL     1      49.899   6.368  16.686  0.00  0.00    +0.000 A 
ATOM      6  C   UNL     1      49.285   6.775  15.498  0.00  0.00    +0.000 A 
ATOM      7  C   UNL     1      48.155   6.069  15.060  0.00  0.00    +0.000 A 
ATOM      8  C   UNL     1      47.645   4.993  15.796  0.00  0.00    +0.000 A 
BRANCH   3  10
ATOM      9  N   UNL     1      48.330   3.114  18.909  0.00  0.00    +0.000 N 
ATOM     10  C   UNL     1      47.683   3.477  17.761  0.00  0.00    +0.000 C 
ATOM     11  O   UNL     1      46.657   2.913  17.407  0.00  0.00    +0.000 OA
ATOM     12  H   UNL     1      47.869   2.416  19.478  0.00  0.00    +0.000 HD
ATOM     13  H   UNL     1      49.008   3.712  19.361  0.00  0.00    +0.000 HD
ENDBRANCH   3  10
ENDBRANCH   2   6
ENDBRANCH   1   2
BRANCH   1  14
ATOM     14  C   UNL     1      48.836   8.318  11.903  0.00  0.00    +0.000 C 
BRANCH  14  15
ATOM     15  C   UNL     1      47.410   7.821  11.987  0.00  0.00    +0.000 A 
ATOM     16  C   UNL     1      46.432   8.567  12.653  0.00  0.00    +0.000 A 
ATOM     17  C   UNL     1      45.110   8.133  12.663  0.00  0.00    +0.000 A 
ATOM     18  C   UNL     1      44.751   6.963  11.988  0.00  0.00    +0.000 A 
ATOM     19  C   UNL     1      45.697   6.207  11.273  0.00  0.00    +0.000 A 
ATOM     20  C   UNL     1      47.033   6.646  11.313  0.00  0.00    +0.000 A 
BRANCH  19  21
ATOM     21  C   UNL     1      45.294   5.055  10.431  0.00  0.00    +0.000 A 
ATOM     22  C   UNL     1      45.648   5.003   9.069  0.00  0.00    +0.000 A 
ATOM     23  C   UNL     1      45.361   3.890   8.276  0.00  0.00    +0.000 A 
ATOM     24  C   UNL     1      44.715   2.791   8.831  0.00  0.00    +0.000 A 
ATOM     25  C   UNL     1      44.337   2.818  10.170  0.00  0.00    +0.000 A 
ATOM     26  C   UNL     1      44.615   3.942  10.958  0.00  0.00    +0.000 A 
ENDBRANCH  19  21
ENDBRANCH  14  15
ENDBRANCH   1  14
TORSDOF 6
ENDMDL
MODEL 7
REMARK VINA RESULT:    -6.721      5.004      7.534
REMARK INTER + INTRA:          -9.863
REMARK INTER:                  -8.896
REMARK INTRA:                  -0.967
REMARK UNBOUND:                -0.785
REMARK  Name = 
REMARK  6 active torsions:
REMARK  status: ('A' for Active; 'I' for Inactive)
REMARK    1  A    between atoms: C_2  and  C_4
REMARK    2  A    between atoms: C_7  and  S_8
REMARK    3  A    between atoms: S_8  and  C_9
REMARK    4  A    between atoms: C_9  and  C_10
REMARK    5  A    between atoms: C_10  and  C_11
REMARK    6  A    between atoms: C_15  and  C_16
REMARK                            x       y       z     vdW  Elec       q    Type
REMARK                         _______ _______ _______ _____ _____    ______ ____
ROOT
ATOM      1  C   UNL     1      48.743   6.592  14.511  0.00  0.00    +0.000 C 
ENDROOT
BRANCH   1   2
ATOM      2  S   UNL     1      47.537   7.568  13.548  0.00  0.00    +0.000 S 
BRANCH   2   6
ATOM      3  C   UNL     1      45.096   4.221  11.524  0.00  0.00    +0.000 A 
ATOM      4  C   UNL     1      45.286   5.423  10.840  0.00  0.00    +0.000 A 
ATOM      5  C   UNL     1      46.022   6.459  11.430  0.00  0.00    +0.000 A 
ATOM      6  C   UNL     1      46.571   6.317  12.708  0.00  0.00    +0.000 A 
ATOM      7  C   UNL     1      46.354   5.112  13.393  0.00  0.00    +0.000 A 
ATOM      8  C   UNL     1      45.618   4.073  12.811  0.00  0.00    +0.000 A 
BRANCH   3  10
ATOM      9  N   UNL     1      44.937   2.394   9.923  0.00  0.00    +0.000 N 
ATOM     10  C   UNL     1      44.330   3.095  10.928  0.00  0.00    +0.000 C 
ATOM     11  O   UNL     1      43.223   2.781  11.341  0.00  0.00    +0.000 OA
ATOM     12  H   UNL     1      44.453   1.565   9.605  0.00  0.00    +0.000 HD
ATOM     13  H   UNL     1      45.929   2.455   9.743  0.00  0.00    +0.000 HD
ENDBRANCH   3  10
ENDBRANCH   2   6
ENDBRANCH   1   2
BRANCH   1  14
ATOM     14  C   UNL     1      48.485   6.730  16.012  0.00  0.00    +0.000 C 
BRANCH  14  15
ATOM     15  C   UNL     1      48.517   5.371  16.674  0.00  0.00    +0.000 A 
ATOM     16  C   UNL     1      47.341   4.638  16.856  0.00  0.00    +0.000 A 
ATOM     17  C   UNL     1      47.394   3.359  17.403  0.00  0.00    +0.000 A 
ATOM     18  C   UNL     1      48.624   2.795  17.750  0.00  0.00    +0.000 A 
ATOM     19  C   UNL     1      49.833   3.484  17.544  0.00  0.00    +0.000 A 
ATOM     20  C   UNL     1      49.748   4.790  17.028  0.00  0.00    +0.000 A 
BRANCH  19  21
ATOM     21  C   UNL     1      51.146   2.832  17.766  0.00  0.00    +0.000 A 
ATOM     22  C   UNL     1      51.351   1.489  17.393  0.00  0.00    +0.000 A 
ATOM     23  C   UNL     1      52.602   0.879  17.505  0.00  0.00    +0.000 A 
ATOM     24  C   UNL     1      53.687   1.602  17.989  0.00  0.00    +0.000 A 
ATOM     25  C   UNL     1      53.512   2.925  18.381  0.00  0.00    +0.000 A 
ATOM     26  C   UNL     1      52.253   3.530  18.280  0.00  0.00    +0.000 A 
ENDBRANCH  19  21
ENDBRANCH  14  15
ENDBRANCH   1  14
TORSDOF 6
ENDMDL
MODEL 8
REMARK VINA RESULT:    -6.521      4.347      7.141
REMARK INTER + INTRA:          -9.593
REMARK INTER:                  -8.091
REMARK INTRA:                  -1.502
REMARK UNBOUND:                -0.785
REMARK  Name = 
REMARK  6 active torsions:
REMARK  status: ('A' for Active; 'I' for Inactive)
REMARK    1  A    between atoms: C_2  and  C_4
REMARK    2  A    between atoms: C_7  and  S_8
REMARK    3  A    between atoms: S_8  and  C_9
REMARK    4  A    between atoms: C_9  and  C_10
REMARK    5  A    between atoms: C_10  and  C_11
REMARK    6  A    between atoms: C_15  and  C_16
REMARK                            x       y       z     vdW  Elec       q    Type
REMARK                         _______ _______ _______ _____ _____    ______ ____
ROOT
ATOM      1  C   UNL     1      48.959   8.903  13.948  0.00  0.00    +0.000 C 
ENDROOT
BRANCH   1   2
ATOM      2  S   UNL     1      47.575   9.234  12.806  0.00  0.00    +0.000 S 
BRANCH   2   6
ATOM      3  C   UNL     1      45.354   5.195  12.889  0.00  0.00    +0.000 A 
ATOM      4  C   UNL     1      44.652   6.340  12.509  0.00  0.00    +0.000 A 
ATOM      5  C   UNL     1      45.300   7.582  12.476  0.00  0.00    +0.000 A 
ATOM      6  C   UNL     1      46.648   7.702  12.826  0.00  0.00    +0.000 A 
ATOM      7  C   UNL     1      47.336   6.546  13.226  0.00  0.00    +0.000 A 
ATOM      8  C   UNL     1      46.695   5.302  13.264  0.00  0.00    +0.000 A 
BRANCH   3  10
ATOM      9  N   UNL     1      45.474   2.783  12.574  0.00  0.00    +0.000 N 
ATOM     10  C   UNL     1      44.705   3.858  12.927  0.00  0.00    +0.000 C 
ATOM     11  O   UNL     1      43.548   3.714  13.296  0.00  0.00    +0.000 OA
ATOM     12  H   UNL     1      45.056   1.873  12.712  0.00  0.00    +0.000 HD
ATOM     13  H   UNL     1      46.482   2.832  12.523  0.00  0.00    +0.000 HD
ENDBRANCH   3  10
ENDBRANCH   2   6
ENDBRANCH   1   2
BRANCH   1  14
ATOM     14  C   UNL     1      48.857   9.776  15.200  0.00  0.00    +0.000 C 
BRANCH  14  15
ATOM     15  C   UNL     1      48.608   8.915  16.418  0.00  0.00    +0.000 A 
ATOM     16  C   UNL     1      48.006   9.452  17.560  0.00  0.00    +0.000 A 
ATOM     17  C   UNL     1      47.719   8.632  18.648  0.00  0.00    +0.000 A 
ATOM     18  C   UNL     1      48.011   7.266  18.593  0.00  0.00    +0.000 A 
ATOM     19  C   UNL     1      48.579   6.681  17.447  0.00  0.00    +0.000 A 
ATOM     20  C   UNL     1      48.896   7.539  16.378  0.00  0.00    +0.000 A 
BRANCH  19  21
ATOM     21  C   UNL     1      48.745   5.213  17.327  0.00  0.00    +0.000 A 
ATOM     22  C   UNL     1      47.760   4.428  16.696  0.00  0.00    +0.000 A 
ATOM     23  C   UNL     1      47.933   3.059  16.488  0.00  0.00    +0.000 A 
ATOM     24  C   UNL     1      49.106   2.437  16.901  0.00  0.00    +0.000 A 
ATOM     25  C   UNL     1      50.091   3.181  17.542  0.00  0.00    +0.000 A 
ATOM     26  C   UNL     1      49.908   4.552  17.761  0.00  0.00    +0.000 A 
ENDBRANCH  19  21
ENDBRANCH  14  15
ENDBRANCH   1  14
TORSDOF 6
ENDMDL
MODEL 9
REMARK VINA RESULT:    -6.385      5.134      7.970
REMARK INTER + INTRA:          -9.410
REMARK INTER:                  -7.833
REMARK INTRA:                  -1.577
REMARK UNBOUND:                -0.785
REMARK  Name = 
REMARK  6 active torsions:
REMARK  status: ('A' for Active; 'I' for Inactive)
REMARK    1  A    between atoms: C_2  and  C_4
REMARK    2  A    between atoms: C_7  and  S_8
REMARK    3  A    between atoms: S_8  and  C_9
REMARK    4  A    between atoms: C_9  and  C_10
REMARK    5  A    between atoms: C_10  and  C_11
REMARK    6  A    between atoms: C_15  and  C_16
REMARK                            x       y       z     vdW  Elec       q    Type
REMARK                         _______ _______ _______ _____ _____    ______ ____
ROOT
ATOM      1  C   UNL     1      48.481   8.653  17.286  0.00  0.00    +0.000 C 
ENDROOT
BRANCH   1   2
ATOM      2  S   UNL     1      48.180   7.602  18.748  0.00  0.00    +0.000 S 
BRANCH   2   6
ATOM      3  C   UNL     1      49.776   3.479  17.442  0.00  0.00    +0.000 A 
ATOM      4  C   UNL     1      50.597   4.305  18.211  0.00  0.00    +0.000 A 
ATOM      5  C   UNL     1      50.140   5.563  18.622  0.00  0.00    +0.000 A 
ATOM      6  C   UNL     1      48.867   6.020  18.267  0.00  0.00    +0.000 A 
ATOM      7  C   UNL     1      48.061   5.188  17.476  0.00  0.00    +0.000 A 
ATOM      8  C   UNL     1      48.511   3.930  17.059  0.00  0.00    +0.000 A 
BRANCH   3  10
ATOM      9  N   UNL     1      51.135   1.487  17.781  0.00  0.00    +0.000 N 
ATOM     10  C   UNL     1      50.221   2.132  16.994  0.00  0.00    +0.000 C 
ATOM     11  O   UNL     1      49.764   1.604  15.991  0.00  0.00    +0.000 OA
ATOM     12  H   UNL     1      51.344   0.531  17.527  0.00  0.00    +0.000 HD
ATOM     13  H   UNL     1      51.329   1.772  18.731  0.00  0.00    +0.000 HD
ENDBRANCH   3  10
ENDBRANCH   2   6
ENDBRANCH   1   2
BRANCH   1  14
ATOM     14  C   UNL     1      49.842   8.345  16.662  0.00  0.00    +0.000 C 
BRANCH  14  15
ATOM     15  C   UNL     1      49.693   8.103  15.176  0.00  0.00    +0.000 A 
ATOM     16  C   UNL     1      50.693   8.502  14.285  0.00  0.00    +0.000 A 
ATOM     17  C   UNL     1      50.574   8.210  12.929  0.00  0.00    +0.000 A 
ATOM     18  C   UNL     1      49.468   7.499  12.458  0.00  0.00    +0.000 A 
ATOM     19  C   UNL     1      48.461   7.044  13.329  0.00  0.00    +0.000 A 
ATOM     20  C   UNL     1      48.585   7.387  14.688  0.00  0.00    +0.000 A 
BRANCH  19  21
ATOM     21  C   UNL     1      47.369   6.158  12.859  0.00  0.00    +0.000 A 
ATOM     22  C   UNL     1      46.914   5.094  13.661  0.00  0.00    +0.000 A 
ATOM     23  C   UNL     1      45.827   4.302  13.282  0.00  0.00    +0.000 A 
ATOM     24  C   UNL     1      45.161   4.562  12.090  0.00  0.00    +0.000 A 
ATOM     25  C   UNL     1      45.597   5.596  11.269  0.00  0.00    +0.000 A 
ATOM     26  C   UNL     1      46.696   6.379  11.645  0.00  0.00    +0.000 A 
ENDBRANCH  19  21
ENDBRANCH  14  15
ENDBRANCH   1  14
TORSDOF 6
ENDMDL
