MODEL 1
REMARK VINA RESULT:    -8.213      0.000      0.000
REMARK INTER + INTRA:         -11.296
REMARK INTER:                 -10.614
REMARK INTRA:                  -0.682
REMARK UNBOUND:                -0.682
REMARK  Name = 
REMARK  5 active torsions:
REMARK  status: ('A' for Active; 'I' for Inactive)
REMARK    1  A    between atoms: C_2  and  C_5
REMARK    2  A    between atoms: C_9  and  C_10
REMARK    3  A    between atoms: C_14  and  C_15
REMARK    4  A    between atoms: C_15  and  O_16
REMARK    5  A    between atoms: O_16  and  C_17
REMARK                            x       y       z     vdW  Elec       q    Type
REMARK                         _______ _______ _______ _____ _____    ______ ____
ROOT
ATOM      1  C   UNL     1      46.403   5.537  13.338  0.00  0.00    +0.000 A 
ATOM      2  C   UNL     1      46.098   6.721  12.667  0.00  0.00    +0.000 A 
ATOM      3  N   UNL     1      45.289   6.813  11.578  0.00  0.00    +0.000 NA
ATOM      4  C   UNL     1      44.736   5.666  11.130  0.00  0.00    +0.000 A 
ATOM      5  C   UNL     1      44.963   4.424  11.705  0.00  0.00    +0.000 A 
ATOM      6  C   UNL     1      45.790   4.377  12.835  0.00  0.00    +0.000 A 
ENDROOT
BRANCH   1  11
ATOM      7  C   UNL     1      48.129   4.290  16.329  0.00  0.00    +0.000 A 
ATOM      8  C   UNL     1      49.013   5.317  16.662  0.00  0.00    +0.000 A 
ATOM      9  C   UNL     1      49.025   6.472  15.890  0.00  0.00    +0.000 A 
ATOM     10  C   UNL     1      48.167   6.571  14.800  0.00  0.00    +0.000 A 
ATOM     11  C   UNL     1      47.313   5.513  14.496  0.00  0.00    +0.000 A 
ATOM     12  N   UNL     1      47.280   4.391  15.261  0.00  0.00    +0.000 NA
BRANCH   7  14
ATOM     13  F   UNL     1      48.839   3.125  18.321  0.00  0.00    +0.000 F 
ATOM     14  C   UNL     1      48.108   3.019  17.169  0.00  0.00    +0.000 C 
ATOM     15  F   UNL     1      48.622   1.937  16.518  0.00  0.00    +0.000 F 
ATOM     16  F   UNL     1      46.855   2.661  17.571  0.00  0.00    +0.000 F 
ENDBRANCH   7  14
ENDBRANCH   1  11
BRANCH   5  17
ATOM     17  C   UNL     1      44.349   3.178  11.137  0.00  0.00    +0.000 C 
BRANCH  17  18
ATOM     18  O   UNL     1      44.042   3.384   9.760  0.00  0.00    +0.000 OA
BRANCH  18  19
ATOM     19  C   UNL     1      45.042   3.106   8.866  0.00  0.00    +0.000 A 
ATOM     20  C   UNL     1      45.728   4.044   8.086  0.00  0.00    +0.000 A 
ATOM     21  C   UNL     1      46.735   3.632   7.208  0.00  0.00    +0.000 A 
ATOM     22  C   UNL     1      47.063   2.281   7.104  0.00  0.00    +0.000 A 
ATOM     23  C   UNL     1      46.380   1.347   7.878  0.00  0.00    +0.000 A 
ATOM     24 CL   UNL     1      46.785  -0.320   7.749  0.00  0.00    +0.000 Cl
ATOM     25  C   UNL     1      45.374   1.752   8.755  0.00  0.00    +0.000 A 
ENDBRANCH  18  19
ENDBRANCH  17  18
ENDBRANCH   5  17
TORSDOF 5
ENDMDL
MODEL 2
REMARK VINA RESULT:    -8.098      2.408      3.103
REMARK INTER + INTRA:         -11.147
REMARK INTER:                 -10.189
REMARK INTRA:                  -0.958
REMARK UNBOUND:                -0.682
REMARK  Name = 
REMARK  5 active torsions:
REMARK  status: ('A' for Active; 'I' for Inactive)
REMARK    1  A    between atoms: C_2  and  C_5
REMARK    2  A    between atoms: C_9  and  C_10
REMARK    3  A    between atoms: C_14  and  C_15
REMARK    4  A    between atoms: C_15  and  O_16
REMARK    5  A    between atoms: O_16  and  C_17
REMARK                            x       y       z     vdW  Elec       q    Type
REMARK                         _______ _______ _______ _____ _____    ______ ____
ROOT
ATOM      1  C   UNL     1      46.633   5.664  12.634  0.00  0.00    +0.000 A 
ATOM      2  C   UNL     1      46.237   4.873  13.712  0.00  0.00    +0.000 A 
ATOM      3  N   UNL     1      45.175   4.024  13.706  0.00  0.00    +0.000 NA
ATOM      4  C   UNL     1      44.466   3.941  12.561  0.00  0.00    +0.000 A 
ATOM      5  C   UNL     1      44.753   4.678  11.420  0.00  0.00    +0.000 A 
ATOM      6  C   UNL     1      45.866   5.528  11.464  0.00  0.00    +0.000 A 
ENDROOT
BRANCH   1  11
ATOM      7  C   UNL     1      49.580   7.358  14.020  0.00  0.00    +0.000 A 
ATOM      8  C   UNL     1      49.990   8.215  12.997  0.00  0.00    +0.000 A 
ATOM      9  C   UNL     1      49.256   8.256  11.819  0.00  0.00    +0.000 A 
ATOM     10  C   UNL     1      48.141   7.435  11.682  0.00  0.00    +0.000 A 
ATOM     11  C   UNL     1      47.780   6.583  12.724  0.00  0.00    +0.000 A 
ATOM     12  N   UNL     1      48.480   6.556  13.887  0.00  0.00    +0.000 NA
BRANCH   7  14
ATOM     13  F   UNL     1      51.733   7.278  15.113  0.00  0.00    +0.000 F 
ATOM     14  C   UNL     1      50.380   7.306  15.317  0.00  0.00    +0.000 C 
ATOM     15  F   UNL     1      50.109   6.202  16.069  0.00  0.00    +0.000 F 
ATOM     16  F   UNL     1      50.161   8.381  16.126  0.00  0.00    +0.000 F 
ENDBRANCH   7  14
ENDBRANCH   1  11
BRANCH   5  17
ATOM     17  C   UNL     1      43.903   4.570  10.189  0.00  0.00    +0.000 C 
BRANCH  17  18
ATOM     18  O   UNL     1      43.984   3.246   9.668  0.00  0.00    +0.000 OA
BRANCH  18  19
ATOM     19  C   UNL     1      45.005   3.000   8.788  0.00  0.00    +0.000 A 
ATOM     20  C   UNL     1      45.666   3.960   8.013  0.00  0.00    +0.000 A 
ATOM     21  C   UNL     1      46.699   3.581   7.150  0.00  0.00    +0.000 A 
ATOM     22  C   UNL     1      47.075   2.243   7.054  0.00  0.00    +0.000 A 
ATOM     23  C   UNL     1      46.415   1.287   7.822  0.00  0.00    +0.000 A 
ATOM     24 CL   UNL     1      46.881  -0.365   7.703  0.00  0.00    +0.000 Cl
ATOM     25  C   UNL     1      45.385   1.659   8.685  0.00  0.00    +0.000 A 
ENDBRANCH  18  19
ENDBRANCH  17  18
ENDBRANCH   5  17
TORSDOF 5
ENDMDL
MODEL 3
REMARK VINA RESULT:    -8.092      4.395      5.574
REMARK INTER + INTRA:         -11.140
REMARK INTER:                 -10.203
REMARK INTRA:                  -0.936
REMARK UNBOUND:                -0.682
REMARK  Name = 
REMARK  5 active torsions:
REMARK  status: ('A' for Active; 'I' for Inactive)
REMARK    1  A    between atoms: C_2  and  C_5
REMARK    2  A    between atoms: C_9  and  C_10
REMARK    3  A    between atoms: C_14  and  C_15
REMARK    4  A    between atoms: C_15  and  O_16
REMARK    5  A    between atoms: O_16  and  C_17
REMARK                            x       y       z     vdW  Elec       q    Type
REMARK                         _______ _______ _______ _____ _____    ______ ____
ROOT
ATOM      1  C   UNL     1      45.554   5.963  12.165  0.00  0.00    +0.000 A 
ATOM      2  C   UNL     1      46.125   5.310  13.258  0.00  0.00    +0.000 A 
ATOM      3  N   UNL     1      46.101   3.966  13.462  0.00  0.00    +0.000 NA
ATOM      4  C   UNL     1      45.486   3.217  12.524  0.00  0.00    +0.000 A 
ATOM      5  C   UNL     1      44.875   3.744  11.394  0.00  0.00    +0.000 A 
ATOM      6  C   UNL     1      44.938   5.132  11.214  0.00  0.00    +0.000 A 
ENDROOT
BRANCH   1  11
ATOM      7  C   UNL     1      44.488   9.365  11.290  0.00  0.00    +0.000 A 
ATOM      8  C   UNL     1      45.525  10.174  11.757  0.00  0.00    +0.000 A 
ATOM      9  C   UNL     1      46.626   9.579  12.358  0.00  0.00    +0.000 A 
ATOM     10  C   UNL     1      46.663   8.194  12.492  0.00  0.00    +0.000 A 
ATOM     11  C   UNL     1      45.596   7.428  12.026  0.00  0.00    +0.000 A 
ATOM     12  N   UNL     1      44.528   8.003  11.416  0.00  0.00    +0.000 NA
BRANCH   7  14
ATOM     13  F   UNL     1      42.162   9.214  10.657  0.00  0.00    +0.000 F 
ATOM     14  C   UNL     1      43.275  10.010  10.630  0.00  0.00    +0.000 C 
ATOM     15  F   UNL     1      43.473  10.302   9.313  0.00  0.00    +0.000 F 
ATOM     16  F   UNL     1      42.896  11.176  11.226  0.00  0.00    +0.000 F 
ENDBRANCH   7  14
ENDBRANCH   1  11
BRANCH   5  17
ATOM     17  C   UNL     1      44.173   2.860  10.405  0.00  0.00    +0.000 C 
BRANCH  17  18
ATOM     18  O   UNL     1      44.326   3.398   9.094  0.00  0.00    +0.000 OA
BRANCH  18  19
ATOM     19  C   UNL     1      45.384   2.925   8.363  0.00  0.00    +0.000 A 
ATOM     20  C   UNL     1      46.263   3.702   7.599  0.00  0.00    +0.000 A 
ATOM     21  C   UNL     1      47.311   3.098   6.898  0.00  0.00    +0.000 A 
ATOM     22  C   UNL     1      47.486   1.717   6.952  0.00  0.00    +0.000 A 
ATOM     23  C   UNL     1      46.609   0.943   7.709  0.00  0.00    +0.000 A 
ATOM     24 CL   UNL     1      46.826  -0.763   7.777  0.00  0.00    +0.000 Cl
ATOM     25  C   UNL     1      45.563   1.540   8.412  0.00  0.00    +0.000 A 
ENDBRANCH  18  19
ENDBRANCH  17  18
ENDBRANCH   5  17
TORSDOF 5
ENDMDL
MODEL 4
REMARK VINA RESULT:    -7.896      3.577      4.499
REMARK INTER + INTRA:         -10.886
REMARK INTER:                 -10.063
REMARK INTRA:                  -0.823
REMARK UNBOUND:                -0.682
REMARK  Name = 
REMARK  5 active torsions:
REMARK  status: ('A' for Active; 'I' for Inactive)
REMARK    1  A    between atoms: C_2  and  C_5
REMARK    2  A    between atoms: C_9  and  C_10
REMARK    3  A    between atoms: C_14  and  C_15
REMARK    4  A    between atoms: C_15  and  O_16
REMARK    5  A    between atoms: O_16  and  C_17
REMARK                            x       y       z     vdW  Elec       q    Type
REMARK                         _______ _______ _______ _____ _____    ______ ____
ROOT
ATOM      1  C   UNL     1      46.332   6.308  12.379  0.00  0.00    +0.000 A 
ATOM      2  C   UNL     1      46.478   5.434  13.456  0.00  0.00    +0.000 A 
ATOM      3  N   UNL     1      45.780   4.279  13.623  0.00  0.00    +0.000 NA
ATOM      4  C   UNL     1      44.890   3.961  12.660  0.00  0.00    +0.000 A 
ATOM      5  C   UNL     1      44.647   4.746  11.543  0.00  0.00    +0.000 A 
ATOM      6  C   UNL     1      45.400   5.919  11.402  0.00  0.00    +0.000 A 
ENDROOT
BRANCH   1  11
ATOM      7  C   UNL     1      49.181   8.552  11.812  0.00  0.00    +0.000 A 
ATOM      8  C   UNL     1      48.651   9.828  12.007  0.00  0.00    +0.000 A 
ATOM      9  C   UNL     1      47.315   9.954  12.364  0.00  0.00    +0.000 A 
ATOM     10  C   UNL     1      46.536   8.810  12.504  0.00  0.00    +0.000 A 
ATOM     11  C   UNL     1      47.106   7.557  12.281  0.00  0.00    +0.000 A 
ATOM     12  N   UNL     1      48.417   7.427  11.956  0.00  0.00    +0.000 NA
BRANCH   7  14
ATOM     13  F   UNL     1      50.900   7.261  10.710  0.00  0.00    +0.000 F 
ATOM     14  C   UNL     1      50.647   8.404  11.420  0.00  0.00    +0.000 C 
ATOM     15  F   UNL     1      51.486   8.352  12.493  0.00  0.00    +0.000 F 
ATOM     16  F   UNL     1      51.097   9.422  10.632  0.00  0.00    +0.000 F 
ENDBRANCH   7  14
ENDBRANCH   1  11
BRANCH   5  17
ATOM     17  C   UNL     1      43.615   4.356  10.525  0.00  0.00    +0.000 C 
BRANCH  17  18
ATOM     18  O   UNL     1      43.892   3.043  10.046  0.00  0.00    +0.000 OA
BRANCH  18  19
ATOM     19  C   UNL     1      44.846   2.941   9.068  0.00  0.00    +0.000 A 
ATOM     20  C   UNL     1      45.355   4.000   8.308  0.00  0.00    +0.000 A 
ATOM     21  C   UNL     1      46.334   3.767   7.338  0.00  0.00    +0.000 A 
ATOM     22  C   UNL     1      46.810   2.475   7.120  0.00  0.00    +0.000 A 
ATOM     23  C   UNL     1      46.302   1.420   7.874  0.00  0.00    +0.000 A 
ATOM     24 CL   UNL     1      46.889  -0.175   7.606  0.00  0.00    +0.000 Cl
ATOM     25  C   UNL     1      45.325   1.647   8.844  0.00  0.00    +0.000 A 
ENDBRANCH  18  19
ENDBRANCH  17  18
ENDBRANCH   5  17
TORSDOF 5
ENDMDL
MODEL 5
REMARK VINA RESULT:    -7.814      4.173      5.049
REMARK INTER + INTRA:         -10.780
REMARK INTER:                  -9.944
REMARK INTRA:                  -0.836
REMARK UNBOUND:                -0.682
REMARK  Name = 
REMARK  5 active torsions:
REMARK  status: ('A' for Active; 'I' for Inactive)
REMARK    1  A    between atoms: C_2  and  C_5
REMARK    2  A    between atoms: C_9  and  C_10
REMARK    3  A    between atoms: C_14  and  C_15
REMARK    4  A    between atoms: C_15  and  O_16
REMARK    5  A    between atoms: O_16  and  C_17
REMARK                            x       y       z     vdW  Elec       q    Type
REMARK                         _______ _______ _______ _____ _____    ______ ____
ROOT
ATOM      1  C   UNL     1      46.341   6.310  12.292  0.00  0.00    +0.000 A 
ATOM      2  C   UNL     1      46.266   5.548  13.458  0.00  0.00    +0.000 A 
ATOM      3  N   UNL     1      45.426   4.496  13.648  0.00  0.00    +0.000 NA
ATOM      4  C   UNL     1      44.617   4.168  12.620  0.00  0.00    +0.000 A 
ATOM      5  C   UNL     1      44.590   4.849  11.411  0.00  0.00    +0.000 A 
ATOM      6  C   UNL     1      45.484   5.916  11.251  0.00  0.00    +0.000 A 
ENDROOT
BRANCH   1  11
ATOM      7  C   UNL     1      47.478   9.785  11.963  0.00  0.00    +0.000 A 
ATOM      8  C   UNL     1      48.870   9.690  11.992  0.00  0.00    +0.000 A 
ATOM      9  C   UNL     1      49.457   8.436  12.098  0.00  0.00    +0.000 A 
ATOM     10  C   UNL     1      48.645   7.309  12.185  0.00  0.00    +0.000 A 
ATOM     11  C   UNL     1      47.259   7.455  12.170  0.00  0.00    +0.000 A 
ATOM     12  N   UNL     1      46.680   8.677  12.043  0.00  0.00    +0.000 NA
BRANCH   7  14
ATOM     13  F   UNL     1      46.864  11.667  10.579  0.00  0.00    +0.000 F 
ATOM     14  C   UNL     1      46.825  11.158  11.848  0.00  0.00    +0.000 C 
ATOM     15  F   UNL     1      47.419  12.102  12.631  0.00  0.00    +0.000 F 
ATOM     16  F   UNL     1      45.505  11.154  12.192  0.00  0.00    +0.000 F 
ENDBRANCH   7  14
ENDBRANCH   1  11
BRANCH   5  17
ATOM     17  C   UNL     1      43.638   4.459  10.318  0.00  0.00    +0.000 C 
BRANCH  17  18
ATOM     18  O   UNL     1      43.908   3.121   9.907  0.00  0.00    +0.000 OA
BRANCH  18  19
ATOM     19  C   UNL     1      44.885   2.961   8.961  0.00  0.00    +0.000 A 
ATOM     20  C   UNL     1      45.438   3.978   8.174  0.00  0.00    +0.000 A 
ATOM     21  C   UNL     1      46.437   3.685   7.241  0.00  0.00    +0.000 A 
ATOM     22  C   UNL     1      46.888   2.376   7.086  0.00  0.00    +0.000 A 
ATOM     23  C   UNL     1      46.337   1.363   7.866  0.00  0.00    +0.000 A 
ATOM     24 CL   UNL     1      46.895  -0.254   7.675  0.00  0.00    +0.000 Cl
ATOM     25  C   UNL     1      45.340   1.649   8.799  0.00  0.00    +0.000 A 
ENDBRANCH  18  19
ENDBRANCH  17  18
ENDBRANCH   5  17
TORSDOF 5
ENDMDL
MODEL 6
REMARK VINA RESULT:    -7.136      4.519      7.844
REMARK INTER + INTRA:          -9.903
REMARK INTER:                  -8.984
REMARK INTRA:                  -0.920
REMARK UNBOUND:                -0.682
REMARK  Name = 
REMARK  5 active torsions:
REMARK  status: ('A' for Active; 'I' for Inactive)
REMARK    1  A    between atoms: C_2  and  C_5
REMARK    2  A    between atoms: C_9  and  C_10
REMARK    3  A    between atoms: C_14  and  C_15
REMARK    4  A    between atoms: C_15  and  O_16
REMARK    5  A    between atoms: O_16  and  C_17
REMARK                            x       y       z     vdW  Elec       q    Type
REMARK                         _______ _______ _______ _____ _____    ______ ____
ROOT
ATOM      1  C   UNL     1      45.645   6.438  12.038  0.00  0.00    +0.000 A 
ATOM      2  C   UNL     1      45.021   7.676  11.882  0.00  0.00    +0.000 A 
ATOM      3  N   UNL     1      45.462   8.844  12.422  0.00  0.00    +0.000 NA
ATOM      4  C   UNL     1      46.595   8.789  13.151  0.00  0.00    +0.000 A 
ATOM      5  C   UNL     1      47.307   7.621  13.386  0.00  0.00    +0.000 A 
ATOM      6  C   UNL     1      46.827   6.444  12.797  0.00  0.00    +0.000 A 
ENDROOT
BRANCH   1  11
ATOM      7  C   UNL     1      45.060   3.761   9.595  0.00  0.00    +0.000 A 
ATOM      8  C   UNL     1      44.175   2.899  10.244  0.00  0.00    +0.000 A 
ATOM      9  C   UNL     1      43.734   3.222  11.521  0.00  0.00    +0.000 A 
ATOM     10  C   UNL     1      44.195   4.387  12.126  0.00  0.00    +0.000 A 
ATOM     11  C   UNL     1      45.092   5.209  11.445  0.00  0.00    +0.000 A 
ATOM     12  N   UNL     1      45.507   4.910  10.188  0.00  0.00    +0.000 NA
BRANCH   7  14
ATOM     13  F   UNL     1      44.552   3.435   7.257  0.00  0.00    +0.000 F 
ATOM     14  C   UNL     1      45.549   3.414   8.194  0.00  0.00    +0.000 C 
ATOM     15  F   UNL     1      46.094   2.168   8.109  0.00  0.00    +0.000 F 
ATOM     16  F   UNL     1      46.497   4.277   7.728  0.00  0.00    +0.000 F 
ENDBRANCH   7  14
ENDBRANCH   1  11
BRANCH   5  17
ATOM     17  C   UNL     1      48.542   7.619  14.239  0.00  0.00    +0.000 C 
BRANCH  17  18
ATOM     18  O   UNL     1      48.829   6.287  14.657  0.00  0.00    +0.000 OA
BRANCH  18  19
ATOM     19  C   UNL     1      48.550   5.986  15.964  0.00  0.00    +0.000 A 
ATOM     20  C   UNL     1      48.756   6.830  17.061  0.00  0.00    +0.000 A 
ATOM     21  C   UNL     1      48.425   6.405  18.351  0.00  0.00    +0.000 A 
ATOM     22  C   UNL     1      47.889   5.136  18.554  0.00  0.00    +0.000 A 
ATOM     23  C   UNL     1      47.686   4.294  17.463  0.00  0.00    +0.000 A 
ATOM     24 CL   UNL     1      47.023   2.726  17.714  0.00  0.00    +0.000 Cl
ATOM     25  C   UNL     1      48.014   4.712  16.174  0.00  0.00    +0.000 A 
ENDBRANCH  18  19
ENDBRANCH  17  18
ENDBRANCH   5  17
TORSDOF 5
ENDMDL
MODEL 7
REMARK VINA RESULT:    -6.792      2.246      3.440
REMARK INTER + INTRA:          -9.459
REMARK INTER:                  -8.540
REMARK INTRA:                  -0.919
REMARK UNBOUND:                -0.682
REMARK  Name = 
REMARK  5 active torsions:
REMARK  status: ('A' for Active; 'I' for Inactive)
REMARK    1  A    between atoms: C_2  and  C_5
REMARK    2  A    between atoms: C_9  and  C_10
REMARK    3  A    between atoms: C_14  and  C_15
REMARK    4  A    between atoms: C_15  and  O_16
REMARK    5  A    between atoms: O_16  and  C_17
REMARK                            x       y       z     vdW  Elec       q    Type
REMARK                         _______ _______ _______ _____ _____    ______ ____
ROOT
ATOM      1  C   UNL     1      48.751   6.946  14.421  0.00  0.00    +0.000 A 
ATOM      2  C   UNL     1      49.808   7.608  13.797  0.00  0.00    +0.000 A 
ATOM      3  N   UNL     1      49.797   8.059  12.515  0.00  0.00    +0.000 NA
ATOM      4  C   UNL     1      48.666   7.855  11.807  0.00  0.00    +0.000 A 
ATOM      5  C   UNL     1      47.547   7.207  12.309  0.00  0.00    +0.000 A 
ATOM      6  C   UNL     1      47.596   6.772  13.640  0.00  0.00    +0.000 A 
ENDROOT
BRANCH   1  11
ATOM      7  C   UNL     1      48.552   4.657  17.284  0.00  0.00    +0.000 A 
ATOM      8  C   UNL     1      49.037   5.410  18.354  0.00  0.00    +0.000 A 
ATOM      9  C   UNL     1      49.419   6.727  18.132  0.00  0.00    +0.000 A 
ATOM     10  C   UNL     1      49.322   7.257  16.849  0.00  0.00    +0.000 A 
ATOM     11  C   UNL     1      48.848   6.460  15.808  0.00  0.00    +0.000 A 
ATOM     12  N   UNL     1      48.450   5.180  16.024  0.00  0.00    +0.000 NA
BRANCH   7  14
ATOM     13  F   UNL     1      46.779   3.021  17.414  0.00  0.00    +0.000 F 
ATOM     14  C   UNL     1      48.130   3.210  17.518  0.00  0.00    +0.000 C 
ATOM     15  F   UNL     1      48.462   2.749  18.757  0.00  0.00    +0.000 F 
ATOM     16  F   UNL     1      48.684   2.340  16.627  0.00  0.00    +0.000 F 
ENDBRANCH   7  14
ENDBRANCH   1  11
BRANCH   5  17
ATOM     17  C   UNL     1      46.333   6.977  11.458  0.00  0.00    +0.000 C 
BRANCH  17  18
ATOM     18  O   UNL     1      45.327   6.326  12.230  0.00  0.00    +0.000 OA
BRANCH  18  19
ATOM     19  C   UNL     1      44.840   5.149  11.727  0.00  0.00    +0.000 A 
ATOM     20  C   UNL     1      44.166   4.163  12.456  0.00  0.00    +0.000 A 
ATOM     21  C   UNL     1      43.713   3.001  11.823  0.00  0.00    +0.000 A 
ATOM     22  C   UNL     1      43.932   2.817  10.459  0.00  0.00    +0.000 A 
ATOM     23  C   UNL     1      44.605   3.796   9.733  0.00  0.00    +0.000 A 
ATOM     24 CL   UNL     1      44.875   3.568   8.049  0.00  0.00    +0.000 Cl
ATOM     25  C   UNL     1      45.059   4.957  10.359  0.00  0.00    +0.000 A 
ENDBRANCH  18  19
ENDBRANCH  17  18
ENDBRANCH   5  17
TORSDOF 5
ENDMDL
MODEL 8
REMARK VINA RESULT:    -6.486      4.369      7.460
REMARK INTER + INTRA:          -9.063
REMARK INTER:                  -8.146
REMARK INTRA:                  -0.918
REMARK UNBOUND:                -0.682
REMARK  Name = 
REMARK  5 active torsions:
REMARK  status: ('A' for Active; 'I' for Inactive)
REMARK    1  A    between atoms: C_2  and  C_5
REMARK    2  A    between atoms: C_9  and  C_10
REMARK    3  A    between atoms: C_14  and  C_15
REMARK    4  A    between atoms: C_15  and  O_16
REMARK    5  A    between atoms: O_16  and  C_17
REMARK                            x       y       z     vdW  Elec       q    Type
REMARK                         _______ _______ _______ _____ _____    ______ ____
ROOT
ATOM      1  C   UNL     1      48.233   6.976  13.749  0.00  0.00    +0.000 A 
ATOM      2  C   UNL     1      49.340   7.604  13.180  0.00  0.00    +0.000 A 
ATOM      3  N   UNL     1      50.479   7.932  13.848  0.00  0.00    +0.000 NA
ATOM      4  C   UNL     1      50.533   7.608  15.156  0.00  0.00    +0.000 A 
ATOM      5  C   UNL     1      49.498   6.986  15.841  0.00  0.00    +0.000 A 
ATOM      6  C   UNL     1      48.350   6.652  15.111  0.00  0.00    +0.000 A 
ENDROOT
BRANCH   1  11
ATOM      7  C   UNL     1      45.535   5.030  12.197  0.00  0.00    +0.000 A 
ATOM      8  C   UNL     1      44.736   5.993  11.579  0.00  0.00    +0.000 A 
ATOM      9  C   UNL     1      45.111   7.327  11.654  0.00  0.00    +0.000 A 
ATOM     10  C   UNL     1      46.264   7.673  12.352  0.00  0.00    +0.000 A 
ATOM     11  C   UNL     1      47.021   6.678  12.967  0.00  0.00    +0.000 A 
ATOM     12  N   UNL     1      46.672   5.369  12.877  0.00  0.00    +0.000 NA
BRANCH   7  14
ATOM     13  F   UNL     1      45.974   2.736  12.814  0.00  0.00    +0.000 F 
ATOM     14  C   UNL     1      45.131   3.561  12.120  0.00  0.00    +0.000 C 
ATOM     15  F   UNL     1      45.120   3.074  10.847  0.00  0.00    +0.000 F 
ATOM     16  F   UNL     1      43.891   3.319  12.632  0.00  0.00    +0.000 F 
ENDBRANCH   7  14
ENDBRANCH   1  11
BRANCH   5  17
ATOM     17  C   UNL     1      49.604   6.686  17.308  0.00  0.00    +0.000 C 
BRANCH  17  18
ATOM     18  O   UNL     1      48.755   5.589  17.632  0.00  0.00    +0.000 OA
BRANCH  18  19
ATOM     19  C   UNL     1      49.273   4.337  17.426  0.00  0.00    +0.000 A 
ATOM     20  C   UNL     1      48.587   3.248  16.877  0.00  0.00    +0.000 A 
ATOM     21  C   UNL     1      49.231   2.017  16.714  0.00  0.00    +0.000 A 
ATOM     22  C   UNL     1      50.561   1.867  17.100  0.00  0.00    +0.000 A 
ATOM     23  C   UNL     1      51.244   2.950  17.648  0.00  0.00    +0.000 A 
ATOM     24 CL   UNL     1      52.887   2.765  18.124  0.00  0.00    +0.000 Cl
ATOM     25  C   UNL     1      50.607   4.180  17.813  0.00  0.00    +0.000 A 
ENDBRANCH  18  19
ENDBRANCH  17  18
ENDBRANCH   5  17
TORSDOF 5
ENDMDL
MODEL 9
REMARK VINA RESULT:    -6.472      5.017      8.141
REMARK INTER + INTRA:          -9.046
REMARK INTER:                  -8.143
REMARK INTRA:                  -0.902
REMARK UNBOUND:                -0.682
REMARK  Name = 
REMARK  5 active torsions:
REMARK  status: ('A' for Active; 'I' for Inactive)
REMARK    1  A    between atoms: C_2  and  C_5
REMARK    2  A    between atoms: C_9  and  C_10
REMARK    3  A    between atoms: C_14  and  C_15
REMARK    4  A    between atoms: C_15  and  O_16
REMARK    5  A    between atoms: O_16  and  C_17
REMARK                            x       y       z     vdW  Elec       q    Type
REMARK                         _______ _______ _______ _____ _____    ______ ____
ROOT
ATOM      1  C   UNL     1      45.475   6.516  11.828  0.00  0.00    +0.000 A 
ATOM      2  C   UNL     1      44.791   7.715  11.628  0.00  0.00    +0.000 A 
ATOM      3  N   UNL     1      45.327   8.954  11.795  0.00  0.00    +0.000 NA
ATOM      4  C   UNL     1      46.622   9.013  12.170  0.00  0.00    +0.000 A 
ATOM      5  C   UNL     1      47.409   7.895  12.406  0.00  0.00    +0.000 A 
ATOM      6  C   UNL     1      46.822   6.639  12.206  0.00  0.00    +0.000 A 
ENDROOT
BRANCH   1  11
ATOM      7  C   UNL     1      44.531   3.319  10.289  0.00  0.00    +0.000 A 
ATOM      8  C   UNL     1      43.696   2.722  11.235  0.00  0.00    +0.000 A 
ATOM      9  C   UNL     1      43.412   3.406  12.410  0.00  0.00    +0.000 A 
ATOM     10  C   UNL     1      43.976   4.660  12.621  0.00  0.00    +0.000 A 
ATOM     11  C   UNL     1      44.818   5.209  11.655  0.00  0.00    +0.000 A 
ATOM     12  N   UNL     1      45.079   4.555  10.494  0.00  0.00    +0.000 NA
BRANCH   7  14
ATOM     13  F   UNL     1      44.362   3.205   7.883  0.00  0.00    +0.000 F 
ATOM     14  C   UNL     1      44.848   2.576   8.996  0.00  0.00    +0.000 C 
ATOM     15  F   UNL     1      44.321   1.319   8.957  0.00  0.00    +0.000 F 
ATOM     16  F   UNL     1      46.186   2.436   8.774  0.00  0.00    +0.000 F 
ENDBRANCH   7  14
ENDBRANCH   1  11
BRANCH   5  17
ATOM     17  C   UNL     1      48.834   8.027  12.859  0.00  0.00    +0.000 C 
BRANCH  17  18
ATOM     18  O   UNL     1      48.891   8.867  14.010  0.00  0.00    +0.000 OA
BRANCH  18  19
ATOM     19  C   UNL     1      48.819   8.238  15.225  0.00  0.00    +0.000 A 
ATOM     20  C   UNL     1      49.149   6.901  15.476  0.00  0.00    +0.000 A 
ATOM     21  C   UNL     1      49.036   6.376  16.767  0.00  0.00    +0.000 A 
ATOM     22  C   UNL     1      48.593   7.182  17.814  0.00  0.00    +0.000 A 
ATOM     23  C   UNL     1      48.261   8.512  17.564  0.00  0.00    +0.000 A 
ATOM     24 CL   UNL     1      47.714   9.506  18.858  0.00  0.00    +0.000 Cl
ATOM     25  C   UNL     1      48.372   9.041  16.279  0.00  0.00    +0.000 A 
ENDBRANCH  18  19
ENDBRANCH  17  18
ENDBRANCH   5  17
TORSDOF 5
ENDMDL
