MODEL 1
REMARK VINA RESULT:    -6.304      0.000      0.000
REMARK INTER + INTRA:         -12.388
REMARK INTER:                  -9.252
REMARK INTRA:                  -3.137
REMARK UNBOUND:                -3.137
REMARK  Name = 
REMARK  11 active torsions:
REMARK  status: ('A' for Active; 'I' for Inactive)
REMARK    1  A    between atoms: C_1  and  O_2
REMARK    2  A    between atoms: O_2  and  C_3
REMARK    3  A    between atoms: C_8  and  C_9
REMARK    4  A    between atoms: N_11  and  C_12
REMARK    5  A    between atoms: N_11  and  C_33
REMARK    6  A    between atoms: C_12  and  C_13
REMARK    7  A    between atoms: C_16  and  C_17
REMARK    8  A    between atoms: C_17  and  N_18
REMARK    9  A    between atoms: C_19  and  C_21
REMARK   10  A    between atoms: C_33  and  C_34
REMARK   11  A    between atoms: C_33  and  C_35
REMARK                            x       y       z     vdW  Elec       q    Type
REMARK                         _______ _______ _______ _____ _____    ______ ____
ROOT
ATOM      1  C   UNL     1      49.704   8.054  17.986  0.00  0.00    +0.000 A 
ATOM      2  C   UNL     1      50.705   7.352  17.296  0.00  0.00    +0.000 A 
ATOM      3  C   UNL     1      50.564   7.013  15.932  0.00  0.00    +0.000 A 
ATOM      4  C   UNL     1      49.415   7.366  15.209  0.00  0.00    +0.000 A 
ATOM      5  C   UNL     1      48.436   8.113  15.884  0.00  0.00    +0.000 A 
ATOM      6  C   UNL     1      48.579   8.451  17.246  0.00  0.00    +0.000 A 
ENDROOT
BRANCH   1   7
ATOM      7  C   UNL     1      49.737   8.198  19.503  0.00  0.00    +0.000 C 
BRANCH   7  10
ATOM      8  C   UNL     1      47.968   6.536  20.334  0.00  0.00    +0.000 C 
ATOM      9  O   UNL     1      46.987   6.298  21.047  0.00  0.00    +0.000 OA
ATOM     10  N   UNL     1      48.554   7.818  20.297  0.00  0.00    +0.000 N 
BRANCH   8  16
ATOM     11  C   UNL     1      49.515   4.655  19.360  0.00  0.00    +0.000 A 
ATOM     12  C   UNL     1      49.776   3.935  18.179  0.00  0.00    +0.000 A 
ATOM     13  C   UNL     1      48.829   3.825  17.154  0.00  0.00    +0.000 A 
ATOM     14  C   UNL     1      47.577   4.390  17.319  0.00  0.00    +0.000 A 
ATOM     15  C   UNL     1      47.344   5.188  18.435  0.00  0.00    +0.000 A 
ATOM     16  C   UNL     1      48.342   5.417  19.420  0.00  0.00    +0.000 A 
BRANCH  11  18
ATOM     17  C   UNL     1      51.883   4.665  19.700  0.00  0.00    +0.000 C 
ATOM     18  O   UNL     1      50.563   4.643  20.241  0.00  0.00    +0.000 OA
ENDBRANCH  11  18
ENDBRANCH   8  16
BRANCH  10  19
ATOM     19  C   UNL     1      47.961   8.892  21.144  0.00  0.00    +0.000 C 
ATOM     20  C   UNL     1      49.016   9.804  21.777  0.00  0.00    +0.000 C 
ATOM     21  C   UNL     1      46.887   9.749  20.447  0.00  0.00    +0.000 C 
ENDBRANCH  10  19
ENDBRANCH   7  10
ENDBRANCH   1   7
BRANCH   4  22
ATOM     22  C   UNL     1      49.207   6.926  13.764  0.00  0.00    +0.000 C 
BRANCH  22  23
ATOM     23  N   UNL     1      47.822   6.615  13.469  0.00  0.00    +0.000 N 
ATOM     24  C   UNL     1      47.253   6.802  12.228  0.00  0.00    +0.000 C 
ATOM     25  O   UNL     1      47.884   7.243  11.287  0.00  0.00    +0.000 OA
ATOM     26  H   UNL     1      47.224   6.426  14.270  0.00  0.00    +0.000 HD
BRANCH  24  27
ATOM     27  C   UNL     1      45.830   6.384  12.065  0.00  0.00    +0.000 A 
ATOM     28  C   UNL     1      44.864   7.298  11.664  0.00  0.00    +0.000 A 
ATOM     29  S   UNL     1      43.330   6.601  11.368  0.00  0.00    +0.000 S 
ATOM     30  C   UNL     1      43.895   5.058  11.805  0.00  0.00    +0.000 A 
ATOM     31  N   UNL     1      43.083   3.961  11.709  0.00  0.00    +0.000 NA
ATOM     32  C   UNL     1      43.645   2.858  12.080  0.00  0.00    +0.000 A 
ATOM     33  N   UNL     1      44.920   2.754  12.568  0.00  0.00    +0.000 N 
ATOM     34  C   UNL     1      45.733   3.846  12.754  0.00  0.00    +0.000 A 
ATOM     35  O   UNL     1      46.803   3.742  13.347  0.00  0.00    +0.000 OA
ATOM     36  C   UNL     1      45.200   5.092  12.244  0.00  0.00    +0.000 A 
ATOM     37  H   UNL     1      45.277   1.875  12.912  0.00  0.00    +0.000 HD
ENDBRANCH  24  27
ENDBRANCH  22  23
ENDBRANCH   4  22
TORSDOF 8
ENDMDL
MODEL 2
REMARK VINA RESULT:    -6.125      1.756      2.615
REMARK INTER + INTRA:         -12.126
REMARK INTER:                  -9.911
REMARK INTRA:                  -2.215
REMARK UNBOUND:                -3.137
REMARK  Name = 
REMARK  11 active torsions:
REMARK  status: ('A' for Active; 'I' for Inactive)
REMARK    1  A    between atoms: C_1  and  O_2
REMARK    2  A    between atoms: O_2  and  C_3
REMARK    3  A    between atoms: C_8  and  C_9
REMARK    4  A    between atoms: N_11  and  C_12
REMARK    5  A    between atoms: N_11  and  C_33
REMARK    6  A    between atoms: C_12  and  C_13
REMARK    7  A    between atoms: C_16  and  C_17
REMARK    8  A    between atoms: C_17  and  N_18
REMARK    9  A    between atoms: C_19  and  C_21
REMARK   10  A    between atoms: C_33  and  C_34
REMARK   11  A    between atoms: C_33  and  C_35
REMARK                            x       y       z     vdW  Elec       q    Type
REMARK                         _______ _______ _______ _____ _____    ______ ____
ROOT
ATOM      1  C   UNL     1      49.496   7.642  16.478  0.00  0.00    +0.000 A 
ATOM      2  C   UNL     1      48.446   8.532  16.202  0.00  0.00    +0.000 A 
ATOM      3  C   UNL     1      47.982   8.740  14.883  0.00  0.00    +0.000 A 
ATOM      4  C   UNL     1      48.553   8.064  13.795  0.00  0.00    +0.000 A 
ATOM      5  C   UNL     1      49.569   7.137  14.077  0.00  0.00    +0.000 A 
ATOM      6  C   UNL     1      50.030   6.930  15.393  0.00  0.00    +0.000 A 
ENDROOT
BRANCH   1   7
ATOM      7  C   UNL     1      50.163   7.604  17.848  0.00  0.00    +0.000 C 
BRANCH   7  10
ATOM      8  C   UNL     1      49.202   5.661  19.220  0.00  0.00    +0.000 C 
ATOM      9  O   UNL     1      48.599   5.267  20.225  0.00  0.00    +0.000 OA
ATOM     10  N   UNL     1      49.436   7.034  18.998  0.00  0.00    +0.000 N 
BRANCH   8  16
ATOM     11  C   UNL     1      48.657   4.030  17.240  0.00  0.00    +0.000 A 
ATOM     12  C   UNL     1      49.026   2.785  16.695  0.00  0.00    +0.000 A 
ATOM     13  C   UNL     1      50.261   2.191  16.976  0.00  0.00    +0.000 A 
ATOM     14  C   UNL     1      51.176   2.861  17.768  0.00  0.00    +0.000 A 
ATOM     15  C   UNL     1      50.784   4.041  18.393  0.00  0.00    +0.000 A 
ATOM     16  C   UNL     1      49.485   4.589  18.221  0.00  0.00    +0.000 A 
BRANCH  11  18
ATOM     17  C   UNL     1      47.101   4.366  15.453  0.00  0.00    +0.000 C 
ATOM     18  O   UNL     1      47.414   4.445  16.843  0.00  0.00    +0.000 OA
ENDBRANCH  11  18
ENDBRANCH   8  16
BRANCH  10  19
ATOM     19  C   UNL     1      48.940   8.010  20.009  0.00  0.00    +0.000 C 
ATOM     20  C   UNL     1      49.844   9.238  20.147  0.00  0.00    +0.000 C 
ATOM     21  C   UNL     1      47.480   8.460  19.814  0.00  0.00    +0.000 C 
ENDBRANCH  10  19
ENDBRANCH   7  10
ENDBRANCH   1   7
BRANCH   4  22
ATOM     22  C   UNL     1      48.129   8.349  12.358  0.00  0.00    +0.000 C 
BRANCH  22  23
ATOM     23  N   UNL     1      47.435   7.231  11.749  0.00  0.00    +0.000 N 
ATOM     24  C   UNL     1      46.066   7.179  11.606  0.00  0.00    +0.000 C 
ATOM     25  O   UNL     1      45.341   8.078  11.984  0.00  0.00    +0.000 OA
ATOM     26  H   UNL     1      47.987   6.391  11.596  0.00  0.00    +0.000 HD
BRANCH  24  27
ATOM     27  C   UNL     1      45.503   5.985  10.909  0.00  0.00    +0.000 A 
ATOM     28  C   UNL     1      45.796   5.738   9.575  0.00  0.00    +0.000 A 
ATOM     29  S   UNL     1      45.204   4.240   9.000  0.00  0.00    +0.000 S 
ATOM     30  C   UNL     1      44.501   3.886  10.506  0.00  0.00    +0.000 A 
ATOM     31  N   UNL     1      43.876   2.689  10.724  0.00  0.00    +0.000 NA
ATOM     32  C   UNL     1      43.385   2.562  11.912  0.00  0.00    +0.000 A 
ATOM     33  N   UNL     1      43.427   3.526  12.885  0.00  0.00    +0.000 N 
ATOM     34  C   UNL     1      43.974   4.768  12.672  0.00  0.00    +0.000 A 
ATOM     35  O   UNL     1      43.848   5.663  13.503  0.00  0.00    +0.000 OA
ATOM     36  C   UNL     1      44.646   4.925  11.399  0.00  0.00    +0.000 A 
ATOM     37  H   UNL     1      42.959   3.395  13.769  0.00  0.00    +0.000 HD
ENDBRANCH  24  27
ENDBRANCH  22  23
ENDBRANCH   4  22
TORSDOF 8
ENDMDL
MODEL 3
REMARK VINA RESULT:    -6.078      2.291      4.627
REMARK INTER + INTRA:         -12.057
REMARK INTER:                  -8.917
REMARK INTRA:                  -3.140
REMARK UNBOUND:                -3.137
REMARK  Name = 
REMARK  11 active torsions:
REMARK  status: ('A' for Active; 'I' for Inactive)
REMARK    1  A    between atoms: C_1  and  O_2
REMARK    2  A    between atoms: O_2  and  C_3
REMARK    3  A    between atoms: C_8  and  C_9
REMARK    4  A    between atoms: N_11  and  C_12
REMARK    5  A    between atoms: N_11  and  C_33
REMARK    6  A    between atoms: C_12  and  C_13
REMARK    7  A    between atoms: C_16  and  C_17
REMARK    8  A    between atoms: C_17  and  N_18
REMARK    9  A    between atoms: C_19  and  C_21
REMARK   10  A    between atoms: C_33  and  C_34
REMARK   11  A    between atoms: C_33  and  C_35
REMARK                            x       y       z     vdW  Elec       q    Type
REMARK                         _______ _______ _______ _____ _____    ______ ____
ROOT
ATOM      1  C   UNL     1      50.770   4.652  19.193  0.00  0.00    +0.000 A 
ATOM      2  C   UNL     1      49.455   5.034  19.502  0.00  0.00    +0.000 A 
ATOM      3  C   UNL     1      48.353   4.569  18.749  0.00  0.00    +0.000 A 
ATOM      4  C   UNL     1      48.529   3.704  17.659  0.00  0.00    +0.000 A 
ATOM      5  C   UNL     1      49.839   3.281  17.381  0.00  0.00    +0.000 A 
ATOM      6  C   UNL     1      50.937   3.746  18.134  0.00  0.00    +0.000 A 
ENDROOT
BRANCH   1   7
ATOM      7  C   UNL     1      51.968   5.342  19.833  0.00  0.00    +0.000 C 
BRANCH   7  10
ATOM      8  C   UNL     1      52.873   6.879  17.989  0.00  0.00    +0.000 C 
ATOM      9  O   UNL     1      53.833   7.295  17.329  0.00  0.00    +0.000 OA
ATOM     10  N   UNL     1      53.039   5.887  18.977  0.00  0.00    +0.000 N 
BRANCH   8  16
ATOM     11  C   UNL     1      50.652   8.266  18.143  0.00  0.00    +0.000 A 
ATOM     12  C   UNL     1      49.320   8.280  17.688  0.00  0.00    +0.000 A 
ATOM     13  C   UNL     1      48.922   7.582  16.543  0.00  0.00    +0.000 A 
ATOM     14  C   UNL     1      49.865   6.898  15.798  0.00  0.00    +0.000 A 
ATOM     15  C   UNL     1      51.162   6.792  16.293  0.00  0.00    +0.000 A 
ATOM     16  C   UNL     1      51.549   7.387  17.524  0.00  0.00    +0.000 A 
BRANCH  11  18
ATOM     17  C   UNL     1      50.050   8.695  20.419  0.00  0.00    +0.000 C 
ATOM     18  O   UNL     1      50.843   9.012  19.275  0.00  0.00    +0.000 OA
ENDBRANCH  11  18
ENDBRANCH   8  16
BRANCH  10  19
ATOM     19  C   UNL     1      54.407   5.346  19.215  0.00  0.00    +0.000 C 
ATOM     20  C   UNL     1      54.980   5.749  20.577  0.00  0.00    +0.000 C 
ATOM     21  C   UNL     1      54.544   3.823  19.026  0.00  0.00    +0.000 C 
ENDBRANCH  10  19
ENDBRANCH   7  10
ENDBRANCH   1   7
BRANCH   4  22
ATOM     22  C   UNL     1      47.362   3.270  16.779  0.00  0.00    +0.000 C 
BRANCH  22  23
ATOM     23  N   UNL     1      46.928   4.314  15.872  0.00  0.00    +0.000 N 
ATOM     24  C   UNL     1      46.918   4.168  14.502  0.00  0.00    +0.000 C 
ATOM     25  O   UNL     1      47.273   3.141  13.958  0.00  0.00    +0.000 OA
ATOM     26  H   UNL     1      46.806   5.239  16.277  0.00  0.00    +0.000 HD
BRANCH  24  27
ATOM     27  C   UNL     1      46.393   5.314  13.702  0.00  0.00    +0.000 A 
ATOM     28  C   UNL     1      47.149   6.466  13.535  0.00  0.00    +0.000 A 
ATOM     29  S   UNL     1      46.460   7.596  12.451  0.00  0.00    +0.000 S 
ATOM     30  C   UNL     1      45.105   6.599  12.200  0.00  0.00    +0.000 A 
ATOM     31  N   UNL     1      44.132   6.952  11.305  0.00  0.00    +0.000 NA
ATOM     32  C   UNL     1      43.162   6.102  11.224  0.00  0.00    +0.000 A 
ATOM     33  N   UNL     1      43.056   4.960  11.971  0.00  0.00    +0.000 N 
ATOM     34  C   UNL     1      43.974   4.619  12.935  0.00  0.00    +0.000 A 
ATOM     35  O   UNL     1      43.765   3.681  13.700  0.00  0.00    +0.000 OA
ATOM     36  C   UNL     1      45.143   5.471  12.988  0.00  0.00    +0.000 A 
ATOM     37  H   UNL     1      42.236   4.374  11.915  0.00  0.00    +0.000 HD
ENDBRANCH  24  27
ENDBRANCH  22  23
ENDBRANCH   4  22
TORSDOF 8
ENDMDL
MODEL 4
REMARK VINA RESULT:    -5.378      1.864      3.271
REMARK INTER + INTRA:         -11.030
REMARK INTER:                  -8.678
REMARK INTRA:                  -2.352
REMARK UNBOUND:                -3.137
REMARK  Name = 
REMARK  11 active torsions:
REMARK  status: ('A' for Active; 'I' for Inactive)
REMARK    1  A    between atoms: C_1  and  O_2
REMARK    2  A    between atoms: O_2  and  C_3
REMARK    3  A    between atoms: C_8  and  C_9
REMARK    4  A    between atoms: N_11  and  C_12
REMARK    5  A    between atoms: N_11  and  C_33
REMARK    6  A    between atoms: C_12  and  C_13
REMARK    7  A    between atoms: C_16  and  C_17
REMARK    8  A    between atoms: C_17  and  N_18
REMARK    9  A    between atoms: C_19  and  C_21
REMARK   10  A    between atoms: C_33  and  C_34
REMARK   11  A    between atoms: C_33  and  C_35
REMARK                            x       y       z     vdW  Elec       q    Type
REMARK                         _______ _______ _______ _____ _____    ______ ____
ROOT
ATOM      1  C   UNL     1      50.427   7.801  16.677  0.00  0.00    +0.000 A 
ATOM      2  C   UNL     1      49.144   8.355  16.805  0.00  0.00    +0.000 A 
ATOM      3  C   UNL     1      48.389   8.740  15.674  0.00  0.00    +0.000 A 
ATOM      4  C   UNL     1      48.892   8.581  14.374  0.00  0.00    +0.000 A 
ATOM      5  C   UNL     1      50.154   7.980  14.244  0.00  0.00    +0.000 A 
ATOM      6  C   UNL     1      50.906   7.596  15.373  0.00  0.00    +0.000 A 
ENDROOT
BRANCH   1   7
ATOM      7  C   UNL     1      51.339   7.622  17.886  0.00  0.00    +0.000 C 
BRANCH   7  10
ATOM      8  C   UNL     1      51.164   5.119  18.421  0.00  0.00    +0.000 C 
ATOM      9  O   UNL     1      51.723   4.039  18.641  0.00  0.00    +0.000 OA
ATOM     10  N   UNL     1      51.907   6.293  18.181  0.00  0.00    +0.000 N 
BRANCH   8  16
ATOM     11  C   UNL     1      48.678   4.607  17.761  0.00  0.00    +0.000 A 
ATOM     12  C   UNL     1      47.358   5.039  17.990  0.00  0.00    +0.000 A 
ATOM     13  C   UNL     1      47.008   5.781  19.124  0.00  0.00    +0.000 A 
ATOM     14  C   UNL     1      47.968   6.057  20.081  0.00  0.00    +0.000 A 
ATOM     15  C   UNL     1      49.292   5.724  19.817  0.00  0.00    +0.000 A 
ATOM     16  C   UNL     1      49.683   5.087  18.609  0.00  0.00    +0.000 A 
BRANCH  11  18
ATOM     17  C   UNL     1      47.895   2.830  16.362  0.00  0.00    +0.000 C 
ATOM     18  O   UNL     1      48.817   3.893  16.601  0.00  0.00    +0.000 OA
ENDBRANCH  11  18
ENDBRANCH   8  16
BRANCH  10  19
ATOM     19  C   UNL     1      53.395   6.205  18.195  0.00  0.00    +0.000 C 
ATOM     20  C   UNL     1      53.991   5.960  16.806  0.00  0.00    +0.000 C 
ATOM     21  C   UNL     1      54.108   7.396  18.862  0.00  0.00    +0.000 C 
ENDBRANCH  10  19
ENDBRANCH   7  10
ENDBRANCH   1   7
BRANCH   4  22
ATOM     22  C   UNL     1      48.131   9.078  13.150  0.00  0.00    +0.000 C 
BRANCH  22  23
ATOM     23  N   UNL     1      46.892   8.357  12.932  0.00  0.00    +0.000 N 
ATOM     24  C   UNL     1      46.781   7.291  12.066  0.00  0.00    +0.000 C 
ATOM     25  O   UNL     1      47.727   6.879  11.422  0.00  0.00    +0.000 OA
ATOM     26  H   UNL     1      46.050   8.788  13.305  0.00  0.00    +0.000 HD
BRANCH  24  27
ATOM     27  C   UNL     1      45.453   6.616  11.989  0.00  0.00    +0.000 A 
ATOM     28  C   UNL     1      44.323   7.318  11.589  0.00  0.00    +0.000 A 
ATOM     29  S   UNL     1      42.932   6.342  11.397  0.00  0.00    +0.000 S 
ATOM     30  C   UNL     1      43.783   4.952  11.882  0.00  0.00    +0.000 A 
ATOM     31  N   UNL     1      43.180   3.723  11.875  0.00  0.00    +0.000 NA
ATOM     32  C   UNL     1      43.946   2.762  12.273  0.00  0.00    +0.000 A 
ATOM     33  N   UNL     1      45.236   2.915  12.707  0.00  0.00    +0.000 N 
ATOM     34  C   UNL     1      45.843   4.145  12.803  0.00  0.00    +0.000 A 
ATOM     35  O   UNL     1      46.935   4.267  13.351  0.00  0.00    +0.000 OA
ATOM     36  C   UNL     1      45.075   5.244  12.259  0.00  0.00    +0.000 A 
ATOM     37  H   UNL     1      45.759   2.135  13.077  0.00  0.00    +0.000 HD
ENDBRANCH  24  27
ENDBRANCH  22  23
ENDBRANCH   4  22
TORSDOF 8
ENDMDL
MODEL 5
REMARK VINA RESULT:    -5.239      2.276      4.788
REMARK INTER + INTRA:         -10.825
REMARK INTER:                  -8.287
REMARK INTRA:                  -2.538
REMARK UNBOUND:                -3.137
REMARK  Name = 
REMARK  11 active torsions:
REMARK  status: ('A' for Active; 'I' for Inactive)
REMARK    1  A    between atoms: C_1  and  O_2
REMARK    2  A    between atoms: O_2  and  C_3
REMARK    3  A    between atoms: C_8  and  C_9
REMARK    4  A    between atoms: N_11  and  C_12
REMARK    5  A    between atoms: N_11  and  C_33
REMARK    6  A    between atoms: C_12  and  C_13
REMARK    7  A    between atoms: C_16  and  C_17
REMARK    8  A    between atoms: C_17  and  N_18
REMARK    9  A    between atoms: C_19  and  C_21
REMARK   10  A    between atoms: C_33  and  C_34
REMARK   11  A    between atoms: C_33  and  C_35
REMARK                            x       y       z     vdW  Elec       q    Type
REMARK                         _______ _______ _______ _____ _____    ______ ____
ROOT
ATOM      1  C   UNL     1      50.659   5.374  19.377  0.00  0.00    +0.000 A 
ATOM      2  C   UNL     1      49.595   4.749  20.046  0.00  0.00    +0.000 A 
ATOM      3  C   UNL     1      48.533   4.141  19.339  0.00  0.00    +0.000 A 
ATOM      4  C   UNL     1      48.499   4.137  17.937  0.00  0.00    +0.000 A 
ATOM      5  C   UNL     1      49.589   4.716  17.268  0.00  0.00    +0.000 A 
ATOM      6  C   UNL     1      50.649   5.322  17.974  0.00  0.00    +0.000 A 
ENDROOT
BRANCH   1   7
ATOM      7  C   UNL     1      51.665   6.243  20.123  0.00  0.00    +0.000 C 
BRANCH   7  10
ATOM      8  C   UNL     1      51.129   8.684  19.545  0.00  0.00    +0.000 C 
ATOM      9  O   UNL     1      51.502   9.779  19.109  0.00  0.00    +0.000 OA
ATOM     10  N   UNL     1      52.003   7.580  19.600  0.00  0.00    +0.000 N 
BRANCH   8  16
ATOM     11  C   UNL     1      48.581   8.496  18.949  0.00  0.00    +0.000 A 
ATOM     12  C   UNL     1      47.302   8.835  19.430  0.00  0.00    +0.000 A 
ATOM     13  C   UNL     1      47.067   9.109  20.782  0.00  0.00    +0.000 A 
ATOM     14  C   UNL     1      48.103   8.993  21.690  0.00  0.00    +0.000 A 
ATOM     15  C   UNL     1      49.390   8.759  21.214  0.00  0.00    +0.000 A 
ATOM     16  C   UNL     1      49.665   8.610  19.828  0.00  0.00    +0.000 A 
BRANCH  11  18
ATOM     17  C   UNL     1      48.620   9.394  16.731  0.00  0.00    +0.000 C 
ATOM     18  O   UNL     1      48.606   8.262  17.601  0.00  0.00    +0.000 OA
ENDBRANCH  11  18
ENDBRANCH   8  16
BRANCH  10  19
ATOM     19  C   UNL     1      53.402   7.760  19.118  0.00  0.00    +0.000 C 
ATOM     20  C   UNL     1      54.396   8.019  20.254  0.00  0.00    +0.000 C 
ATOM     21  C   UNL     1      53.929   6.627  18.218  0.00  0.00    +0.000 C 
ENDBRANCH  10  19
ENDBRANCH   7  10
ENDBRANCH   1   7
BRANCH   4  22
ATOM     22  C   UNL     1      47.315   3.570  17.162  0.00  0.00    +0.000 C 
BRANCH  22  23
ATOM     23  N   UNL     1      46.858   4.458  16.112  0.00  0.00    +0.000 N 
ATOM     24  C   UNL     1      46.948   4.152  14.771  0.00  0.00    +0.000 C 
ATOM     25  O   UNL     1      47.420   3.104  14.377  0.00  0.00    +0.000 OA
ATOM     26  H   UNL     1      46.635   5.409  16.394  0.00  0.00    +0.000 HD
BRANCH  24  27
ATOM     27  C   UNL     1      46.385   5.146  13.811  0.00  0.00    +0.000 A 
ATOM     28  C   UNL     1      45.158   4.926  13.200  0.00  0.00    +0.000 A 
ATOM     29  S   UNL     1      44.599   6.247  12.269  0.00  0.00    +0.000 S 
ATOM     30  C   UNL     1      46.001   7.145  12.617  0.00  0.00    +0.000 A 
ATOM     31  N   UNL     1      46.138   8.431  12.170  0.00  0.00    +0.000 NA
ATOM     32  C   UNL     1      47.255   8.986  12.506  0.00  0.00    +0.000 A 
ATOM     33  N   UNL     1      48.256   8.371  13.210  0.00  0.00    +0.000 N 
ATOM     34  C   UNL     1      48.183   7.056  13.603  0.00  0.00    +0.000 A 
ATOM     35  O   UNL     1      49.160   6.487  14.083  0.00  0.00    +0.000 OA
ATOM     36  C   UNL     1      46.906   6.420  13.359  0.00  0.00    +0.000 A 
ATOM     37  H   UNL     1      49.137   8.833  13.377  0.00  0.00    +0.000 HD
ENDBRANCH  24  27
ENDBRANCH  22  23
ENDBRANCH   4  22
TORSDOF 8
ENDMDL
MODEL 6
REMARK VINA RESULT:    -5.212      5.029      8.208
REMARK INTER + INTRA:         -10.786
REMARK INTER:                  -7.878
REMARK INTRA:                  -2.909
REMARK UNBOUND:                -3.137
REMARK  Name = 
REMARK  11 active torsions:
REMARK  status: ('A' for Active; 'I' for Inactive)
REMARK    1  A    between atoms: C_1  and  O_2
REMARK    2  A    between atoms: O_2  and  C_3
REMARK    3  A    between atoms: C_8  and  C_9
REMARK    4  A    between atoms: N_11  and  C_12
REMARK    5  A    between atoms: N_11  and  C_33
REMARK    6  A    between atoms: C_12  and  C_13
REMARK    7  A    between atoms: C_16  and  C_17
REMARK    8  A    between atoms: C_17  and  N_18
REMARK    9  A    between atoms: C_19  and  C_21
REMARK   10  A    between atoms: C_33  and  C_34
REMARK   11  A    between atoms: C_33  and  C_35
REMARK                            x       y       z     vdW  Elec       q    Type
REMARK                         _______ _______ _______ _____ _____    ______ ____
ROOT
ATOM      1  C   UNL     1      52.059   8.403  11.353  0.00  0.00    +0.000 A 
ATOM      2  C   UNL     1      51.818   8.725  12.698  0.00  0.00    +0.000 A 
ATOM      3  C   UNL     1      50.613   8.361  13.340  0.00  0.00    +0.000 A 
ATOM      4  C   UNL     1      49.607   7.660  12.659  0.00  0.00    +0.000 A 
ATOM      5  C   UNL     1      49.869   7.294  11.329  0.00  0.00    +0.000 A 
ATOM      6  C   UNL     1      51.073   7.657  10.690  0.00  0.00    +0.000 A 
ENDROOT
BRANCH   1   7
ATOM      7  C   UNL     1      53.233   9.008  10.591  0.00  0.00    +0.000 C 
BRANCH   7  10
ATOM      8  C   UNL     1      52.224  10.942   9.240  0.00  0.00    +0.000 C 
ATOM      9  O   UNL     1      52.084  11.521   8.157  0.00  0.00    +0.000 OA
ATOM     10  N   UNL     1      52.984   9.759   9.346  0.00  0.00    +0.000 N 
BRANCH   8  16
ATOM     11  C   UNL     1      51.768  12.241  11.472  0.00  0.00    +0.000 A 
ATOM     12  C   UNL     1      50.859  12.317  12.546  0.00  0.00    +0.000 A 
ATOM     13  C   UNL     1      49.551  11.832  12.444  0.00  0.00    +0.000 A 
ATOM     14  C   UNL     1      49.108  11.311  11.241  0.00  0.00    +0.000 A 
ATOM     15  C   UNL     1      50.024  11.138  10.209  0.00  0.00    +0.000 A 
ATOM     16  C   UNL     1      51.391  11.505  10.343  0.00  0.00    +0.000 A 
BRANCH  11  18
ATOM     17  C   UNL     1      53.841  12.035  12.650  0.00  0.00    +0.000 C 
ATOM     18  O   UNL     1      52.995  12.771  11.767  0.00  0.00    +0.000 OA
ENDBRANCH  11  18
ENDBRANCH   8  16
BRANCH  10  19
ATOM     19  C   UNL     1      53.624   9.216   8.114  0.00  0.00    +0.000 C 
ATOM     20  C   UNL     1      55.133   9.471   8.063  0.00  0.00    +0.000 C 
ATOM     21  C   UNL     1      53.340   7.727   7.840  0.00  0.00    +0.000 C 
ENDBRANCH  10  19
ENDBRANCH   7  10
ENDBRANCH   1   7
BRANCH   4  22
ATOM     22  C   UNL     1      48.265   7.344  13.309  0.00  0.00    +0.000 C 
BRANCH  22  23
ATOM     23  N   UNL     1      47.468   6.421  12.525  0.00  0.00    +0.000 N 
ATOM     24  C   UNL     1      46.346   6.801  11.821  0.00  0.00    +0.000 C 
ATOM     25  O   UNL     1      45.948   7.950  11.809  0.00  0.00    +0.000 OA
ATOM     26  H   UNL     1      47.660   5.432  12.664  0.00  0.00    +0.000 HD
BRANCH  24  27
ATOM     27  C   UNL     1      45.661   5.747  11.017  0.00  0.00    +0.000 A 
ATOM     28  C   UNL     1      45.861   5.658   9.646  0.00  0.00    +0.000 A 
ATOM     29  S   UNL     1      45.132   4.288   8.926  0.00  0.00    +0.000 S 
ATOM     30  C   UNL     1      44.489   3.787  10.418  0.00  0.00    +0.000 A 
ATOM     31  N   UNL     1      43.794   2.614  10.523  0.00  0.00    +0.000 NA
ATOM     32  C   UNL     1      43.361   2.366  11.715  0.00  0.00    +0.000 A 
ATOM     33  N   UNL     1      43.526   3.190  12.797  0.00  0.00    +0.000 N 
ATOM     34  C   UNL     1      44.149   4.412  12.707  0.00  0.00    +0.000 A 
ATOM     35  O   UNL     1      44.133   5.197  13.651  0.00  0.00    +0.000 OA
ATOM     36  C   UNL     1      44.758   4.690  11.423  0.00  0.00    +0.000 A 
ATOM     37  H   UNL     1      43.100   2.976  13.686  0.00  0.00    +0.000 HD
ENDBRANCH  24  27
ENDBRANCH  22  23
ENDBRANCH   4  22
TORSDOF 8
ENDMDL
MODEL 7
REMARK VINA RESULT:    -4.991      2.261      4.348
REMARK INTER + INTRA:         -10.462
REMARK INTER:                  -9.013
REMARK INTRA:                  -1.449
REMARK UNBOUND:                -3.137
REMARK  Name = 
REMARK  11 active torsions:
REMARK  status: ('A' for Active; 'I' for Inactive)
REMARK    1  A    between atoms: C_1  and  O_2
REMARK    2  A    between atoms: O_2  and  C_3
REMARK    3  A    between atoms: C_8  and  C_9
REMARK    4  A    between atoms: N_11  and  C_12
REMARK    5  A    between atoms: N_11  and  C_33
REMARK    6  A    between atoms: C_12  and  C_13
REMARK    7  A    between atoms: C_16  and  C_17
REMARK    8  A    between atoms: C_17  and  N_18
REMARK    9  A    between atoms: C_19  and  C_21
REMARK   10  A    between atoms: C_33  and  C_34
REMARK   11  A    between atoms: C_33  and  C_35
REMARK                            x       y       z     vdW  Elec       q    Type
REMARK                         _______ _______ _______ _____ _____    ______ ____
ROOT
ATOM      1  C   UNL     1      49.843   5.648  19.689  0.00  0.00    +0.000 A 
ATOM      2  C   UNL     1      49.216   4.410  19.899  0.00  0.00    +0.000 A 
ATOM      3  C   UNL     1      48.529   3.743  18.859  0.00  0.00    +0.000 A 
ATOM      4  C   UNL     1      48.446   4.293  17.572  0.00  0.00    +0.000 A 
ATOM      5  C   UNL     1      49.116   5.507  17.348  0.00  0.00    +0.000 A 
ATOM      6  C   UNL     1      49.802   6.170  18.387  0.00  0.00    +0.000 A 
ENDROOT
BRANCH   1   7
ATOM      7  C   UNL     1      50.360   6.483  20.855  0.00  0.00    +0.000 C 
BRANCH   7  10
ATOM      8  C   UNL     1      50.330   9.028  20.528  0.00  0.00    +0.000 C 
ATOM      9  O   UNL     1      50.947  10.079  20.323  0.00  0.00    +0.000 OA
ATOM     10  N   UNL     1      50.997   7.787  20.591  0.00  0.00    +0.000 N 
BRANCH   8  16
ATOM     11  C   UNL     1      47.957   9.325  19.452  0.00  0.00    +0.000 A 
ATOM     12  C   UNL     1      46.674   9.839  19.719  0.00  0.00    +0.000 A 
ATOM     13  C   UNL     1      46.216  10.043  21.026  0.00  0.00    +0.000 A 
ATOM     14  C   UNL     1      47.018   9.681  22.094  0.00  0.00    +0.000 A 
ATOM     15  C   UNL     1      48.323   9.269  21.842  0.00  0.00    +0.000 A 
ATOM     16  C   UNL     1      48.846   9.183  20.524  0.00  0.00    +0.000 A 
BRANCH  11  18
ATOM     17  C   UNL     1      48.801  10.310  17.440  0.00  0.00    +0.000 C 
ATOM     18  O   UNL     1      48.217   9.195  18.114  0.00  0.00    +0.000 OA
ENDBRANCH  11  18
ENDBRANCH   8  16
BRANCH  10  19
ATOM     19  C   UNL     1      52.476   7.768  20.405  0.00  0.00    +0.000 C 
ATOM     20  C   UNL     1      53.241   8.205  21.657  0.00  0.00    +0.000 C 
ATOM     21  C   UNL     1      53.047   6.434  19.888  0.00  0.00    +0.000 C 
ENDBRANCH  10  19
ENDBRANCH   7  10
ENDBRANCH   1   7
BRANCH   4  22
ATOM     22  C   UNL     1      47.629   3.634  16.466  0.00  0.00    +0.000 C 
BRANCH  22  23
ATOM     23  N   UNL     1      47.033   4.597  15.561  0.00  0.00    +0.000 N 
ATOM     24  C   UNL     1      46.744   4.318  14.244  0.00  0.00    +0.000 C 
ATOM     25  O   UNL     1      46.971   3.232  13.747  0.00  0.00    +0.000 OA
ATOM     26  H   UNL     1      47.005   5.561  15.887  0.00  0.00    +0.000 HD
BRANCH  24  27
ATOM     27  C   UNL     1      46.082   5.396  13.452  0.00  0.00    +0.000 A 
ATOM     28  C   UNL     1      46.745   6.584  13.178  0.00  0.00    +0.000 A 
ATOM     29  S   UNL     1      45.896   7.625  12.119  0.00  0.00    +0.000 S 
ATOM     30  C   UNL     1      44.592   6.539  12.023  0.00  0.00    +0.000 A 
ATOM     31  N   UNL     1      43.526   6.795  11.204  0.00  0.00    +0.000 NA
ATOM     32  C   UNL     1      42.609   5.885  11.238  0.00  0.00    +0.000 A 
ATOM     33  N   UNL     1      42.639   4.770  12.032  0.00  0.00    +0.000 N 
ATOM     34  C   UNL     1      43.656   4.525  12.924  0.00  0.00    +0.000 A 
ATOM     35  O   UNL     1      43.573   3.609  13.737  0.00  0.00    +0.000 OA
ATOM     36  C   UNL     1      44.768   5.448  12.844  0.00  0.00    +0.000 A 
ATOM     37  H   UNL     1      41.857   4.133  12.069  0.00  0.00    +0.000 HD
ENDBRANCH  24  27
ENDBRANCH  22  23
ENDBRANCH   4  22
TORSDOF 8
ENDMDL
MODEL 8
REMARK VINA RESULT:    -4.987      2.461      4.646
REMARK INTER + INTRA:         -10.456
REMARK INTER:                  -7.981
REMARK INTRA:                  -2.475
REMARK UNBOUND:                -3.137
REMARK  Name = 
REMARK  11 active torsions:
REMARK  status: ('A' for Active; 'I' for Inactive)
REMARK    1  A    between atoms: C_1  and  O_2
REMARK    2  A    between atoms: O_2  and  C_3
REMARK    3  A    between atoms: C_8  and  C_9
REMARK    4  A    between atoms: N_11  and  C_12
REMARK    5  A    between atoms: N_11  and  C_33
REMARK    6  A    between atoms: C_12  and  C_13
REMARK    7  A    between atoms: C_16  and  C_17
REMARK    8  A    between atoms: C_17  and  N_18
REMARK    9  A    between atoms: C_19  and  C_21
REMARK   10  A    between atoms: C_33  and  C_34
REMARK   11  A    between atoms: C_33  and  C_35
REMARK                            x       y       z     vdW  Elec       q    Type
REMARK                         _______ _______ _______ _____ _____    ______ ____
ROOT
ATOM      1  C   UNL     1      49.483   7.207  18.855  0.00  0.00    +0.000 A 
ATOM      2  C   UNL     1      48.505   6.425  19.492  0.00  0.00    +0.000 A 
ATOM      3  C   UNL     1      47.829   5.389  18.810  0.00  0.00    +0.000 A 
ATOM      4  C   UNL     1      48.108   5.097  17.467  0.00  0.00    +0.000 A 
ATOM      5  C   UNL     1      49.121   5.844  16.845  0.00  0.00    +0.000 A 
ATOM      6  C   UNL     1      49.796   6.878  17.527  0.00  0.00    +0.000 A 
ENDROOT
BRANCH   1   7
ATOM      7  C   UNL     1      50.027   8.477  19.500  0.00  0.00    +0.000 C 
BRANCH   7  10
ATOM      8  C   UNL     1      49.396  10.598  18.203  0.00  0.00    +0.000 C 
ATOM      9  O   UNL     1      48.736  11.641  18.130  0.00  0.00    +0.000 OA
ATOM     10  N   UNL     1      49.304   9.751  19.326  0.00  0.00    +0.000 N 
BRANCH   8  16
ATOM     11  C   UNL     1      50.204  10.093  15.760  0.00  0.00    +0.000 A 
ATOM     12  C   UNL     1      51.314   9.622  15.033  0.00  0.00    +0.000 A 
ATOM     13  C   UNL     1      52.610   9.649  15.563  0.00  0.00    +0.000 A 
ATOM     14  C   UNL     1      52.825  10.201  16.812  0.00  0.00    +0.000 A 
ATOM     15  C   UNL     1      51.725  10.575  17.578  0.00  0.00    +0.000 A 
ATOM     16  C   UNL     1      50.393  10.431  17.105  0.00  0.00    +0.000 A 
BRANCH  11  18
ATOM     17  C   UNL     1      48.995  10.472  13.729  0.00  0.00    +0.000 C 
ATOM     18  O   UNL     1      49.025   9.986  15.071  0.00  0.00    +0.000 OA
ENDBRANCH  11  18
ENDBRANCH   8  16
BRANCH  10  19
ATOM     19  C   UNL     1      48.385  10.139  20.433  0.00  0.00    +0.000 C 
ATOM     20  C   UNL     1      46.947   9.662  20.210  0.00  0.00    +0.000 C 
ATOM     21  C   UNL     1      48.855   9.726  21.841  0.00  0.00    +0.000 C 
ENDBRANCH  10  19
ENDBRANCH   7  10
ENDBRANCH   1   7
BRANCH   4  22
ATOM     22  C   UNL     1      47.321   4.047  16.692  0.00  0.00    +0.000 C 
BRANCH  22  23
ATOM     23  N   UNL     1      46.662   4.593  15.521  0.00  0.00    +0.000 N 
ATOM     24  C   UNL     1      46.774   4.040  14.264  0.00  0.00    +0.000 C 
ATOM     25  O   UNL     1      47.439   3.045  14.052  0.00  0.00    +0.000 OA
ATOM     26  H   UNL     1      46.258   5.521  15.626  0.00  0.00    +0.000 HD
BRANCH  24  27
ATOM     27  C   UNL     1      45.994   4.686  13.169  0.00  0.00    +0.000 A 
ATOM     28  C   UNL     1      45.165   3.932  12.348  0.00  0.00    +0.000 A 
ATOM     29  S   UNL     1      44.225   4.865  11.266  0.00  0.00    +0.000 S 
ATOM     30  C   UNL     1      44.924   6.309  11.830  0.00  0.00    +0.000 A 
ATOM     31  N   UNL     1      44.504   7.522  11.357  0.00  0.00    +0.000 NA
ATOM     32  C   UNL     1      45.128   8.530  11.871  0.00  0.00    +0.000 A 
ATOM     33  N   UNL     1      46.149   8.439  12.780  0.00  0.00    +0.000 N 
ATOM     34  C   UNL     1      46.648   7.235  13.213  0.00  0.00    +0.000 A 
ATOM     35  O   UNL     1      47.667   7.185  13.896  0.00  0.00    +0.000 OA
ATOM     36  C   UNL     1      45.909   6.074  12.763  0.00  0.00    +0.000 A 
ATOM     37  H   UNL     1      46.648   9.261  13.088  0.00  0.00    +0.000 HD
ENDBRANCH  24  27
ENDBRANCH  22  23
ENDBRANCH   4  22
TORSDOF 8
ENDMDL
MODEL 9
REMARK VINA RESULT:    -4.679      2.254      3.687
REMARK INTER + INTRA:         -10.005
REMARK INTER:                  -8.582
REMARK INTRA:                  -1.422
REMARK UNBOUND:                -3.137
REMARK  Name = 
REMARK  11 active torsions:
REMARK  status: ('A' for Active; 'I' for Inactive)
REMARK    1  A    between atoms: C_1  and  O_2
REMARK    2  A    between atoms: O_2  and  C_3
REMARK    3  A    between atoms: C_8  and  C_9
REMARK    4  A    between atoms: N_11  and  C_12
REMARK    5  A    between atoms: N_11  and  C_33
REMARK    6  A    between atoms: C_12  and  C_13
REMARK    7  A    between atoms: C_16  and  C_17
REMARK    8  A    between atoms: C_17  and  N_18
REMARK    9  A    between atoms: C_19  and  C_21
REMARK   10  A    between atoms: C_33  and  C_34
REMARK   11  A    between atoms: C_33  and  C_35
REMARK                            x       y       z     vdW  Elec       q    Type
REMARK                         _______ _______ _______ _____ _____    ______ ____
ROOT
ATOM      1  C   UNL     1      51.517   6.753  17.060  0.00  0.00    +0.000 A 
ATOM      2  C   UNL     1      52.377   7.248  16.066  0.00  0.00    +0.000 A 
ATOM      3  C   UNL     1      51.883   7.704  14.822  0.00  0.00    +0.000 A 
ATOM      4  C   UNL     1      50.511   7.682  14.531  0.00  0.00    +0.000 A 
ATOM      5  C   UNL     1      49.648   7.235  15.543  0.00  0.00    +0.000 A 
ATOM      6  C   UNL     1      50.141   6.781  16.784  0.00  0.00    +0.000 A 
ENDROOT
BRANCH   1   7
ATOM      7  C   UNL     1      52.058   6.031  18.288  0.00  0.00    +0.000 C 
BRANCH   7  10
ATOM      8  C   UNL     1      51.762   3.515  17.883  0.00  0.00    +0.000 C 
ATOM      9  O   UNL     1      52.265   2.390  17.772  0.00  0.00    +0.000 OA
ATOM     10  N   UNL     1      52.554   4.647  18.161  0.00  0.00    +0.000 N 
BRANCH   8  16
ATOM     11  C   UNL     1      49.360   3.957  18.840  0.00  0.00    +0.000 A 
ATOM     12  C   UNL     1      48.031   3.500  18.756  0.00  0.00    +0.000 A 
ATOM     13  C   UNL     1      47.567   2.773  17.654  0.00  0.00    +0.000 A 
ATOM     14  C   UNL     1      48.413   2.539  16.586  0.00  0.00    +0.000 A 
ATOM     15  C   UNL     1      49.753   2.896  16.701  0.00  0.00    +0.000 A 
ATOM     16  C   UNL     1      50.270   3.517  17.870  0.00  0.00    +0.000 A 
BRANCH  11  18
ATOM     17  C   UNL     1      48.517   4.958  20.843  0.00  0.00    +0.000 C 
ATOM     18  O   UNL     1      49.620   4.651  19.992  0.00  0.00    +0.000 OA
ENDBRANCH  11  18
ENDBRANCH   8  16
BRANCH  10  19
ATOM     19  C   UNL     1      54.025   4.462  18.319  0.00  0.00    +0.000 C 
ATOM     20  C   UNL     1      54.383   3.355  19.315  0.00  0.00    +0.000 C 
ATOM     21  C   UNL     1      54.796   4.244  17.003  0.00  0.00    +0.000 C 
ENDBRANCH  10  19
ENDBRANCH   7  10
ENDBRANCH   1   7
BRANCH   4  22
ATOM     22  C   UNL     1      49.973   8.081  13.161  0.00  0.00    +0.000 C 
BRANCH  22  23
ATOM     23  N   UNL     1      48.735   7.405  12.828  0.00  0.00    +0.000 N 
ATOM     24  C   UNL     1      47.491   7.954  13.049  0.00  0.00    +0.000 C 
ATOM     25  O   UNL     1      47.348   9.056  13.542  0.00  0.00    +0.000 OA
ATOM     26  H   UNL     1      48.812   6.418  12.594  0.00  0.00    +0.000 HD
BRANCH  24  27
ATOM     27  C   UNL     1      46.311   7.157  12.604  0.00  0.00    +0.000 A 
ATOM     28  C   UNL     1      45.272   7.758  11.906  0.00  0.00    +0.000 A 
ATOM     29  S   UNL     1      44.094   6.658  11.332  0.00  0.00    +0.000 S 
ATOM     30  C   UNL     1      44.912   5.343  12.034  0.00  0.00    +0.000 A 
ATOM     31  N   UNL     1      44.462   4.063  11.858  0.00  0.00    +0.000 NA
ATOM     32  C   UNL     1      45.180   3.169  12.453  0.00  0.00    +0.000 A 
ATOM     33  N   UNL     1      46.277   3.433  13.229  0.00  0.00    +0.000 N 
ATOM     34  C   UNL     1      46.706   4.712  13.492  0.00  0.00    +0.000 A 
ATOM     35  O   UNL     1      47.586   4.923  14.322  0.00  0.00    +0.000 OA
ATOM     36  C   UNL     1      46.013   5.748  12.756  0.00  0.00    +0.000 A 
ATOM     37  H   UNL     1      46.752   2.697  13.729  0.00  0.00    +0.000 HD
ENDBRANCH  24  27
ENDBRANCH  22  23
ENDBRANCH   4  22
TORSDOF 8
ENDMDL
