MODEL 1
REMARK VINA RESULT:    -8.492      0.000      0.000
REMARK INTER + INTRA:         -12.660
REMARK INTER:                 -11.471
REMARK INTRA:                  -1.189
REMARK UNBOUND:                -1.189
REMARK  Name = 
REMARK  7 active torsions:
REMARK  status: ('A' for Active; 'I' for Inactive)
REMARK    1  A    between atoms: C_1  and  C_2
REMARK    2  A    between atoms: C_2  and  N_3
REMARK    3  A    between atoms: C_2  and  C_16
REMARK    4  A    between atoms: C_4  and  C_6
REMARK    5  A    between atoms: C_19  and  N_20
REMARK    6  A    between atoms: N_20  and  C_21
REMARK    7  A    between atoms: C_21  and  C_22
REMARK                            x       y       z     vdW  Elec       q    Type
REMARK                         _______ _______ _______ _____ _____    ______ ____
ROOT
ATOM      1  C   UNL     1      43.725   2.850  11.153  0.00  0.00    +0.000 C 
ATOM      2  C   UNL     1      44.107   3.858  10.066  0.00  0.00    +0.000 C 
ENDROOT
BRANCH   2   3
ATOM      3  C   UNL     1      45.000   3.242   9.003  0.00  0.00    +0.000 A 
ATOM      4  C   UNL     1      45.620   4.058   8.048  0.00  0.00    +0.000 A 
ATOM      5  C   UNL     1      46.528   3.523   7.126  0.00  0.00    +0.000 A 
ATOM      6  C   UNL     1      46.863   2.167   7.154  0.00  0.00    +0.000 A 
ATOM      7  C   UNL     1      46.178   1.339   8.048  0.00  0.00    +0.000 A 
ATOM      8  C   UNL     1      45.275   1.868   8.975  0.00  0.00    +0.000 A 
BRANCH   6   9
ATOM      9  N   UNL     1      47.782   1.568   6.283  0.00  0.00    +0.000 N 
ATOM     10  H   UNL     1      47.800   0.561   6.432  0.00  0.00    +0.000 HD
BRANCH   9  11
ATOM     11  C   UNL     1      47.687   1.904   4.866  0.00  0.00    +0.000 C 
BRANCH  11  12
ATOM     12  C   UNL     1      46.934   0.840   4.109  0.00  0.00    +0.000 A 
ATOM     13  C   UNL     1      46.056   1.177   3.073  0.00  0.00    +0.000 A 
ATOM     14  C   UNL     1      45.431   0.174   2.336  0.00  0.00    +0.000 A 
ATOM     15  C   UNL     1      45.710  -1.145   2.652  0.00  0.00    +0.000 A 
ATOM     16  N   UNL     1      46.564  -1.515   3.629  0.00  0.00    +0.000 NA
ATOM     17  C   UNL     1      47.160  -0.518   4.326  0.00  0.00    +0.000 A 
ENDBRANCH  11  12
ENDBRANCH   9  11
ENDBRANCH   6   9
ENDBRANCH   2   3
BRANCH   2  18
ATOM     18  N   UNL     1      44.752   5.030  10.636  0.00  0.00    +0.000 N 
ATOM     19  C   UNL     1      44.046   6.060  11.200  0.00  0.00    +0.000 C 
ATOM     20  O   UNL     1      42.819   6.052  11.257  0.00  0.00    +0.000 OA
ATOM     21  H   UNL     1      45.755   5.120  10.503  0.00  0.00    +0.000 HD
BRANCH  19  22
ATOM     22  C   UNL     1      44.828   7.163  11.781  0.00  0.00    +0.000 A 
ATOM     23  C   UNL     1      44.570   8.467  11.374  0.00  0.00    +0.000 A 
ATOM     24  S   UNL     1      45.551   9.632  12.139  0.00  0.00    +0.000 S 
ATOM     25  C   UNL     1      46.386   8.434  13.011  0.00  0.00    +0.000 A 
ATOM     26  N   UNL     1      47.407   8.765  13.847  0.00  0.00    +0.000 NA
ATOM     27  C   UNL     1      47.982   7.756  14.413  0.00  0.00    +0.000 A 
ATOM     28  N   UNL     1      47.618   6.446  14.228  0.00  0.00    +0.000 N 
ATOM     29  C   UNL     1      46.552   6.071  13.447  0.00  0.00    +0.000 A 
ATOM     30  O   UNL     1      46.182   4.905  13.391  0.00  0.00    +0.000 OA
ATOM     31  C   UNL     1      45.901   7.164  12.746  0.00  0.00    +0.000 A 
ATOM     32  H   UNL     1      48.088   5.704  14.724  0.00  0.00    +0.000 HD
ENDBRANCH  19  22
ENDBRANCH   2  18
TORSDOF 6
ENDMDL
MODEL 2
REMARK VINA RESULT:    -8.331      1.566      2.004
REMARK INTER + INTRA:         -12.443
REMARK INTER:                 -11.273
REMARK INTRA:                  -1.170
REMARK UNBOUND:                -1.189
REMARK  Name = 
REMARK  7 active torsions:
REMARK  status: ('A' for Active; 'I' for Inactive)
REMARK    1  A    between atoms: C_1  and  C_2
REMARK    2  A    between atoms: C_2  and  N_3
REMARK    3  A    between atoms: C_2  and  C_16
REMARK    4  A    between atoms: C_4  and  C_6
REMARK    5  A    between atoms: C_19  and  N_20
REMARK    6  A    between atoms: N_20  and  C_21
REMARK    7  A    between atoms: C_21  and  C_22
REMARK                            x       y       z     vdW  Elec       q    Type
REMARK                         _______ _______ _______ _____ _____    ______ ____
ROOT
ATOM      1  C   UNL     1      43.547   3.171  10.987  0.00  0.00    +0.000 C 
ATOM      2  C   UNL     1      44.561   4.075  10.281  0.00  0.00    +0.000 C 
ENDROOT
BRANCH   2   3
ATOM      3  C   UNL     1      45.238   3.375   9.116  0.00  0.00    +0.000 A 
ATOM      4  C   UNL     1      45.760   4.125   8.054  0.00  0.00    +0.000 A 
ATOM      5  C   UNL     1      46.479   3.507   7.022  0.00  0.00    +0.000 A 
ATOM      6  C   UNL     1      46.721   2.131   7.042  0.00  0.00    +0.000 A 
ATOM      7  C   UNL     1      46.125   1.373   8.054  0.00  0.00    +0.000 A 
ATOM      8  C   UNL     1      45.411   1.984   9.090  0.00  0.00    +0.000 A 
BRANCH   6   9
ATOM      9  N   UNL     1      47.454   1.450   6.062  0.00  0.00    +0.000 N 
ATOM     10  H   UNL     1      47.380   0.444   6.204  0.00  0.00    +0.000 HD
BRANCH   9  11
ATOM     11  C   UNL     1      47.221   1.817   4.668  0.00  0.00    +0.000 C 
BRANCH  11  12
ATOM     12  C   UNL     1      46.752   0.628   3.869  0.00  0.00    +0.000 A 
ATOM     13  C   UNL     1      47.078  -0.676   4.259  0.00  0.00    +0.000 A 
ATOM     14  C   UNL     1      46.569  -1.761   3.551  0.00  0.00    +0.000 A 
ATOM     15  C   UNL     1      45.737  -1.512   2.472  0.00  0.00    +0.000 A 
ATOM     16  N   UNL     1      45.382  -0.273   2.074  0.00  0.00    +0.000 NA
ATOM     17  C   UNL     1      45.889   0.763   2.784  0.00  0.00    +0.000 A 
ENDBRANCH  11  12
ENDBRANCH   9  11
ENDBRANCH   6   9
ENDBRANCH   2   3
BRANCH   2  18
ATOM     18  N   UNL     1      45.564   4.570  11.212  0.00  0.00    +0.000 N 
ATOM     19  C   UNL     1      45.828   5.905  11.371  0.00  0.00    +0.000 C 
ATOM     20  O   UNL     1      45.228   6.766  10.734  0.00  0.00    +0.000 OA
ATOM     21  H   UNL     1      46.154   3.881  11.668  0.00  0.00    +0.000 HD
BRANCH  19  22
ATOM     22  C   UNL     1      46.835   6.268  12.380  0.00  0.00    +0.000 A 
ATOM     23  C   UNL     1      47.746   7.279  12.098  0.00  0.00    +0.000 A 
ATOM     24  S   UNL     1      48.843   7.587  13.366  0.00  0.00    +0.000 S 
ATOM     25  C   UNL     1      48.170   6.353  14.322  0.00  0.00    +0.000 A 
ATOM     26  N   UNL     1      48.683   6.061  15.547  0.00  0.00    +0.000 NA
ATOM     27  C   UNL     1      48.104   5.075  16.148  0.00  0.00    +0.000 A 
ATOM     28  N   UNL     1      47.049   4.363  15.638  0.00  0.00    +0.000 N 
ATOM     29  C   UNL     1      46.455   4.665  14.436  0.00  0.00    +0.000 A 
ATOM     30  O   UNL     1      45.444   4.084  14.061  0.00  0.00    +0.000 OA
ATOM     31  C   UNL     1      47.100   5.735  13.695  0.00  0.00    +0.000 A 
ATOM     32  H   UNL     1      46.620   3.621  16.171  0.00  0.00    +0.000 HD
ENDBRANCH  19  22
ENDBRANCH   2  18
TORSDOF 6
ENDMDL
MODEL 3
REMARK VINA RESULT:    -8.269      3.118      5.614
REMARK INTER + INTRA:         -12.359
REMARK INTER:                 -11.173
REMARK INTRA:                  -1.185
REMARK UNBOUND:                -1.189
REMARK  Name = 
REMARK  7 active torsions:
REMARK  status: ('A' for Active; 'I' for Inactive)
REMARK    1  A    between atoms: C_1  and  C_2
REMARK    2  A    between atoms: C_2  and  N_3
REMARK    3  A    between atoms: C_2  and  C_16
REMARK    4  A    between atoms: C_4  and  C_6
REMARK    5  A    between atoms: C_19  and  N_20
REMARK    6  A    between atoms: N_20  and  C_21
REMARK    7  A    between atoms: C_21  and  C_22
REMARK                            x       y       z     vdW  Elec       q    Type
REMARK                         _______ _______ _______ _____ _____    ______ ____
ROOT
ATOM      1  C   UNL     1      46.180   8.822  13.245  0.00  0.00    +0.000 C 
ATOM      2  C   UNL     1      47.066   7.579  13.121  0.00  0.00    +0.000 C 
ENDROOT
BRANCH   2   3
ATOM      3  C   UNL     1      46.420   6.498  12.273  0.00  0.00    +0.000 A 
ATOM      4  C   UNL     1      45.690   5.470  12.884  0.00  0.00    +0.000 A 
ATOM      5  C   UNL     1      45.000   4.524  12.116  0.00  0.00    +0.000 A 
ATOM      6  C   UNL     1      44.995   4.599  10.721  0.00  0.00    +0.000 A 
ATOM      7  C   UNL     1      45.794   5.572  10.112  0.00  0.00    +0.000 A 
ATOM      8  C   UNL     1      46.481   6.522  10.873  0.00  0.00    +0.000 A 
BRANCH   6   9
ATOM      9  N   UNL     1      44.306   3.708   9.890  0.00  0.00    +0.000 N 
ATOM     10  H   UNL     1      43.327   3.655  10.167  0.00  0.00    +0.000 HD
BRANCH   9  11
ATOM     11  C   UNL     1      44.449   3.881   8.447  0.00  0.00    +0.000 C 
BRANCH  11  12
ATOM     12  C   UNL     1      45.480   2.932   7.890  0.00  0.00    +0.000 A 
ATOM     13  C   UNL     1      46.340   3.328   6.860  0.00  0.00    +0.000 A 
ATOM     14  C   UNL     1      47.336   2.462   6.414  0.00  0.00    +0.000 A 
ATOM     15  C   UNL     1      47.451   1.223   7.022  0.00  0.00    +0.000 A 
ATOM     16  N   UNL     1      46.657   0.810   8.031  0.00  0.00    +0.000 NA
ATOM     17  C   UNL     1      45.699   1.673   8.445  0.00  0.00    +0.000 A 
ENDBRANCH  11  12
ENDBRANCH   9  11
ENDBRANCH   6   9
ENDBRANCH   2   3
BRANCH   2  18
ATOM     18  N   UNL     1      47.410   7.044  14.430  0.00  0.00    +0.000 N 
ATOM     19  C   UNL     1      48.702   6.779  14.802  0.00  0.00    +0.000 C 
ATOM     20  O   UNL     1      49.650   6.980  14.048  0.00  0.00    +0.000 OA
ATOM     21  H   UNL     1      46.643   6.762  15.032  0.00  0.00    +0.000 HD
BRANCH  19  22
ATOM     22  C   UNL     1      48.910   6.283  16.172  0.00  0.00    +0.000 A 
ATOM     23  C   UNL     1      49.589   7.080  17.086  0.00  0.00    +0.000 A 
ATOM     24  S   UNL     1      49.746   6.373  18.629  0.00  0.00    +0.000 S 
ATOM     25  C   UNL     1      48.950   4.959  18.122  0.00  0.00    +0.000 A 
ATOM     26  N   UNL     1      48.780   3.911  18.972  0.00  0.00    +0.000 NA
ATOM     27  C   UNL     1      48.197   2.885  18.446  0.00  0.00    +0.000 A 
ATOM     28  N   UNL     1      47.758   2.818  17.148  0.00  0.00    +0.000 N 
ATOM     29  C   UNL     1      47.848   3.875  16.275  0.00  0.00    +0.000 A 
ATOM     30  O   UNL     1      47.345   3.824  15.159  0.00  0.00    +0.000 OA
ATOM     31  C   UNL     1      48.540   5.038  16.801  0.00  0.00    +0.000 A 
ATOM     32  H   UNL     1      47.282   1.997  16.805  0.00  0.00    +0.000 HD
ENDBRANCH  19  22
ENDBRANCH   2  18
TORSDOF 6
ENDMDL
MODEL 4
REMARK VINA RESULT:    -7.994      3.795      6.432
REMARK INTER + INTRA:         -11.987
REMARK INTER:                 -10.878
REMARK INTRA:                  -1.109
REMARK UNBOUND:                -1.189
REMARK  Name = 
REMARK  7 active torsions:
REMARK  status: ('A' for Active; 'I' for Inactive)
REMARK    1  A    between atoms: C_1  and  C_2
REMARK    2  A    between atoms: C_2  and  N_3
REMARK    3  A    between atoms: C_2  and  C_16
REMARK    4  A    between atoms: C_4  and  C_6
REMARK    5  A    between atoms: C_19  and  N_20
REMARK    6  A    between atoms: N_20  and  C_21
REMARK    7  A    between atoms: C_21  and  C_22
REMARK                            x       y       z     vdW  Elec       q    Type
REMARK                         _______ _______ _______ _____ _____    ______ ____
ROOT
ATOM      1  C   UNL     1      48.900   7.813  13.216  0.00  0.00    +0.000 C 
ATOM      2  C   UNL     1      48.464   6.488  13.848  0.00  0.00    +0.000 C 
ENDROOT
BRANCH   2   3
ATOM      3  C   UNL     1      47.266   5.881  13.137  0.00  0.00    +0.000 A 
ATOM      4  C   UNL     1      46.765   6.479  11.974  0.00  0.00    +0.000 A 
ATOM      5  C   UNL     1      45.729   5.878  11.246  0.00  0.00    +0.000 A 
ATOM      6  C   UNL     1      45.192   4.651  11.644  0.00  0.00    +0.000 A 
ATOM      7  C   UNL     1      45.633   4.100  12.851  0.00  0.00    +0.000 A 
ATOM      8  C   UNL     1      46.669   4.692  13.579  0.00  0.00    +0.000 A 
BRANCH   6   9
ATOM      9  N   UNL     1      44.177   3.979  10.951  0.00  0.00    +0.000 N 
ATOM     10  H   UNL     1      43.286   4.104  11.427  0.00  0.00    +0.000 HD
BRANCH   9  11
ATOM     11  C   UNL     1      44.063   4.224   9.516  0.00  0.00    +0.000 C 
BRANCH  11  12
ATOM     12  C   UNL     1      45.027   3.360   8.743  0.00  0.00    +0.000 A 
ATOM     13  C   UNL     1      45.920   3.922   7.824  0.00  0.00    +0.000 A 
ATOM     14  C   UNL     1      46.854   3.116   7.180  0.00  0.00    +0.000 A 
ATOM     15  C   UNL     1      46.875   1.764   7.481  0.00  0.00    +0.000 A 
ATOM     16  N   UNL     1      46.046   1.184   8.373  0.00  0.00    +0.000 NA
ATOM     17  C   UNL     1      45.151   1.994   8.987  0.00  0.00    +0.000 A 
ENDBRANCH  11  12
ENDBRANCH   9  11
ENDBRANCH   6   9
ENDBRANCH   2   3
BRANCH   2  18
ATOM     18  N   UNL     1      48.170   6.650  15.263  0.00  0.00    +0.000 N 
ATOM     19  C   UNL     1      49.114   6.468  16.239  0.00  0.00    +0.000 C 
ATOM     20  O   UNL     1      50.272   6.157  15.973  0.00  0.00    +0.000 OA
ATOM     21  H   UNL     1      47.199   6.795  15.522  0.00  0.00    +0.000 HD
BRANCH  19  22
ATOM     22  C   UNL     1      48.692   6.711  17.627  0.00  0.00    +0.000 A 
ATOM     23  C   UNL     1      48.323   7.995  18.010  0.00  0.00    +0.000 A 
ATOM     24  S   UNL     1      47.853   8.115  19.645  0.00  0.00    +0.000 S 
ATOM     25  C   UNL     1      48.166   6.465  19.912  0.00  0.00    +0.000 A 
ATOM     26  N   UNL     1      48.000   5.915  21.145  0.00  0.00    +0.000 NA
ATOM     27  C   UNL     1      48.314   4.664  21.218  0.00  0.00    +0.000 A 
ATOM     28  N   UNL     1      48.766   3.911  20.165  0.00  0.00    +0.000 N 
ATOM     29  C   UNL     1      48.885   4.407  18.890  0.00  0.00    +0.000 A 
ATOM     30  O   UNL     1      49.182   3.681  17.949  0.00  0.00    +0.000 OA
ATOM     31  C   UNL     1      48.592   5.824  18.761  0.00  0.00    +0.000 A 
ATOM     32  H   UNL     1      48.966   2.928  20.281  0.00  0.00    +0.000 HD
ENDBRANCH  19  22
ENDBRANCH   2  18
TORSDOF 6
ENDMDL
MODEL 5
REMARK VINA RESULT:    -7.681      3.842      6.539
REMARK INTER + INTRA:         -11.564
REMARK INTER:                 -10.276
REMARK INTRA:                  -1.288
REMARK UNBOUND:                -1.189
REMARK  Name = 
REMARK  7 active torsions:
REMARK  status: ('A' for Active; 'I' for Inactive)
REMARK    1  A    between atoms: C_1  and  C_2
REMARK    2  A    between atoms: C_2  and  N_3
REMARK    3  A    between atoms: C_2  and  C_16
REMARK    4  A    between atoms: C_4  and  C_6
REMARK    5  A    between atoms: C_19  and  N_20
REMARK    6  A    between atoms: N_20  and  C_21
REMARK    7  A    between atoms: C_21  and  C_22
REMARK                            x       y       z     vdW  Elec       q    Type
REMARK                         _______ _______ _______ _____ _____    ______ ____
ROOT
ATOM      1  C   UNL     1      48.515   7.980  13.686  0.00  0.00    +0.000 C 
ATOM      2  C   UNL     1      48.317   6.528  14.130  0.00  0.00    +0.000 C 
ENDROOT
BRANCH   2   3
ATOM      3  C   UNL     1      47.180   5.851  13.384  0.00  0.00    +0.000 A 
ATOM      4  C   UNL     1      46.586   6.487  12.287  0.00  0.00    +0.000 A 
ATOM      5  C   UNL     1      45.609   5.836  11.521  0.00  0.00    +0.000 A 
ATOM      6  C   UNL     1      45.225   4.525  11.814  0.00  0.00    +0.000 A 
ATOM      7  C   UNL     1      45.755   3.925  12.960  0.00  0.00    +0.000 A 
ATOM      8  C   UNL     1      46.734   4.567  13.725  0.00  0.00    +0.000 A 
BRANCH   6   9
ATOM      9  N   UNL     1      44.278   3.802  11.078  0.00  0.00    +0.000 N 
ATOM     10  H   UNL     1      43.381   3.807  11.560  0.00  0.00    +0.000 HD
BRANCH   9  11
ATOM     11  C   UNL     1      44.132   4.128   9.662  0.00  0.00    +0.000 C 
BRANCH  11  12
ATOM     12  C   UNL     1      45.063   3.295   8.818  0.00  0.00    +0.000 A 
ATOM     13  C   UNL     1      45.899   3.888   7.867  0.00  0.00    +0.000 A 
ATOM     14  C   UNL     1      46.806   3.108   7.154  0.00  0.00    +0.000 A 
ATOM     15  C   UNL     1      46.858   1.750   7.421  0.00  0.00    +0.000 A 
ATOM     16  N   UNL     1      46.084   1.140   8.342  0.00  0.00    +0.000 NA
ATOM     17  C   UNL     1      45.214   1.925   9.022  0.00  0.00    +0.000 A 
ENDBRANCH  11  12
ENDBRANCH   9  11
ENDBRANCH   6   9
ENDBRANCH   2   3
BRANCH   2  18
ATOM     18  N   UNL     1      48.089   6.442  15.564  0.00  0.00    +0.000 N 
ATOM     19  C   UNL     1      49.094   6.175  16.457  0.00  0.00    +0.000 C 
ATOM     20  O   UNL     1      50.254   5.995  16.095  0.00  0.00    +0.000 OA
ATOM     21  H   UNL     1      47.126   6.473  15.884  0.00  0.00    +0.000 HD
BRANCH  19  22
ATOM     22  C   UNL     1      48.731   6.163  17.883  0.00  0.00    +0.000 A 
ATOM     23  C   UNL     1      48.855   4.982  18.604  0.00  0.00    +0.000 A 
ATOM     24  S   UNL     1      48.403   5.127  20.241  0.00  0.00    +0.000 S 
ATOM     25  C   UNL     1      47.985   6.762  20.037  0.00  0.00    +0.000 A 
ATOM     26  N   UNL     1      47.479   7.487  21.071  0.00  0.00    +0.000 NA
ATOM     27  C   UNL     1      47.165   8.703  20.767  0.00  0.00    +0.000 A 
ATOM     28  N   UNL     1      47.324   9.262  19.525  0.00  0.00    +0.000 N 
ATOM     29  C   UNL     1      47.892   8.590  18.471  0.00  0.00    +0.000 A 
ATOM     30  O   UNL     1      48.125   9.151  17.407  0.00  0.00    +0.000 OA
ATOM     31  C   UNL     1      48.218   7.201  18.744  0.00  0.00    +0.000 A 
ATOM     32  H   UNL     1      47.087  10.229  19.359  0.00  0.00    +0.000 HD
ENDBRANCH  19  22
ENDBRANCH   2  18
TORSDOF 6
ENDMDL
MODEL 6
REMARK VINA RESULT:    -7.314      2.682      3.971
REMARK INTER + INTRA:         -11.069
REMARK INTER:                 -10.608
REMARK INTRA:                  -0.461
REMARK UNBOUND:                -1.189
REMARK  Name = 
REMARK  7 active torsions:
REMARK  status: ('A' for Active; 'I' for Inactive)
REMARK    1  A    between atoms: C_1  and  C_2
REMARK    2  A    between atoms: C_2  and  N_3
REMARK    3  A    between atoms: C_2  and  C_16
REMARK    4  A    between atoms: C_4  and  C_6
REMARK    5  A    between atoms: C_19  and  N_20
REMARK    6  A    between atoms: N_20  and  C_21
REMARK    7  A    between atoms: C_21  and  C_22
REMARK                            x       y       z     vdW  Elec       q    Type
REMARK                         _______ _______ _______ _____ _____    ______ ____
ROOT
ATOM      1  C   UNL     1      43.398   4.048  13.476  0.00  0.00    +0.000 C 
ATOM      2  C   UNL     1      44.168   5.190  12.806  0.00  0.00    +0.000 C 
ENDROOT
BRANCH   2   3
ATOM      3  C   UNL     1      44.652   4.815  11.416  0.00  0.00    +0.000 A 
ATOM      4  C   UNL     1      44.265   3.596  10.844  0.00  0.00    +0.000 A 
ATOM      5  C   UNL     1      44.614   3.278   9.525  0.00  0.00    +0.000 A 
ATOM      6  C   UNL     1      45.329   4.182   8.735  0.00  0.00    +0.000 A 
ATOM      7  C   UNL     1      45.789   5.359   9.334  0.00  0.00    +0.000 A 
ATOM      8  C   UNL     1      45.440   5.684  10.649  0.00  0.00    +0.000 A 
BRANCH   6   9
ATOM      9  N   UNL     1      45.688   3.945   7.402  0.00  0.00    +0.000 N 
ATOM     10  H   UNL     1      45.363   4.708   6.811  0.00  0.00    +0.000 HD
BRANCH   9  11
ATOM     11  C   UNL     1      47.082   3.605   7.129  0.00  0.00    +0.000 C 
BRANCH  11  12
ATOM     12  C   UNL     1      47.181   2.306   6.370  0.00  0.00    +0.000 A 
ATOM     13  C   UNL     1      47.035   1.078   7.024  0.00  0.00    +0.000 A 
ATOM     14  C   UNL     1      47.052  -0.106   6.291  0.00  0.00    +0.000 A 
ATOM     15  C   UNL     1      47.206  -0.028   4.917  0.00  0.00    +0.000 A 
ATOM     16  N   UNL     1      47.331   1.135   4.245  0.00  0.00    +0.000 NA
ATOM     17  C   UNL     1      47.307   2.271   4.983  0.00  0.00    +0.000 A 
ENDBRANCH  11  12
ENDBRANCH   9  11
ENDBRANCH   6   9
ENDBRANCH   2   3
BRANCH   2  18
ATOM     18  N   UNL     1      45.292   5.619  13.623  0.00  0.00    +0.000 N 
ATOM     19  C   UNL     1      46.284   4.762  14.021  0.00  0.00    +0.000 C 
ATOM     20  O   UNL     1      46.282   3.575  13.707  0.00  0.00    +0.000 OA
ATOM     21  H   UNL     1      45.263   6.564  13.993  0.00  0.00    +0.000 HD
BRANCH  19  22
ATOM     22  C   UNL     1      47.386   5.340  14.807  0.00  0.00    +0.000 A 
ATOM     23  C   UNL     1      48.135   6.378  14.265  0.00  0.00    +0.000 A 
ATOM     24  S   UNL     1      49.369   6.944  15.296  0.00  0.00    +0.000 S 
ATOM     25  C   UNL     1      48.976   5.796  16.486  0.00  0.00    +0.000 A 
ATOM     26  N   UNL     1      49.692   5.715  17.640  0.00  0.00    +0.000 NA
ATOM     27  C   UNL     1      49.314   4.772  18.438  0.00  0.00    +0.000 A 
ATOM     28  N   UNL     1      48.275   3.911  18.191  0.00  0.00    +0.000 N 
ATOM     29  C   UNL     1      47.483   4.000  17.072  0.00  0.00    +0.000 A 
ATOM     30  O   UNL     1      46.493   3.291  16.935  0.00  0.00    +0.000 OA
ATOM     31  C   UNL     1      47.896   5.012  16.116  0.00  0.00    +0.000 A 
ATOM     32  H   UNL     1      48.009   3.214  18.870  0.00  0.00    +0.000 HD
ENDBRANCH  19  22
ENDBRANCH   2  18
TORSDOF 6
ENDMDL
MODEL 7
REMARK VINA RESULT:    -7.249      4.722      9.613
REMARK INTER + INTRA:         -10.980
REMARK INTER:                  -9.766
REMARK INTRA:                  -1.215
REMARK UNBOUND:                -1.189
REMARK  Name = 
REMARK  7 active torsions:
REMARK  status: ('A' for Active; 'I' for Inactive)
REMARK    1  A    between atoms: C_1  and  C_2
REMARK    2  A    between atoms: C_2  and  N_3
REMARK    3  A    between atoms: C_2  and  C_16
REMARK    4  A    between atoms: C_4  and  C_6
REMARK    5  A    between atoms: C_19  and  N_20
REMARK    6  A    between atoms: N_20  and  C_21
REMARK    7  A    between atoms: C_21  and  C_22
REMARK                            x       y       z     vdW  Elec       q    Type
REMARK                         _______ _______ _______ _____ _____    ______ ____
ROOT
ATOM      1  C   UNL     1      49.747   8.082  11.625  0.00  0.00    +0.000 C 
ATOM      2  C   UNL     1      48.583   7.651  12.522  0.00  0.00    +0.000 C 
ENDROOT
BRANCH   2   3
ATOM      3  C   UNL     1      49.057   7.171  13.883  0.00  0.00    +0.000 A 
ATOM      4  C   UNL     1      50.312   7.560  14.366  0.00  0.00    +0.000 A 
ATOM      5  C   UNL     1      50.724   7.214  15.660  0.00  0.00    +0.000 A 
ATOM      6  C   UNL     1      49.880   6.499  16.513  0.00  0.00    +0.000 A 
ATOM      7  C   UNL     1      48.664   6.037  16.000  0.00  0.00    +0.000 A 
ATOM      8  C   UNL     1      48.245   6.383  14.712  0.00  0.00    +0.000 A 
BRANCH   6   9
ATOM      9  N   UNL     1      50.212   6.143  17.826  0.00  0.00    +0.000 N 
ATOM     10  H   UNL     1      50.069   6.935  18.450  0.00  0.00    +0.000 HD
BRANCH   9  11
ATOM     11  C   UNL     1      49.623   4.920  18.363  0.00  0.00    +0.000 C 
BRANCH  11  12
ATOM     12  C   UNL     1      50.428   3.711  17.958  0.00  0.00    +0.000 A 
ATOM     13  C   UNL     1      51.778   3.596  18.306  0.00  0.00    +0.000 A 
ATOM     14  C   UNL     1      52.482   2.436  17.989  0.00  0.00    +0.000 A 
ATOM     15  C   UNL     1      51.809   1.416  17.337  0.00  0.00    +0.000 A 
ATOM     16  N   UNL     1      50.505   1.478  16.999  0.00  0.00    +0.000 NA
ATOM     17  C   UNL     1      49.845   2.616  17.324  0.00  0.00    +0.000 A 
ENDBRANCH  11  12
ENDBRANCH   9  11
ENDBRANCH   6   9
ENDBRANCH   2   3
BRANCH   2  18
ATOM     18  N   UNL     1      47.780   6.620  11.884  0.00  0.00    +0.000 N 
ATOM     19  C   UNL     1      46.456   6.799  11.580  0.00  0.00    +0.000 C 
ATOM     20  O   UNL     1      45.867   7.847  11.829  0.00  0.00    +0.000 OA
ATOM     21  H   UNL     1      48.205   5.705  11.770  0.00  0.00    +0.000 HD
BRANCH  19  22
ATOM     22  C   UNL     1      45.776   5.689  10.894  0.00  0.00    +0.000 A 
ATOM     23  C   UNL     1      45.847   5.602   9.509  0.00  0.00    +0.000 A 
ATOM     24  S   UNL     1      45.015   4.261   8.861  0.00  0.00    +0.000 S 
ATOM     25  C   UNL     1      44.494   3.772  10.404  0.00  0.00    +0.000 A 
ATOM     26  N   UNL     1      43.692   2.683  10.556  0.00  0.00    +0.000 NA
ATOM     27  C   UNL     1      43.337   2.448  11.775  0.00  0.00    +0.000 A 
ATOM     28  N   UNL     1      43.722   3.197  12.858  0.00  0.00    +0.000 N 
ATOM     29  C   UNL     1      44.584   4.262  12.760  0.00  0.00    +0.000 A 
ATOM     30  O   UNL     1      44.999   4.840  13.757  0.00  0.00    +0.000 OA
ATOM     31  C   UNL     1      44.975   4.601  11.403  0.00  0.00    +0.000 A 
ATOM     32  H   UNL     1      43.434   2.943  13.791  0.00  0.00    +0.000 HD
ENDBRANCH  19  22
ENDBRANCH   2  18
TORSDOF 6
ENDMDL
MODEL 8
REMARK VINA RESULT:    -7.184      3.177      5.458
REMARK INTER + INTRA:         -10.893
REMARK INTER:                  -9.748
REMARK INTRA:                  -1.145
REMARK UNBOUND:                -1.189
REMARK  Name = 
REMARK  7 active torsions:
REMARK  status: ('A' for Active; 'I' for Inactive)
REMARK    1  A    between atoms: C_1  and  C_2
REMARK    2  A    between atoms: C_2  and  N_3
REMARK    3  A    between atoms: C_2  and  C_16
REMARK    4  A    between atoms: C_4  and  C_6
REMARK    5  A    between atoms: C_19  and  N_20
REMARK    6  A    between atoms: N_20  and  C_21
REMARK    7  A    between atoms: C_21  and  C_22
REMARK                            x       y       z     vdW  Elec       q    Type
REMARK                         _______ _______ _______ _____ _____    ______ ____
ROOT
ATOM      1  C   UNL     1      47.335   4.285  15.366  0.00  0.00    +0.000 C 
ATOM      2  C   UNL     1      47.066   5.435  14.392  0.00  0.00    +0.000 C 
ENDROOT
BRANCH   2   3
ATOM      3  C   UNL     1      46.367   4.963  13.129  0.00  0.00    +0.000 A 
ATOM      4  C   UNL     1      45.893   3.648  13.039  0.00  0.00    +0.000 A 
ATOM      5  C   UNL     1      45.155   3.224  11.926  0.00  0.00    +0.000 A 
ATOM      6  C   UNL     1      44.846   4.110  10.892  0.00  0.00    +0.000 A 
ATOM      7  C   UNL     1      45.394   5.395  10.941  0.00  0.00    +0.000 A 
ATOM      8  C   UNL     1      46.126   5.827  12.051  0.00  0.00    +0.000 A 
BRANCH   6   9
ATOM      9  N   UNL     1      44.090   3.765   9.764  0.00  0.00    +0.000 N 
ATOM     10  H   UNL     1      43.127   4.077   9.879  0.00  0.00    +0.000 HD
BRANCH   9  11
ATOM     11  C   UNL     1      44.624   4.132   8.456  0.00  0.00    +0.000 C 
BRANCH  11  12
ATOM     12  C   UNL     1      45.595   3.092   7.959  0.00  0.00    +0.000 A 
ATOM     13  C   UNL     1      46.618   3.430   7.066  0.00  0.00    +0.000 A 
ATOM     14  C   UNL     1      47.551   2.470   6.681  0.00  0.00    +0.000 A 
ATOM     15  C   UNL     1      47.440   1.195   7.211  0.00  0.00    +0.000 A 
ATOM     16  N   UNL     1      46.482   0.832   8.088  0.00  0.00    +0.000 NA
ATOM     17  C   UNL     1      45.591   1.787   8.447  0.00  0.00    +0.000 A 
ENDBRANCH  11  12
ENDBRANCH   9  11
ENDBRANCH   6   9
ENDBRANCH   2   3
BRANCH   2  18
ATOM     18  N   UNL     1      48.295   6.133  14.048  0.00  0.00    +0.000 N 
ATOM     19  C   UNL     1      48.902   7.020  14.897  0.00  0.00    +0.000 C 
ATOM     20  O   UNL     1      48.442   7.277  16.006  0.00  0.00    +0.000 OA
ATOM     21  H   UNL     1      48.637   6.029  13.097  0.00  0.00    +0.000 HD
BRANCH  19  22
ATOM     22  C   UNL     1      50.165   7.620  14.440  0.00  0.00    +0.000 A 
ATOM     23  C   UNL     1      51.289   7.538  15.252  0.00  0.00    +0.000 A 
ATOM     24  S   UNL     1      52.675   8.273  14.584  0.00  0.00    +0.000 S 
ATOM     25  C   UNL     1      51.814   8.765  13.203  0.00  0.00    +0.000 A 
ATOM     26  N   UNL     1      52.420   9.491  12.225  0.00  0.00    +0.000 NA
ATOM     27  C   UNL     1      51.640   9.835  11.254  0.00  0.00    +0.000 A 
ATOM     28  N   UNL     1      50.312   9.506  11.167  0.00  0.00    +0.000 N 
ATOM     29  C   UNL     1      49.675   8.718  12.096  0.00  0.00    +0.000 A 
ATOM     30  O   UNL     1      48.520   8.348  11.932  0.00  0.00    +0.000 OA
ATOM     31  C   UNL     1      50.494   8.346  13.236  0.00  0.00    +0.000 A 
ATOM     32  H   UNL     1      49.763   9.779  10.366  0.00  0.00    +0.000 HD
ENDBRANCH  19  22
ENDBRANCH   2  18
TORSDOF 6
ENDMDL
MODEL 9
REMARK VINA RESULT:    -6.983      5.588      8.601
REMARK INTER + INTRA:         -10.621
REMARK INTER:                  -9.488
REMARK INTRA:                  -1.133
REMARK UNBOUND:                -1.189
REMARK  Name = 
REMARK  7 active torsions:
REMARK  status: ('A' for Active; 'I' for Inactive)
REMARK    1  A    between atoms: C_1  and  C_2
REMARK    2  A    between atoms: C_2  and  N_3
REMARK    3  A    between atoms: C_2  and  C_16
REMARK    4  A    between atoms: C_4  and  C_6
REMARK    5  A    between atoms: C_19  and  N_20
REMARK    6  A    between atoms: N_20  and  C_21
REMARK    7  A    between atoms: C_21  and  C_22
REMARK                            x       y       z     vdW  Elec       q    Type
REMARK                         _______ _______ _______ _____ _____    ______ ____
ROOT
ATOM      1  C   UNL     1      47.294   3.147  17.416  0.00  0.00    +0.000 C 
ATOM      2  C   UNL     1      48.136   4.350  16.981  0.00  0.00    +0.000 C 
ENDROOT
BRANCH   2   3
ATOM      3  C   UNL     1      47.798   4.807  15.573  0.00  0.00    +0.000 A 
ATOM      4  C   UNL     1      46.992   4.008  14.752  0.00  0.00    +0.000 A 
ATOM      5  C   UNL     1      46.582   4.459  13.490  0.00  0.00    +0.000 A 
ATOM      6  C   UNL     1      46.940   5.729  13.031  0.00  0.00    +0.000 A 
ATOM      7  C   UNL     1      47.815   6.488  13.814  0.00  0.00    +0.000 A 
ATOM      8  C   UNL     1      48.223   6.047  15.077  0.00  0.00    +0.000 A 
BRANCH   6   9
ATOM      9  N   UNL     1      46.545   6.257  11.796  0.00  0.00    +0.000 N 
ATOM     10  H   UNL     1      47.157   5.916  11.057  0.00  0.00    +0.000 HD
BRANCH   9  11
ATOM     11  C   UNL     1      45.137   6.134  11.429  0.00  0.00    +0.000 C 
BRANCH  11  12
ATOM     12  C   UNL     1      44.932   5.014  10.442  0.00  0.00    +0.000 A 
ATOM     13  C   UNL     1      45.598   5.008   9.211  0.00  0.00    +0.000 A 
ATOM     14  C   UNL     1      45.455   3.925   8.348  0.00  0.00    +0.000 A 
ATOM     15  C   UNL     1      44.653   2.869   8.745  0.00  0.00    +0.000 A 
ATOM     16  N   UNL     1      44.009   2.824   9.929  0.00  0.00    +0.000 NA
ATOM     17  C   UNL     1      44.169   3.890  10.750  0.00  0.00    +0.000 A 
ENDBRANCH  11  12
ENDBRANCH   9  11
ENDBRANCH   6   9
ENDBRANCH   2   3
BRANCH   2  18
ATOM     18  N   UNL     1      49.559   4.061  17.080  0.00  0.00    +0.000 N 
ATOM     19  C   UNL     1      50.283   4.303  18.218  0.00  0.00    +0.000 C 
ATOM     20  O   UNL     1      49.769   4.778  19.227  0.00  0.00    +0.000 OA
ATOM     21  H   UNL     1      50.035   3.775  16.230  0.00  0.00    +0.000 HD
BRANCH  19  22
ATOM     22  C   UNL     1      51.704   3.920  18.195  0.00  0.00    +0.000 A 
ATOM     23  C   UNL     1      52.668   4.869  18.511  0.00  0.00    +0.000 A 
ATOM     24  S   UNL     1      54.264   4.274  18.447  0.00  0.00    +0.000 S 
ATOM     25  C   UNL     1      53.729   2.738  17.952  0.00  0.00    +0.000 A 
ATOM     26  N   UNL     1      54.617   1.744  17.681  0.00  0.00    +0.000 NA
ATOM     27  C   UNL     1      54.079   0.642  17.275  0.00  0.00    +0.000 A 
ATOM     28  N   UNL     1      52.730   0.442  17.129  0.00  0.00    +0.000 N 
ATOM     29  C   UNL     1      51.794   1.393  17.455  0.00  0.00    +0.000 A 
ATOM     30  O   UNL     1      50.595   1.145  17.421  0.00  0.00    +0.000 OA
ATOM     31  C   UNL     1      52.348   2.670  17.869  0.00  0.00    +0.000 A 
ATOM     32  H   UNL     1      52.369  -0.454  16.836  0.00  0.00    +0.000 HD
ENDBRANCH  19  22
ENDBRANCH   2  18
TORSDOF 6
ENDMDL
