MODEL 1
REMARK VINA RESULT:    -8.251      0.000      0.000
REMARK INTER + INTRA:         -11.610
REMARK INTER:                 -10.662
REMARK INTRA:                  -0.948
REMARK UNBOUND:                -0.948
REMARK  Name = 
REMARK  6 active torsions:
REMARK  status: ('A' for Active; 'I' for Inactive)
REMARK    1  A    between atoms: C_1  and  C_2
REMARK    2  A    between atoms: C_6  and  C_7
REMARK    3  A    between atoms: C_7  and  C_8
REMARK    4  A    between atoms: C_11  and  C_12
REMARK    5  A    between atoms: C_12  and  N_13
REMARK    6  A    between atoms: C_14  and  C_16
REMARK                            x       y       z     vdW  Elec       q    Type
REMARK                         _______ _______ _______ _____ _____    ______ ____
ROOT
ATOM      1  C   UNL     1      44.542   2.977  10.053  0.00  0.00    +0.000 C 
ENDROOT
BRANCH   1   5
ATOM      2  C   UNL     1      46.777   1.964   6.483  0.00  0.00    +0.000 A 
ATOM      3  C   UNL     1      46.190   3.229   6.619  0.00  0.00    +0.000 A 
ATOM      4  C   UNL     1      45.446   3.550   7.760  0.00  0.00    +0.000 A 
ATOM      5  C   UNL     1      45.294   2.620   8.798  0.00  0.00    +0.000 A 
ATOM      6  C   UNL     1      45.843   1.341   8.640  0.00  0.00    +0.000 A 
ATOM      7  C   UNL     1      46.577   1.017   7.497  0.00  0.00    +0.000 A 
BRANCH   2   8
ATOM      8  C   UNL     1      47.642   1.645   5.282  0.00  0.00    +0.000 C 
BRANCH   8  14
ATOM      9  C   UNL     1      46.680  -2.858   3.238  0.00  0.00    +0.000 C 
ATOM     10  C   UNL     1      46.490  -1.373   3.260  0.00  0.00    +0.000 A 
ATOM     11  C   UNL     1      45.672  -0.730   2.336  0.00  0.00    +0.000 A 
ATOM     12  C   UNL     1      45.544   0.648   2.411  0.00  0.00    +0.000 A 
ATOM     13  N   UNL     1      46.170   1.417   3.335  0.00  0.00    +0.000 NA
ATOM     14  C   UNL     1      46.970   0.787   4.231  0.00  0.00    +0.000 A 
ATOM     15  C   UNL     1      47.141  -0.598   4.227  0.00  0.00    +0.000 A 
ENDBRANCH   8  14
ENDBRANCH   2   8
ENDBRANCH   1   5
BRANCH   1  16
ATOM     16  N   UNL     1      45.107   4.133  10.695  0.00  0.00    +0.000 N 
ATOM     17  C   UNL     1      45.441   4.115  12.027  0.00  0.00    +0.000 C 
ATOM     18  O   UNL     1      45.318   3.109  12.718  0.00  0.00    +0.000 OA
ATOM     19  H   UNL     1      45.000   5.023  10.218  0.00  0.00    +0.000 HD
BRANCH  17  20
ATOM     20  C   UNL     1      46.022   5.352  12.564  0.00  0.00    +0.000 A 
ATOM     21  C   UNL     1      47.169   5.294  13.344  0.00  0.00    +0.000 A 
ATOM     22  S   UNL     1      47.749   6.828  13.814  0.00  0.00    +0.000 S 
ATOM     23  C   UNL     1      46.457   7.616  13.039  0.00  0.00    +0.000 A 
ATOM     24  N   UNL     1      46.341   8.973  13.069  0.00  0.00    +0.000 NA
ATOM     25  C   UNL     1      45.296   9.433  12.466  0.00  0.00    +0.000 A 
ATOM     26  N   UNL     1      44.353   8.660  11.840  0.00  0.00    +0.000 N 
ATOM     27  C   UNL     1      44.439   7.292  11.765  0.00  0.00    +0.000 A 
ATOM     28  O   UNL     1      43.595   6.633  11.167  0.00  0.00    +0.000 OA
ATOM     29  C   UNL     1      45.597   6.724  12.424  0.00  0.00    +0.000 A 
ATOM     30  H   UNL     1      43.556   9.083  11.385  0.00  0.00    +0.000 HD
ENDBRANCH  17  20
ENDBRANCH   1  16
TORSDOF 5
ENDMDL
MODEL 2
REMARK VINA RESULT:    -8.229      1.367      2.130
REMARK INTER + INTRA:         -11.582
REMARK INTER:                 -10.597
REMARK INTRA:                  -0.985
REMARK UNBOUND:                -0.948
REMARK  Name = 
REMARK  6 active torsions:
REMARK  status: ('A' for Active; 'I' for Inactive)
REMARK    1  A    between atoms: C_1  and  C_2
REMARK    2  A    between atoms: C_6  and  C_7
REMARK    3  A    between atoms: C_7  and  C_8
REMARK    4  A    between atoms: C_11  and  C_12
REMARK    5  A    between atoms: C_12  and  N_13
REMARK    6  A    between atoms: C_14  and  C_16
REMARK                            x       y       z     vdW  Elec       q    Type
REMARK                         _______ _______ _______ _____ _____    ______ ____
ROOT
ATOM      1  C   UNL     1      44.385   3.727  10.024  0.00  0.00    +0.000 C 
ENDROOT
BRANCH   1   5
ATOM      2  C   UNL     1      46.851   2.125   6.843  0.00  0.00    +0.000 A 
ATOM      3  C   UNL     1      46.507   3.483   6.860  0.00  0.00    +0.000 A 
ATOM      4  C   UNL     1      45.689   3.998   7.872  0.00  0.00    +0.000 A 
ATOM      5  C   UNL     1      45.219   3.169   8.900  0.00  0.00    +0.000 A 
ATOM      6  C   UNL     1      45.527   1.804   8.857  0.00  0.00    +0.000 A 
ATOM      7  C   UNL     1      46.335   1.288   7.841  0.00  0.00    +0.000 A 
BRANCH   2   8
ATOM      8  C   UNL     1      47.795   1.586   5.788  0.00  0.00    +0.000 C 
BRANCH   8  14
ATOM      9  C   UNL     1      46.640  -2.790   3.577  0.00  0.00    +0.000 C 
ATOM     10  C   UNL     1      46.550  -1.297   3.630  0.00  0.00    +0.000 A 
ATOM     11  C   UNL     1      45.826  -0.577   2.683  0.00  0.00    +0.000 A 
ATOM     12  C   UNL     1      45.787   0.804   2.789  0.00  0.00    +0.000 A 
ATOM     13  N   UNL     1      46.414   1.506   3.764  0.00  0.00    +0.000 NA
ATOM     14  C   UNL     1      47.123   0.801   4.682  0.00  0.00    +0.000 A 
ATOM     15  C   UNL     1      47.200  -0.591   4.649  0.00  0.00    +0.000 A 
ENDBRANCH   8  14
ENDBRANCH   2   8
ENDBRANCH   1   5
BRANCH   1  16
ATOM     16  N   UNL     1      44.970   4.921  10.573  0.00  0.00    +0.000 N 
ATOM     17  C   UNL     1      44.208   5.839  11.251  0.00  0.00    +0.000 C 
ATOM     18  O   UNL     1      43.011   5.671  11.459  0.00  0.00    +0.000 OA
ATOM     19  H   UNL     1      45.882   5.190  10.219  0.00  0.00    +0.000 HD
BRANCH  17  20
ATOM     20  C   UNL     1      44.922   7.010  11.775  0.00  0.00    +0.000 A 
ATOM     21  C   UNL     1      44.542   8.286  11.380  0.00  0.00    +0.000 A 
ATOM     22  S   UNL     1      45.424   9.527  12.148  0.00  0.00    +0.000 S 
ATOM     23  C   UNL     1      46.382   8.402  12.990  0.00  0.00    +0.000 A 
ATOM     24  N   UNL     1      47.369   8.812  13.834  0.00  0.00    +0.000 NA
ATOM     25  C   UNL     1      48.035   7.851  14.381  0.00  0.00    +0.000 A 
ATOM     26  N   UNL     1      47.809   6.517  14.158  0.00  0.00    +0.000 N 
ATOM     27  C   UNL     1      46.812   6.058  13.335  0.00  0.00    +0.000 A 
ATOM     28  O   UNL     1      46.614   4.856  13.184  0.00  0.00    +0.000 OA
ATOM     29  C   UNL     1      46.030   7.097  12.696  0.00  0.00    +0.000 A 
ATOM     30  H   UNL     1      48.367   5.813  14.620  0.00  0.00    +0.000 HD
ENDBRANCH  17  20
ENDBRANCH   1  16
TORSDOF 5
ENDMDL
MODEL 3
REMARK VINA RESULT:    -8.019      3.582      6.578
REMARK INTER + INTRA:         -11.311
REMARK INTER:                 -10.359
REMARK INTRA:                  -0.953
REMARK UNBOUND:                -0.948
REMARK  Name = 
REMARK  6 active torsions:
REMARK  status: ('A' for Active; 'I' for Inactive)
REMARK    1  A    between atoms: C_1  and  C_2
REMARK    2  A    between atoms: C_6  and  C_7
REMARK    3  A    between atoms: C_7  and  C_8
REMARK    4  A    between atoms: C_11  and  C_12
REMARK    5  A    between atoms: C_12  and  N_13
REMARK    6  A    between atoms: C_14  and  C_16
REMARK                            x       y       z     vdW  Elec       q    Type
REMARK                         _______ _______ _______ _____ _____    ______ ____
ROOT
ATOM      1  C   UNL     1      47.316   8.286  13.643  0.00  0.00    +0.000 C 
ENDROOT
BRANCH   1   5
ATOM      2  C   UNL     1      44.688   5.951  11.113  0.00  0.00    +0.000 A 
ATOM      3  C   UNL     1      45.873   5.394  11.612  0.00  0.00    +0.000 A 
ATOM      4  C   UNL     1      46.736   6.155  12.408  0.00  0.00    +0.000 A 
ATOM      5  C   UNL     1      46.419   7.479  12.741  0.00  0.00    +0.000 A 
ATOM      6  C   UNL     1      45.258   8.048  12.204  0.00  0.00    +0.000 A 
ATOM      7  C   UNL     1      44.401   7.292  11.400  0.00  0.00    +0.000 A 
BRANCH   2   8
ATOM      8  C   UNL     1      43.720   5.104  10.312  0.00  0.00    +0.000 C 
BRANCH   8  14
ATOM      9  C   UNL     1      46.738   3.542   6.594  0.00  0.00    +0.000 C 
ATOM     10  C   UNL     1      45.829   3.239   7.744  0.00  0.00    +0.000 A 
ATOM     11  C   UNL     1      45.564   1.931   8.138  0.00  0.00    +0.000 A 
ATOM     12  C   UNL     1      44.709   1.721   9.209  0.00  0.00    +0.000 A 
ATOM     13  N   UNL     1      44.109   2.718   9.904  0.00  0.00    +0.000 NA
ATOM     14  C   UNL     1      44.366   3.992   9.514  0.00  0.00    +0.000 A 
ATOM     15  C   UNL     1      45.224   4.284   8.452  0.00  0.00    +0.000 A 
ENDBRANCH   8  14
ENDBRANCH   2   8
ENDBRANCH   1   5
BRANCH   1  16
ATOM     16  N   UNL     1      47.686   7.544  14.819  0.00  0.00    +0.000 N 
ATOM     17  C   UNL     1      48.908   6.926  14.914  0.00  0.00    +0.000 C 
ATOM     18  O   UNL     1      49.754   7.009  14.030  0.00  0.00    +0.000 OA
ATOM     19  H   UNL     1      46.936   7.270  15.444  0.00  0.00    +0.000 HD
BRANCH  17  20
ATOM     20  C   UNL     1      49.173   6.210  16.168  0.00  0.00    +0.000 A 
ATOM     21  C   UNL     1      50.199   6.635  17.002  0.00  0.00    +0.000 A 
ATOM     22  S   UNL     1      50.312   5.742  18.450  0.00  0.00    +0.000 S 
ATOM     23  C   UNL     1      49.032   4.723  17.988  0.00  0.00    +0.000 A 
ATOM     24  N   UNL     1      48.618   3.704  18.792  0.00  0.00    +0.000 NA
ATOM     25  C   UNL     1      47.658   2.994  18.301  0.00  0.00    +0.000 A 
ATOM     26  N   UNL     1      47.078   3.204  17.077  0.00  0.00    +0.000 N 
ATOM     27  C   UNL     1      47.447   4.230  16.244  0.00  0.00    +0.000 A 
ATOM     28  O   UNL     1      46.882   4.411  15.169  0.00  0.00    +0.000 OA
ATOM     29  C   UNL     1      48.520   5.062  16.748  0.00  0.00    +0.000 A 
ATOM     30  H   UNL     1      46.328   2.611  16.751  0.00  0.00    +0.000 HD
ENDBRANCH  17  20
ENDBRANCH   1  16
TORSDOF 5
ENDMDL
MODEL 4
REMARK VINA RESULT:    -7.510      2.952      4.450
REMARK INTER + INTRA:         -10.654
REMARK INTER:                 -10.778
REMARK INTRA:                   0.124
REMARK UNBOUND:                -0.948
REMARK  Name = 
REMARK  6 active torsions:
REMARK  status: ('A' for Active; 'I' for Inactive)
REMARK    1  A    between atoms: C_1  and  C_2
REMARK    2  A    between atoms: C_6  and  C_7
REMARK    3  A    between atoms: C_7  and  C_8
REMARK    4  A    between atoms: C_11  and  C_12
REMARK    5  A    between atoms: C_12  and  N_13
REMARK    6  A    between atoms: C_14  and  C_16
REMARK                            x       y       z     vdW  Elec       q    Type
REMARK                         _______ _______ _______ _____ _____    ______ ____
ROOT
ATOM      1  C   UNL     1      44.570   3.890  12.856  0.00  0.00    +0.000 C 
ENDROOT
BRANCH   1   5
ATOM      2  C   UNL     1      45.687   4.218   8.683  0.00  0.00    +0.000 A 
ATOM      3  C   UNL     1      45.849   5.307   9.550  0.00  0.00    +0.000 A 
ATOM      4  C   UNL     1      45.465   5.212  10.892  0.00  0.00    +0.000 A 
ATOM      5  C   UNL     1      44.934   4.018  11.400  0.00  0.00    +0.000 A 
ATOM      6  C   UNL     1      44.731   2.946  10.522  0.00  0.00    +0.000 A 
ATOM      7  C   UNL     1      45.105   3.044   9.180  0.00  0.00    +0.000 A 
BRANCH   2   8
ATOM      8  C   UNL     1      46.171   4.299   7.250  0.00  0.00    +0.000 C 
BRANCH   8  14
ATOM      9  C   UNL     1      46.972  -0.657   7.662  0.00  0.00    +0.000 C 
ATOM     10  C   UNL     1      46.974   0.597   6.844  0.00  0.00    +0.000 A 
ATOM     11  C   UNL     1      47.352   0.591   5.504  0.00  0.00    +0.000 A 
ATOM     12  C   UNL     1      47.336   1.788   4.806  0.00  0.00    +0.000 A 
ATOM     13  N   UNL     1      46.971   2.975   5.348  0.00  0.00    +0.000 NA
ATOM     14  C   UNL     1      46.608   2.978   6.656  0.00  0.00    +0.000 A 
ATOM     15  C   UNL     1      46.588   1.812   7.422  0.00  0.00    +0.000 A 
ENDBRANCH   8  14
ENDBRANCH   2   8
ENDBRANCH   1   5
BRANCH   1  16
ATOM     16  N   UNL     1      45.446   4.671  13.688  0.00  0.00    +0.000 N 
ATOM     17  C   UNL     1      46.629   4.155  14.155  0.00  0.00    +0.000 C 
ATOM     18  O   UNL     1      47.017   3.031  13.854  0.00  0.00    +0.000 OA
ATOM     19  H   UNL     1      45.048   5.492  14.132  0.00  0.00    +0.000 HD
BRANCH  17  20
ATOM     20  C   UNL     1      47.443   5.053  14.985  0.00  0.00    +0.000 A 
ATOM     21  C   UNL     1      48.102   6.125  14.400  0.00  0.00    +0.000 A 
ATOM     22  S   UNL     1      48.930   7.107  15.521  0.00  0.00    +0.000 S 
ATOM     23  C   UNL     1      48.483   6.102  16.818  0.00  0.00    +0.000 A 
ATOM     24  N   UNL     1      48.887   6.373  18.090  0.00  0.00    +0.000 NA
ATOM     25  C   UNL     1      48.500   5.510  18.968  0.00  0.00    +0.000 A 
ATOM     26  N   UNL     1      47.751   4.395  18.690  0.00  0.00    +0.000 N 
ATOM     27  C   UNL     1      47.303   4.094  17.428  0.00  0.00    +0.000 A 
ATOM     28  O   UNL     1      46.604   3.106  17.220  0.00  0.00    +0.000 OA
ATOM     29  C   UNL     1      47.707   5.034  16.403  0.00  0.00    +0.000 A 
ATOM     30  H   UNL     1      47.479   3.758  19.424  0.00  0.00    +0.000 HD
ENDBRANCH  17  20
ENDBRANCH   1  16
TORSDOF 5
ENDMDL
MODEL 5
REMARK VINA RESULT:    -7.447      3.293      5.217
REMARK INTER + INTRA:         -10.572
REMARK INTER:                  -9.463
REMARK INTRA:                  -1.109
REMARK UNBOUND:                -0.948
REMARK  Name = 
REMARK  6 active torsions:
REMARK  status: ('A' for Active; 'I' for Inactive)
REMARK    1  A    between atoms: C_1  and  C_2
REMARK    2  A    between atoms: C_6  and  C_7
REMARK    3  A    between atoms: C_7  and  C_8
REMARK    4  A    between atoms: C_11  and  C_12
REMARK    5  A    between atoms: C_12  and  N_13
REMARK    6  A    between atoms: C_14  and  C_16
REMARK                            x       y       z     vdW  Elec       q    Type
REMARK                         _______ _______ _______ _____ _____    ______ ____
ROOT
ATOM      1  C   UNL     1      47.217   5.513  14.426  0.00  0.00    +0.000 C 
ENDROOT
BRANCH   1   5
ATOM      2  C   UNL     1      45.036   4.284  10.891  0.00  0.00    +0.000 A 
ATOM      3  C   UNL     1      45.541   5.586  10.997  0.00  0.00    +0.000 A 
ATOM      4  C   UNL     1      46.223   5.993  12.149  0.00  0.00    +0.000 A 
ATOM      5  C   UNL     1      46.435   5.099  13.207  0.00  0.00    +0.000 A 
ATOM      6  C   UNL     1      45.890   3.812  13.119  0.00  0.00    +0.000 A 
ATOM      7  C   UNL     1      45.200   3.408  11.973  0.00  0.00    +0.000 A 
BRANCH   2   8
ATOM      8  C   UNL     1      44.362   3.824   9.615  0.00  0.00    +0.000 C 
BRANCH   8  14
ATOM      9  C   UNL     1      46.871  -0.078   7.652  0.00  0.00    +0.000 C 
ATOM     10  C   UNL     1      46.490   1.369   7.624  0.00  0.00    +0.000 A 
ATOM     11  C   UNL     1      46.961   2.227   6.633  0.00  0.00    +0.000 A 
ATOM     12  C   UNL     1      46.572   3.556   6.669  0.00  0.00    +0.000 A 
ATOM     13  N   UNL     1      45.754   4.081   7.614  0.00  0.00    +0.000 NA
ATOM     14  C   UNL     1      45.301   3.242   8.580  0.00  0.00    +0.000 A 
ATOM     15  C   UNL     1      45.639   1.889   8.606  0.00  0.00    +0.000 A 
ENDBRANCH   8  14
ENDBRANCH   2   8
ENDBRANCH   1   5
BRANCH   1  16
ATOM     16  N   UNL     1      47.614   6.893  14.354  0.00  0.00    +0.000 N 
ATOM     17  C   UNL     1      48.863   7.296  14.758  0.00  0.00    +0.000 C 
ATOM     18  O   UNL     1      49.709   6.503  15.155  0.00  0.00    +0.000 OA
ATOM     19  H   UNL     1      46.873   7.580  14.256  0.00  0.00    +0.000 HD
BRANCH  17  20
ATOM     20  C   UNL     1      49.154   8.729  14.623  0.00  0.00    +0.000 A 
ATOM     21  C   UNL     1      49.348   9.504  15.758  0.00  0.00    +0.000 A 
ATOM     22  S   UNL     1      49.756  11.124  15.414  0.00  0.00    +0.000 S 
ATOM     23  C   UNL     1      49.633  10.858  13.739  0.00  0.00    +0.000 A 
ATOM     24  N   UNL     1      49.850  11.866  12.850  0.00  0.00    +0.000 NA
ATOM     25  C   UNL     1      49.691  11.530  11.613  0.00  0.00    +0.000 A 
ATOM     26  N   UNL     1      49.329  10.279  11.185  0.00  0.00    +0.000 N 
ATOM     27  C   UNL     1      49.122   9.228  12.043  0.00  0.00    +0.000 A 
ATOM     28  O   UNL     1      48.833   8.111  11.623  0.00  0.00    +0.000 OA
ATOM     29  C   UNL     1      49.290   9.550  13.445  0.00  0.00    +0.000 A 
ATOM     30  H   UNL     1      49.223  10.079  10.200  0.00  0.00    +0.000 HD
ENDBRANCH  17  20
ENDBRANCH   1  16
TORSDOF 5
ENDMDL
MODEL 6
REMARK VINA RESULT:    -7.399      4.485      6.964
REMARK INTER + INTRA:         -10.510
REMARK INTER:                  -9.456
REMARK INTRA:                  -1.054
REMARK UNBOUND:                -0.948
REMARK  Name = 
REMARK  6 active torsions:
REMARK  status: ('A' for Active; 'I' for Inactive)
REMARK    1  A    between atoms: C_1  and  C_2
REMARK    2  A    between atoms: C_6  and  C_7
REMARK    3  A    between atoms: C_7  and  C_8
REMARK    4  A    between atoms: C_11  and  C_12
REMARK    5  A    between atoms: C_12  and  N_13
REMARK    6  A    between atoms: C_14  and  C_16
REMARK                            x       y       z     vdW  Elec       q    Type
REMARK                         _______ _______ _______ _____ _____    ______ ____
ROOT
ATOM      1  C   UNL     1      48.444   6.907  14.194  0.00  0.00    +0.000 C 
ENDROOT
BRANCH   1   5
ATOM      2  C   UNL     1      45.195   5.548  11.672  0.00  0.00    +0.000 A 
ATOM      3  C   UNL     1      45.834   6.767  11.412  0.00  0.00    +0.000 A 
ATOM      4  C   UNL     1      46.866   7.220  12.240  0.00  0.00    +0.000 A 
ATOM      5  C   UNL     1      47.296   6.452  13.331  0.00  0.00    +0.000 A 
ATOM      6  C   UNL     1      46.626   5.256  13.617  0.00  0.00    +0.000 A 
ATOM      7  C   UNL     1      45.588   4.808  12.796  0.00  0.00    +0.000 A 
BRANCH   2   8
ATOM      8  C   UNL     1      44.127   5.025  10.733  0.00  0.00    +0.000 C 
BRANCH   8  14
ATOM      9  C   UNL     1      46.741   3.641   6.656  0.00  0.00    +0.000 C 
ATOM     10  C   UNL     1      45.872   3.291   7.823  0.00  0.00    +0.000 A 
ATOM     11  C   UNL     1      45.491   1.977   8.079  0.00  0.00    +0.000 A 
ATOM     12  C   UNL     1      44.682   1.723   9.175  0.00  0.00    +0.000 A 
ATOM     13  N   UNL     1      44.233   2.681  10.023  0.00  0.00    +0.000 NA
ATOM     14  C   UNL     1      44.603   3.962   9.767  0.00  0.00    +0.000 A 
ATOM     15  C   UNL     1      45.424   4.295   8.690  0.00  0.00    +0.000 A 
ENDBRANCH   8  14
ENDBRANCH   2   8
ENDBRANCH   1   5
BRANCH   1  16
ATOM     16  N   UNL     1      48.216   6.596  15.580  0.00  0.00    +0.000 N 
ATOM     17  C   UNL     1      49.249   6.224  16.404  0.00  0.00    +0.000 C 
ATOM     18  O   UNL     1      50.412   6.181  16.018  0.00  0.00    +0.000 OA
ATOM     19  H   UNL     1      47.260   6.400  15.856  0.00  0.00    +0.000 HD
BRANCH  17  20
ATOM     20  C   UNL     1      48.892   5.945  17.801  0.00  0.00    +0.000 A 
ATOM     21  C   UNL     1      49.096   4.676  18.326  0.00  0.00    +0.000 A 
ATOM     22  S   UNL     1      48.702   4.553  19.981  0.00  0.00    +0.000 S 
ATOM     23  C   UNL     1      48.194   6.175  20.038  0.00  0.00    +0.000 A 
ATOM     24  N   UNL     1      47.712   6.720  21.189  0.00  0.00    +0.000 NA
ATOM     25  C   UNL     1      47.335   7.950  21.079  0.00  0.00    +0.000 A 
ATOM     26  N   UNL     1      47.388   8.683  19.922  0.00  0.00    +0.000 N 
ATOM     27  C   UNL     1      47.885   8.182  18.745  0.00  0.00    +0.000 A 
ATOM     28  O   UNL     1      47.951   8.877  17.735  0.00  0.00    +0.000 OA
ATOM     29  C   UNL     1      48.327   6.804  18.813  0.00  0.00    +0.000 A 
ATOM     30  H   UNL     1      47.077   9.644  19.902  0.00  0.00    +0.000 HD
ENDBRANCH  17  20
ENDBRANCH   1  16
TORSDOF 5
ENDMDL
MODEL 7
REMARK VINA RESULT:    -7.200      6.616     11.538
REMARK INTER + INTRA:         -10.253
REMARK INTER:                  -9.731
REMARK INTRA:                  -0.522
REMARK UNBOUND:                -0.948
REMARK  Name = 
REMARK  6 active torsions:
REMARK  status: ('A' for Active; 'I' for Inactive)
REMARK    1  A    between atoms: C_1  and  C_2
REMARK    2  A    between atoms: C_6  and  C_7
REMARK    3  A    between atoms: C_7  and  C_8
REMARK    4  A    between atoms: C_11  and  C_12
REMARK    5  A    between atoms: C_12  and  N_13
REMARK    6  A    between atoms: C_14  and  C_16
REMARK                            x       y       z     vdW  Elec       q    Type
REMARK                         _______ _______ _______ _____ _____    ______ ____
ROOT
ATOM      1  C   UNL     1      47.155   3.559  16.983  0.00  0.00    +0.000 C 
ENDROOT
BRANCH   1   5
ATOM      2  C   UNL     1      51.438   3.218  17.539  0.00  0.00    +0.000 A 
ATOM      3  C   UNL     1      50.813   4.472  17.581  0.00  0.00    +0.000 A 
ATOM      4  C   UNL     1      49.434   4.587  17.376  0.00  0.00    +0.000 A 
ATOM      5  C   UNL     1      48.648   3.449  17.150  0.00  0.00    +0.000 A 
ATOM      6  C   UNL     1      49.280   2.202  17.064  0.00  0.00    +0.000 A 
ATOM      7  C   UNL     1      50.659   2.087  17.258  0.00  0.00    +0.000 A 
BRANCH   2   8
ATOM      8  C   UNL     1      52.918   3.088  17.833  0.00  0.00    +0.000 C 
BRANCH   8  14
ATOM      9  C   UNL     1      52.386   5.429  22.262  0.00  0.00    +0.000 C 
ATOM     10  C   UNL     1      53.022   4.366  21.421  0.00  0.00    +0.000 A 
ATOM     11  C   UNL     1      53.956   3.480  21.952  0.00  0.00    +0.000 A 
ATOM     12  C   UNL     1      54.509   2.522  21.117  0.00  0.00    +0.000 A 
ATOM     13  N   UNL     1      54.197   2.390  19.805  0.00  0.00    +0.000 NA
ATOM     14  C   UNL     1      53.289   3.258  19.291  0.00  0.00    +0.000 A 
ATOM     15  C   UNL     1      52.680   4.243  20.069  0.00  0.00    +0.000 A 
ENDBRANCH   8  14
ENDBRANCH   2   8
ENDBRANCH   1   5
BRANCH   1  16
ATOM     16  N   UNL     1      46.808   4.520  15.971  0.00  0.00    +0.000 N 
ATOM     17  C   UNL     1      46.942   4.227  14.636  0.00  0.00    +0.000 C 
ATOM     18  O   UNL     1      47.318   3.128  14.242  0.00  0.00    +0.000 OA
ATOM     19  H   UNL     1      46.723   5.488  16.265  0.00  0.00    +0.000 HD
BRANCH  17  20
ATOM     20  C   UNL     1      46.542   5.285  13.700  0.00  0.00    +0.000 A 
ATOM     21  C   UNL     1      47.424   6.316  13.405  0.00  0.00    +0.000 A 
ATOM     22  S   UNL     1      46.828   7.408  12.239  0.00  0.00    +0.000 S 
ATOM     23  C   UNL     1      45.350   6.573  12.130  0.00  0.00    +0.000 A 
ATOM     24  N   UNL     1      44.360   7.003  11.300  0.00  0.00    +0.000 NA
ATOM     25  C   UNL     1      43.283   6.291  11.342  0.00  0.00    +0.000 A 
ATOM     26  N   UNL     1      43.104   5.193  12.143  0.00  0.00    +0.000 N 
ATOM     27  C   UNL     1      44.081   4.711  12.977  0.00  0.00    +0.000 A 
ATOM     28  O   UNL     1      43.899   3.704  13.655  0.00  0.00    +0.000 OA
ATOM     29  C   UNL     1      45.313   5.472  12.967  0.00  0.00    +0.000 A 
ATOM     30  H   UNL     1      42.235   4.678  12.128  0.00  0.00    +0.000 HD
ENDBRANCH  17  20
ENDBRANCH   1  16
TORSDOF 5
ENDMDL
MODEL 8
REMARK VINA RESULT:    -7.164      6.610     10.541
REMARK INTER + INTRA:         -10.206
REMARK INTER:                  -9.673
REMARK INTRA:                  -0.533
REMARK UNBOUND:                -0.948
REMARK  Name = 
REMARK  6 active torsions:
REMARK  status: ('A' for Active; 'I' for Inactive)
REMARK    1  A    between atoms: C_1  and  C_2
REMARK    2  A    between atoms: C_6  and  C_7
REMARK    3  A    between atoms: C_7  and  C_8
REMARK    4  A    between atoms: C_11  and  C_12
REMARK    5  A    between atoms: C_12  and  N_13
REMARK    6  A    between atoms: C_14  and  C_16
REMARK                            x       y       z     vdW  Elec       q    Type
REMARK                         _______ _______ _______ _____ _____    ______ ____
ROOT
ATOM      1  C   UNL     1      47.340   3.413  16.831  0.00  0.00    +0.000 C 
ENDROOT
BRANCH   1   5
ATOM      2  C   UNL     1      51.581   3.662  17.677  0.00  0.00    +0.000 A 
ATOM      3  C   UNL     1      50.798   4.823  17.622  0.00  0.00    +0.000 A 
ATOM      4  C   UNL     1      49.433   4.747  17.323  0.00  0.00    +0.000 A 
ATOM      5  C   UNL     1      48.820   3.507  17.098  0.00  0.00    +0.000 A 
ATOM      6  C   UNL     1      49.612   2.353  17.108  0.00  0.00    +0.000 A 
ATOM      7  C   UNL     1      50.977   2.429  17.396  0.00  0.00    +0.000 A 
BRANCH   2   8
ATOM      8  C   UNL     1      53.042   3.740  18.071  0.00  0.00    +0.000 C 
BRANCH   8  14
ATOM      9  C   UNL     1      54.769  -0.652  16.310  0.00  0.00    +0.000 C 
ATOM     10  C   UNL     1      54.555   0.299  17.446  0.00  0.00    +0.000 A 
ATOM     11  C   UNL     1      54.982  -0.000  18.737  0.00  0.00    +0.000 A 
ATOM     12  C   UNL     1      54.749   0.924  19.742  0.00  0.00    +0.000 A 
ATOM     13  N   UNL     1      54.127   2.112  19.549  0.00  0.00    +0.000 NA
ATOM     14  C   UNL     1      53.708   2.398  18.290  0.00  0.00    +0.000 A 
ATOM     15  C   UNL     1      53.915   1.524  17.223  0.00  0.00    +0.000 A 
ENDBRANCH   8  14
ENDBRANCH   2   8
ENDBRANCH   1   5
BRANCH   1  16
ATOM     16  N   UNL     1      46.910   4.411  15.887  0.00  0.00    +0.000 N 
ATOM     17  C   UNL     1      46.927   4.166  14.537  0.00  0.00    +0.000 C 
ATOM     18  O   UNL     1      47.263   3.082  14.072  0.00  0.00    +0.000 OA
ATOM     19  H   UNL     1      46.855   5.367  16.222  0.00  0.00    +0.000 HD
BRANCH  17  20
ATOM     20  C   UNL     1      46.453   5.258  13.677  0.00  0.00    +0.000 A 
ATOM     21  C   UNL     1      47.259   6.367  13.460  0.00  0.00    +0.000 A 
ATOM     22  S   UNL     1      46.586   7.496  12.374  0.00  0.00    +0.000 S 
ATOM     23  C   UNL     1      45.171   6.569  12.200  0.00  0.00    +0.000 A 
ATOM     24  N   UNL     1      44.152   6.986  11.399  0.00  0.00    +0.000 NA
ATOM     25  C   UNL     1      43.128   6.199  11.386  0.00  0.00    +0.000 A 
ATOM     26  N   UNL     1      43.027   5.036  12.105  0.00  0.00    +0.000 N 
ATOM     27  C   UNL     1      44.037   4.566  12.906  0.00  0.00    +0.000 A 
ATOM     28  O   UNL     1      43.928   3.502  13.509  0.00  0.00    +0.000 OA
ATOM     29  C   UNL     1      45.213   5.410  12.955  0.00  0.00    +0.000 A 
ATOM     30  H   UNL     1      42.197   4.464  12.049  0.00  0.00    +0.000 HD
ENDBRANCH  17  20
ENDBRANCH   1  16
TORSDOF 5
ENDMDL
MODEL 9
REMARK VINA RESULT:    -7.148      2.397      3.703
REMARK INTER + INTRA:         -10.185
REMARK INTER:                  -9.968
REMARK INTRA:                  -0.217
REMARK UNBOUND:                -0.948
REMARK  Name = 
REMARK  6 active torsions:
REMARK  status: ('A' for Active; 'I' for Inactive)
REMARK    1  A    between atoms: C_1  and  C_2
REMARK    2  A    between atoms: C_6  and  C_7
REMARK    3  A    between atoms: C_7  and  C_8
REMARK    4  A    between atoms: C_11  and  C_12
REMARK    5  A    between atoms: C_12  and  N_13
REMARK    6  A    between atoms: C_14  and  C_16
REMARK                            x       y       z     vdW  Elec       q    Type
REMARK                         _______ _______ _______ _____ _____    ______ ____
ROOT
ATOM      1  C   UNL     1      44.100   4.694  12.432  0.00  0.00    +0.000 C 
ENDROOT
BRANCH   1   5
ATOM      2  C   UNL     1      45.720   4.253   8.438  0.00  0.00    +0.000 A 
ATOM      3  C   UNL     1      44.934   3.239   9.002  0.00  0.00    +0.000 A 
ATOM      4  C   UNL     1      44.431   3.368  10.301  0.00  0.00    +0.000 A 
ATOM      5  C   UNL     1      44.684   4.524  11.053  0.00  0.00    +0.000 A 
ATOM      6  C   UNL     1      45.508   5.516  10.506  0.00  0.00    +0.000 A 
ATOM      7  C   UNL     1      46.019   5.383   9.213  0.00  0.00    +0.000 A 
BRANCH   2   8
ATOM      8  C   UNL     1      46.203   4.143   7.007  0.00  0.00    +0.000 C 
BRANCH   8  14
ATOM      9  C   UNL     1      46.877   0.695   3.397  0.00  0.00    +0.000 C 
ATOM     10  C   UNL     1      46.914   1.090   4.840  0.00  0.00    +0.000 A 
ATOM     11  C   UNL     1      47.312   0.196   5.830  0.00  0.00    +0.000 A 
ATOM     12  C   UNL     1      47.320   0.626   7.147  0.00  0.00    +0.000 A 
ATOM     13  N   UNL     1      46.962   1.874   7.538  0.00  0.00    +0.000 NA
ATOM     14  C   UNL     1      46.571   2.741   6.571  0.00  0.00    +0.000 A 
ATOM     15  C   UNL     1      46.546   2.386   5.222  0.00  0.00    +0.000 A 
ENDBRANCH   8  14
ENDBRANCH   2   8
ENDBRANCH   1   5
BRANCH   1  16
ATOM     16  N   UNL     1      45.096   5.124  13.376  0.00  0.00    +0.000 N 
ATOM     17  C   UNL     1      46.106   4.284  13.777  0.00  0.00    +0.000 C 
ATOM     18  O   UNL     1      46.235   3.152  13.322  0.00  0.00    +0.000 OA
ATOM     19  H   UNL     1      44.881   5.947  13.929  0.00  0.00    +0.000 HD
BRANCH  17  20
ATOM     20  C   UNL     1      47.068   4.842  14.735  0.00  0.00    +0.000 A 
ATOM     21  C   UNL     1      47.151   4.316  16.017  0.00  0.00    +0.000 A 
ATOM     22  S   UNL     1      48.376   5.029  16.967  0.00  0.00    +0.000 S 
ATOM     23  C   UNL     1      48.799   6.102  15.717  0.00  0.00    +0.000 A 
ATOM     24  N   UNL     1      49.792   7.018  15.883  0.00  0.00    +0.000 NA
ATOM     25  C   UNL     1      49.985   7.787  14.864  0.00  0.00    +0.000 A 
ATOM     26  N   UNL     1      49.270   7.727  13.695  0.00  0.00    +0.000 N 
ATOM     27  C   UNL     1      48.277   6.807  13.475  0.00  0.00    +0.000 A 
ATOM     28  O   UNL     1      47.680   6.759  12.403  0.00  0.00    +0.000 OA
ATOM     29  C   UNL     1      48.021   5.916  14.588  0.00  0.00    +0.000 A 
ATOM     30  H   UNL     1      49.472   8.359  12.933  0.00  0.00    +0.000 HD
ENDBRANCH  17  20
ENDBRANCH   1  16
TORSDOF 5
ENDMDL
