MODEL 1
REMARK VINA RESULT:    -8.593      0.000      0.000
REMARK INTER + INTRA:         -13.507
REMARK INTER:                 -12.360
REMARK INTRA:                  -1.147
REMARK UNBOUND:                -1.147
REMARK  Name = 
REMARK  8 active torsions:
REMARK  status: ('A' for Active; 'I' for Inactive)
REMARK    1  A    between atoms: N_1  and  C_2
REMARK    2  A    between atoms: C_2  and  N_3
REMARK    3  A    between atoms: C_2  and  C_11
REMARK    4  A    between atoms: N_3  and  C_4
REMARK    5  A    between atoms: C_4  and  C_5
REMARK    6  A    between atoms: C_14  and  C_15
REMARK    7  A    between atoms: C_15  and  N_16
REMARK    8  A    between atoms: C_17  and  C_19
REMARK                            x       y       z     vdW  Elec       q    Type
REMARK                         _______ _______ _______ _____ _____    ______ ____
ROOT
ATOM      1  C   UNL     1      44.888   5.397  11.673  0.00  0.00    +0.000 A 
ATOM      2  C   UNL     1      45.160   4.845  12.938  0.00  0.00    +0.000 A 
ATOM      3  C   UNL     1      46.326   5.172  13.634  0.00  0.00    +0.000 A 
ATOM      4  C   UNL     1      47.240   6.080  13.092  0.00  0.00    +0.000 A 
ATOM      5  C   UNL     1      47.011   6.584  11.805  0.00  0.00    +0.000 A 
ATOM      6  C   UNL     1      45.851   6.246  11.104  0.00  0.00    +0.000 A 
ENDROOT
BRANCH   1   7
ATOM      7  C   UNL     1      43.584   5.043  10.977  0.00  0.00    +0.000 C 
BRANCH   7   8
ATOM      8  N   UNL     1      42.738   6.195  10.766  0.00  0.00    +0.000 NA
ATOM      9  H   UNL     1      43.282   7.014  11.026  0.00  0.00    +0.000 HD
ATOM     10  H   UNL     1      41.981   6.161  11.440  0.00  0.00    +0.000 HD
ENDBRANCH   7   8
BRANCH   7  11
ATOM     11  N   UNL     1      43.741   4.485   9.650  0.00  0.00    +0.000 NA
ATOM     12  H   UNL     1      44.394   5.058   9.127  0.00  0.00    +0.000 HD
BRANCH  11  13
ATOM     13  C   UNL     1      44.270   3.119   9.679  0.00  0.00    +0.000 C 
BRANCH  13  14
ATOM     14  C   UNL     1      45.378   2.917   8.672  0.00  0.00    +0.000 A 
ATOM     15  C   UNL     1      45.903   1.638   8.433  0.00  0.00    +0.000 A 
ATOM     16  C   UNL     1      46.889   1.444   7.463  0.00  0.00    +0.000 A 
ATOM     17  C   UNL     1      47.358   2.527   6.722  0.00  0.00    +0.000 A 
ATOM     18  C   UNL     1      46.849   3.804   6.957  0.00  0.00    +0.000 A 
ATOM     19  C   UNL     1      45.866   3.999   7.927  0.00  0.00    +0.000 A 
ENDBRANCH  13  14
ENDBRANCH  11  13
ENDBRANCH   7  11
ENDBRANCH   1   7
BRANCH   4  20
ATOM     20  C   UNL     1      48.448   6.522  13.871  0.00  0.00    +0.000 C 
BRANCH  20  21
ATOM     21  N   UNL     1      48.139   6.716  15.261  0.00  0.00    +0.000 N 
ATOM     22  C   UNL     1      49.071   6.469  16.235  0.00  0.00    +0.000 C 
ATOM     23  O   UNL     1      50.216   6.110  15.971  0.00  0.00    +0.000 OA
ATOM     24  H   UNL     1      47.156   6.750  15.511  0.00  0.00    +0.000 HD
BRANCH  22  25
ATOM     25  C   UNL     1      48.646   6.727  17.615  0.00  0.00    +0.000 A 
ATOM     26  C   UNL     1      48.247   8.002  17.988  0.00  0.00    +0.000 A 
ATOM     27  S   UNL     1      47.752   8.109  19.617  0.00  0.00    +0.000 S 
ATOM     28  C   UNL     1      48.099   6.464  19.887  0.00  0.00    +0.000 A 
ATOM     29  N   UNL     1      47.928   5.908  21.119  0.00  0.00    +0.000 NA
ATOM     30  C   UNL     1      48.252   4.661  21.187  0.00  0.00    +0.000 A 
ATOM     31  N   UNL     1      48.726   3.918  20.137  0.00  0.00    +0.000 N 
ATOM     32  C   UNL     1      48.889   4.429  18.874  0.00  0.00    +0.000 A 
ATOM     33  O   UNL     1      49.275   3.719  17.944  0.00  0.00    +0.000 OA
ATOM     34  C   UNL     1      48.561   5.836  18.746  0.00  0.00    +0.000 A 
ATOM     35  H   UNL     1      48.951   2.940  20.256  0.00  0.00    +0.000 HD
ENDBRANCH  22  25
ENDBRANCH  20  21
ENDBRANCH   4  20
TORSDOF 8
ENDMDL
MODEL 2
REMARK VINA RESULT:    -8.488      1.610      2.035
REMARK INTER + INTRA:         -13.357
REMARK INTER:                 -12.058
REMARK INTRA:                  -1.300
REMARK UNBOUND:                -1.147
REMARK  Name = 
REMARK  8 active torsions:
REMARK  status: ('A' for Active; 'I' for Inactive)
REMARK    1  A    between atoms: N_1  and  C_2
REMARK    2  A    between atoms: C_2  and  N_3
REMARK    3  A    between atoms: C_2  and  C_11
REMARK    4  A    between atoms: N_3  and  C_4
REMARK    5  A    between atoms: C_4  and  C_5
REMARK    6  A    between atoms: C_14  and  C_15
REMARK    7  A    between atoms: C_15  and  N_16
REMARK    8  A    between atoms: C_17  and  C_19
REMARK                            x       y       z     vdW  Elec       q    Type
REMARK                         _______ _______ _______ _____ _____    ______ ____
ROOT
ATOM      1  C   UNL     1      44.785   4.267  11.596  0.00  0.00    +0.000 A 
ATOM      2  C   UNL     1      45.448   5.119  10.693  0.00  0.00    +0.000 A 
ATOM      3  C   UNL     1      46.098   6.274  11.132  0.00  0.00    +0.000 A 
ATOM      4  C   UNL     1      46.123   6.595  12.493  0.00  0.00    +0.000 A 
ATOM      5  C   UNL     1      45.410   5.790  13.391  0.00  0.00    +0.000 A 
ATOM      6  C   UNL     1      44.749   4.642  12.948  0.00  0.00    +0.000 A 
ENDROOT
BRANCH   1   7
ATOM      7  C   UNL     1      44.131   3.000  11.072  0.00  0.00    +0.000 C 
BRANCH   7   8
ATOM      8  N   UNL     1      42.774   2.840  11.543  0.00  0.00    +0.000 NA
ATOM      9  H   UNL     1      42.496   3.729  11.951  0.00  0.00    +0.000 HD
ATOM     10  H   UNL     1      42.782   2.189  12.319  0.00  0.00    +0.000 HD
ENDBRANCH   7   8
BRANCH   7  11
ATOM     11  N   UNL     1      44.003   2.938   9.631  0.00  0.00    +0.000 NA
ATOM     12  H   UNL     1      44.474   3.739   9.224  0.00  0.00    +0.000 HD
BRANCH  11  13
ATOM     13  C   UNL     1      44.612   1.730   9.069  0.00  0.00    +0.000 C 
BRANCH  13  14
ATOM     14  C   UNL     1      45.739   2.053   8.115  0.00  0.00    +0.000 A 
ATOM     15  C   UNL     1      46.705   1.085   7.796  0.00  0.00    +0.000 A 
ATOM     16  C   UNL     1      47.714   1.366   6.873  0.00  0.00    +0.000 A 
ATOM     17  C   UNL     1      47.767   2.616   6.259  0.00  0.00    +0.000 A 
ATOM     18  C   UNL     1      46.817   3.587   6.575  0.00  0.00    +0.000 A 
ATOM     19  C   UNL     1      45.810   3.308   7.498  0.00  0.00    +0.000 A 
ENDBRANCH  13  14
ENDBRANCH  11  13
ENDBRANCH   7  11
ENDBRANCH   1   7
BRANCH   4  20
ATOM     20  C   UNL     1      46.904   7.778  12.996  0.00  0.00    +0.000 C 
BRANCH  20  21
ATOM     21  N   UNL     1      47.382   7.564  14.335  0.00  0.00    +0.000 N 
ATOM     22  C   UNL     1      48.613   7.008  14.567  0.00  0.00    +0.000 C 
ATOM     23  O   UNL     1      49.376   6.700  13.654  0.00  0.00    +0.000 OA
ATOM     24  H   UNL     1      46.687   7.560  15.074  0.00  0.00    +0.000 HD
BRANCH  22  25
ATOM     25  C   UNL     1      49.001   6.864  15.974  0.00  0.00    +0.000 A 
ATOM     26  C   UNL     1      49.667   7.896  16.616  0.00  0.00    +0.000 A 
ATOM     27  S   UNL     1      50.005   7.570  18.256  0.00  0.00    +0.000 S 
ATOM     28  C   UNL     1      49.312   6.018  18.146  0.00  0.00    +0.000 A 
ATOM     29  N   UNL     1      49.307   5.179  19.219  0.00  0.00    +0.000 NA
ATOM     30  C   UNL     1      48.772   4.028  18.989  0.00  0.00    +0.000 A 
ATOM     31  N   UNL     1      48.238   3.641  17.788  0.00  0.00    +0.000 N 
ATOM     32  C   UNL     1      48.197   4.462  16.689  0.00  0.00    +0.000 A 
ATOM     33  O   UNL     1      47.667   4.096  15.638  0.00  0.00    +0.000 OA
ATOM     34  C   UNL     1      48.807   5.763  16.886  0.00  0.00    +0.000 A 
ATOM     35  H   UNL     1      47.823   2.725  17.677  0.00  0.00    +0.000 HD
ENDBRANCH  22  25
ENDBRANCH  20  21
ENDBRANCH   4  20
TORSDOF 8
ENDMDL
MODEL 3
REMARK VINA RESULT:    -8.331      1.495      2.486
REMARK INTER + INTRA:         -13.130
REMARK INTER:                 -11.853
REMARK INTRA:                  -1.277
REMARK UNBOUND:                -1.147
REMARK  Name = 
REMARK  8 active torsions:
REMARK  status: ('A' for Active; 'I' for Inactive)
REMARK    1  A    between atoms: N_1  and  C_2
REMARK    2  A    between atoms: C_2  and  N_3
REMARK    3  A    between atoms: C_2  and  C_11
REMARK    4  A    between atoms: N_3  and  C_4
REMARK    5  A    between atoms: C_4  and  C_5
REMARK    6  A    between atoms: C_14  and  C_15
REMARK    7  A    between atoms: C_15  and  N_16
REMARK    8  A    between atoms: C_17  and  C_19
REMARK                            x       y       z     vdW  Elec       q    Type
REMARK                         _______ _______ _______ _____ _____    ______ ____
ROOT
ATOM      1  C   UNL     1      44.971   5.399  11.679  0.00  0.00    +0.000 A 
ATOM      2  C   UNL     1      45.260   4.808  12.923  0.00  0.00    +0.000 A 
ATOM      3  C   UNL     1      46.396   5.169  13.649  0.00  0.00    +0.000 A 
ATOM      4  C   UNL     1      47.263   6.151  13.160  0.00  0.00    +0.000 A 
ATOM      5  C   UNL     1      47.020   6.697  11.894  0.00  0.00    +0.000 A 
ATOM      6  C   UNL     1      45.890   6.325  11.162  0.00  0.00    +0.000 A 
ENDROOT
BRANCH   1   7
ATOM      7  C   UNL     1      43.698   5.003  10.950  0.00  0.00    +0.000 C 
BRANCH   7   8
ATOM      8  N   UNL     1      42.807   6.121  10.742  0.00  0.00    +0.000 NA
ATOM      9  H   UNL     1      41.899   5.734  10.498  0.00  0.00    +0.000 HD
ATOM     10  H   UNL     1      43.109   6.618   9.912  0.00  0.00    +0.000 HD
ENDBRANCH   7   8
BRANCH   7  11
ATOM     11  N   UNL     1      43.906   4.478   9.617  0.00  0.00    +0.000 NA
ATOM     12  H   UNL     1      44.617   5.031   9.152  0.00  0.00    +0.000 HD
BRANCH  11  13
ATOM     13  C   UNL     1      44.362   3.085   9.631  0.00  0.00    +0.000 C 
BRANCH  13  14
ATOM     14  C   UNL     1      45.419   2.823   8.583  0.00  0.00    +0.000 A 
ATOM     15  C   UNL     1      45.910   3.869   7.786  0.00  0.00    +0.000 A 
ATOM     16  C   UNL     1      46.926   3.635   6.856  0.00  0.00    +0.000 A 
ATOM     17  C   UNL     1      47.459   2.356   6.714  0.00  0.00    +0.000 A 
ATOM     18  C   UNL     1      46.973   1.309   7.495  0.00  0.00    +0.000 A 
ATOM     19  C   UNL     1      45.957   1.539   8.423  0.00  0.00    +0.000 A 
ENDBRANCH  13  14
ENDBRANCH  11  13
ENDBRANCH   7  11
ENDBRANCH   1   7
BRANCH   4  20
ATOM     20  C   UNL     1      48.435   6.626  13.975  0.00  0.00    +0.000 C 
BRANCH  20  21
ATOM     21  N   UNL     1      48.075   6.820  15.354  0.00  0.00    +0.000 N 
ATOM     22  C   UNL     1      48.905   6.412  16.366  0.00  0.00    +0.000 C 
ATOM     23  O   UNL     1      50.001   5.900  16.149  0.00  0.00    +0.000 OA
ATOM     24  H   UNL     1      47.095   6.988  15.553  0.00  0.00    +0.000 HD
BRANCH  22  25
ATOM     25  C   UNL     1      48.442   6.687  17.730  0.00  0.00    +0.000 A 
ATOM     26  C   UNL     1      48.318   5.648  18.640  0.00  0.00    +0.000 A 
ATOM     27  S   UNL     1      47.804   6.156  20.185  0.00  0.00    +0.000 S 
ATOM     28  C   UNL     1      47.685   7.775  19.672  0.00  0.00    +0.000 A 
ATOM     29  N   UNL     1      47.252   8.747  20.523  0.00  0.00    +0.000 NA
ATOM     30  C   UNL     1      47.188   9.923  19.998  0.00  0.00    +0.000 A 
ATOM     31  N   UNL     1      47.522  10.218  18.701  0.00  0.00    +0.000 N 
ATOM     32  C   UNL     1      47.988   9.278  17.817  0.00  0.00    +0.000 A 
ATOM     33  O   UNL     1      48.323   9.589  16.672  0.00  0.00    +0.000 OA
ATOM     34  C   UNL     1      48.058   7.931  18.351  0.00  0.00    +0.000 A 
ATOM     35  H   UNL     1      47.460  11.166  18.354  0.00  0.00    +0.000 HD
ENDBRANCH  22  25
ENDBRANCH  20  21
ENDBRANCH   4  20
TORSDOF 8
ENDMDL
MODEL 4
REMARK VINA RESULT:    -7.733      1.621      2.134
REMARK INTER + INTRA:         -12.271
REMARK INTER:                 -11.015
REMARK INTRA:                  -1.256
REMARK UNBOUND:                -1.147
REMARK  Name = 
REMARK  8 active torsions:
REMARK  status: ('A' for Active; 'I' for Inactive)
REMARK    1  A    between atoms: N_1  and  C_2
REMARK    2  A    between atoms: C_2  and  N_3
REMARK    3  A    between atoms: C_2  and  C_11
REMARK    4  A    between atoms: N_3  and  C_4
REMARK    5  A    between atoms: C_4  and  C_5
REMARK    6  A    between atoms: C_14  and  C_15
REMARK    7  A    between atoms: C_15  and  N_16
REMARK    8  A    between atoms: C_17  and  C_19
REMARK                            x       y       z     vdW  Elec       q    Type
REMARK                         _______ _______ _______ _____ _____    ______ ____
ROOT
ATOM      1  C   UNL     1      45.618   4.381  12.116  0.00  0.00    +0.000 A 
ATOM      2  C   UNL     1      45.596   5.574  11.370  0.00  0.00    +0.000 A 
ATOM      3  C   UNL     1      46.249   6.722  11.822  0.00  0.00    +0.000 A 
ATOM      4  C   UNL     1      46.965   6.700  13.023  0.00  0.00    +0.000 A 
ATOM      5  C   UNL     1      46.938   5.538  13.805  0.00  0.00    +0.000 A 
ATOM      6  C   UNL     1      46.272   4.394  13.358  0.00  0.00    +0.000 A 
ENDROOT
BRANCH   1   7
ATOM      7  C   UNL     1      44.928   3.148  11.558  0.00  0.00    +0.000 C 
BRANCH   7   8
ATOM      8  N   UNL     1      43.893   2.647  12.434  0.00  0.00    +0.000 NA
ATOM      9  H   UNL     1      43.248   2.114  11.856  0.00  0.00    +0.000 HD
ATOM     10  H   UNL     1      43.352   3.436  12.770  0.00  0.00    +0.000 HD
ENDBRANCH   7   8
BRANCH   7  11
ATOM     11  N   UNL     1      44.240   3.358  10.301  0.00  0.00    +0.000 NA
ATOM     12  H   UNL     1      44.639   4.168   9.839  0.00  0.00    +0.000 HD
BRANCH  11  13
ATOM     13  C   UNL     1      44.375   2.215   9.395  0.00  0.00    +0.000 C 
BRANCH  13  14
ATOM     14  C   UNL     1      45.546   2.372   8.452  0.00  0.00    +0.000 A 
ATOM     15  C   UNL     1      46.321   1.261   8.083  0.00  0.00    +0.000 A 
ATOM     16  C   UNL     1      47.368   1.399   7.169  0.00  0.00    +0.000 A 
ATOM     17  C   UNL     1      47.650   2.646   6.615  0.00  0.00    +0.000 A 
ATOM     18  C   UNL     1      46.892   3.757   6.982  0.00  0.00    +0.000 A 
ATOM     19  C   UNL     1      45.846   3.623   7.896  0.00  0.00    +0.000 A 
ENDBRANCH  13  14
ENDBRANCH  11  13
ENDBRANCH   7  11
ENDBRANCH   1   7
BRANCH   4  20
ATOM     20  C   UNL     1      47.759   7.894  13.475  0.00  0.00    +0.000 C 
BRANCH  20  21
ATOM     21  N   UNL     1      47.671   8.080  14.898  0.00  0.00    +0.000 N 
ATOM     22  C   UNL     1      48.417   9.038  15.534  0.00  0.00    +0.000 C 
ATOM     23  O   UNL     1      49.163   9.800  14.924  0.00  0.00    +0.000 OA
ATOM     24  H   UNL     1      47.281   7.314  15.437  0.00  0.00    +0.000 HD
BRANCH  22  25
ATOM     25  C   UNL     1      48.222   9.149  16.983  0.00  0.00    +0.000 A 
ATOM     26  C   UNL     1      47.960  10.387  17.552  0.00  0.00    +0.000 A 
ATOM     27  S   UNL     1      47.725  10.322  19.241  0.00  0.00    +0.000 S 
ATOM     28  C   UNL     1      48.012   8.644  19.270  0.00  0.00    +0.000 A 
ATOM     29  N   UNL     1      47.997   7.954  20.445  0.00  0.00    +0.000 NA
ATOM     30  C   UNL     1      48.253   6.696  20.325  0.00  0.00    +0.000 A 
ATOM     31  N   UNL     1      48.518   6.063  19.138  0.00  0.00    +0.000 N 
ATOM     32  C   UNL     1      48.517   6.711  17.929  0.00  0.00    +0.000 A 
ATOM     33  O   UNL     1      48.714   6.100  16.877  0.00  0.00    +0.000 OA
ATOM     34  C   UNL     1      48.257   8.135  18.009  0.00  0.00    +0.000 A 
ATOM     35  H   UNL     1      48.700   5.068  19.112  0.00  0.00    +0.000 HD
ENDBRANCH  22  25
ENDBRANCH  20  21
ENDBRANCH   4  20
TORSDOF 8
ENDMDL
MODEL 5
REMARK VINA RESULT:    -7.681      2.729      3.441
REMARK INTER + INTRA:         -12.196
REMARK INTER:                 -11.158
REMARK INTRA:                  -1.038
REMARK UNBOUND:                -1.147
REMARK  Name = 
REMARK  8 active torsions:
REMARK  status: ('A' for Active; 'I' for Inactive)
REMARK    1  A    between atoms: N_1  and  C_2
REMARK    2  A    between atoms: C_2  and  N_3
REMARK    3  A    between atoms: C_2  and  C_11
REMARK    4  A    between atoms: N_3  and  C_4
REMARK    5  A    between atoms: C_4  and  C_5
REMARK    6  A    between atoms: C_14  and  C_15
REMARK    7  A    between atoms: C_15  and  N_16
REMARK    8  A    between atoms: C_17  and  C_19
REMARK                            x       y       z     vdW  Elec       q    Type
REMARK                         _______ _______ _______ _____ _____    ______ ____
ROOT
ATOM      1  C   UNL     1      46.196   4.729  12.947  0.00  0.00    +0.000 A 
ATOM      2  C   UNL     1      46.512   4.096  14.163  0.00  0.00    +0.000 A 
ATOM      3  C   UNL     1      47.379   4.689  15.084  0.00  0.00    +0.000 A 
ATOM      4  C   UNL     1      47.933   5.946  14.821  0.00  0.00    +0.000 A 
ATOM      5  C   UNL     1      47.677   6.553  13.585  0.00  0.00    +0.000 A 
ATOM      6  C   UNL     1      46.821   5.952  12.660  0.00  0.00    +0.000 A 
ENDROOT
BRANCH   1   7
ATOM      7  C   UNL     1      45.212   4.061  12.000  0.00  0.00    +0.000 C 
BRANCH   7   8
ATOM      8  N   UNL     1      44.156   3.365  12.699  0.00  0.00    +0.000 NA
ATOM      9  H   UNL     1      44.278   2.373  12.507  0.00  0.00    +0.000 HD
ATOM     10  H   UNL     1      43.273   3.607  12.262  0.00  0.00    +0.000 HD
ENDBRANCH   7   8
BRANCH   7  11
ATOM     11  N   UNL     1      44.503   4.972  11.127  0.00  0.00    +0.000 NA
ATOM     12  H   UNL     1      45.166   5.626  10.725  0.00  0.00    +0.000 HD
BRANCH  11  13
ATOM     13  C   UNL     1      43.835   4.278  10.022  0.00  0.00    +0.000 C 
BRANCH  13  14
ATOM     14  C   UNL     1      44.821   3.594   9.102  0.00  0.00    +0.000 A 
ATOM     15  C   UNL     1      45.623   4.345   8.229  0.00  0.00    +0.000 A 
ATOM     16  C   UNL     1      46.572   3.717   7.420  0.00  0.00    +0.000 A 
ATOM     17  C   UNL     1      46.728   2.334   7.475  0.00  0.00    +0.000 A 
ATOM     18  C   UNL     1      45.931   1.578   8.333  0.00  0.00    +0.000 A 
ATOM     19  C   UNL     1      44.981   2.203   9.141  0.00  0.00    +0.000 A 
ENDBRANCH  13  14
ENDBRANCH  11  13
ENDBRANCH   7  11
ENDBRANCH   1   7
BRANCH   4  20
ATOM     20  C   UNL     1      48.786   6.645  15.844  0.00  0.00    +0.000 C 
BRANCH  20  21
ATOM     21  N   UNL     1      49.855   5.801  16.306  0.00  0.00    +0.000 N 
ATOM     22  C   UNL     1      50.202   5.762  17.632  0.00  0.00    +0.000 C 
ATOM     23  O   UNL     1      49.603   6.411  18.486  0.00  0.00    +0.000 OA
ATOM     24  H   UNL     1      50.515   5.475  15.609  0.00  0.00    +0.000 HD
BRANCH  22  25
ATOM     25  C   UNL     1      51.290   4.845  17.986  0.00  0.00    +0.000 A 
ATOM     26  C   UNL     1      52.444   5.338  18.577  0.00  0.00    +0.000 A 
ATOM     27  S   UNL     1      53.585   4.126  18.954  0.00  0.00    +0.000 S 
ATOM     28  C   UNL     1      52.590   2.910  18.296  0.00  0.00    +0.000 A 
ATOM     29  N   UNL     1      53.002   1.612  18.267  0.00  0.00    +0.000 NA
ATOM     30  C   UNL     1      52.162   0.801  17.720  0.00  0.00    +0.000 A 
ATOM     31  N   UNL     1      50.946   1.167  17.204  0.00  0.00    +0.000 N 
ATOM     32  C   UNL     1      50.478   2.457  17.236  0.00  0.00    +0.000 A 
ATOM     33  O   UNL     1      49.360   2.741  16.804  0.00  0.00    +0.000 OA
ATOM     34  C   UNL     1      51.396   3.416  17.820  0.00  0.00    +0.000 A 
ATOM     35  H   UNL     1      50.327   0.478  16.798  0.00  0.00    +0.000 HD
ENDBRANCH  22  25
ENDBRANCH  20  21
ENDBRANCH   4  20
TORSDOF 8
ENDMDL
MODEL 6
REMARK VINA RESULT:    -7.212      2.534      3.199
REMARK INTER + INTRA:         -11.521
REMARK INTER:                 -10.354
REMARK INTRA:                  -1.167
REMARK UNBOUND:                -1.147
REMARK  Name = 
REMARK  8 active torsions:
REMARK  status: ('A' for Active; 'I' for Inactive)
REMARK    1  A    between atoms: N_1  and  C_2
REMARK    2  A    between atoms: C_2  and  N_3
REMARK    3  A    between atoms: C_2  and  C_11
REMARK    4  A    between atoms: N_3  and  C_4
REMARK    5  A    between atoms: C_4  and  C_5
REMARK    6  A    between atoms: C_14  and  C_15
REMARK    7  A    between atoms: C_15  and  N_16
REMARK    8  A    between atoms: C_17  and  C_19
REMARK                            x       y       z     vdW  Elec       q    Type
REMARK                         _______ _______ _______ _____ _____    ______ ____
ROOT
ATOM      1  C   UNL     1      44.483   5.454  12.096  0.00  0.00    +0.000 A 
ATOM      2  C   UNL     1      45.222   6.634  11.896  0.00  0.00    +0.000 A 
ATOM      3  C   UNL     1      46.374   6.901  12.638  0.00  0.00    +0.000 A 
ATOM      4  C   UNL     1      46.832   5.979  13.585  0.00  0.00    +0.000 A 
ATOM      5  C   UNL     1      46.068   4.833  13.838  0.00  0.00    +0.000 A 
ATOM      6  C   UNL     1      44.907   4.574  13.104  0.00  0.00    +0.000 A 
ENDROOT
BRANCH   1   7
ATOM      7  C   UNL     1      43.261   5.192  11.231  0.00  0.00    +0.000 C 
BRANCH   7   8
ATOM      8  N   UNL     1      42.492   6.389  10.979  0.00  0.00    +0.000 NA
ATOM      9  H   UNL     1      41.688   6.113  10.421  0.00  0.00    +0.000 HD
ATOM     10  H   UNL     1      43.035   6.993  10.372  0.00  0.00    +0.000 HD
ENDBRANCH   7   8
BRANCH   7  11
ATOM     11  N   UNL     1      43.557   4.689   9.906  0.00  0.00    +0.000 NA
ATOM     12  H   UNL     1      44.292   5.255   9.496  0.00  0.00    +0.000 HD
BRANCH  11  13
ATOM     13  C   UNL     1      44.023   3.300   9.928  0.00  0.00    +0.000 C 
BRANCH  13  14
ATOM     14  C   UNL     1      45.137   3.059   8.935  0.00  0.00    +0.000 A 
ATOM     15  C   UNL     1      45.620   1.761   8.705  0.00  0.00    +0.000 A 
ATOM     16  C   UNL     1      46.610   1.532   7.747  0.00  0.00    +0.000 A 
ATOM     17  C   UNL     1      47.127   2.597   7.012  0.00  0.00    +0.000 A 
ATOM     18  C   UNL     1      46.660   3.891   7.239  0.00  0.00    +0.000 A 
ATOM     19  C   UNL     1      45.672   4.122   8.196  0.00  0.00    +0.000 A 
ENDBRANCH  13  14
ENDBRANCH  11  13
ENDBRANCH   7  11
ENDBRANCH   1   7
BRANCH   4  20
ATOM     20  C   UNL     1      48.125   6.201  14.320  0.00  0.00    +0.000 C 
BRANCH  20  21
ATOM     21  N   UNL     1      48.137   7.469  14.997  0.00  0.00    +0.000 N 
ATOM     22  C   UNL     1      49.217   8.309  14.908  0.00  0.00    +0.000 C 
ATOM     23  O   UNL     1      50.203   8.040  14.225  0.00  0.00    +0.000 OA
ATOM     24  H   UNL     1      47.475   7.590  15.756  0.00  0.00    +0.000 HD
BRANCH  22  25
ATOM     25  C   UNL     1      49.102   9.585  15.622  0.00  0.00    +0.000 A 
ATOM     26  C   UNL     1      49.379  10.773  14.962  0.00  0.00    +0.000 A 
ATOM     27  S   UNL     1      49.157  12.157  15.933  0.00  0.00    +0.000 S 
ATOM     28  C   UNL     1      48.728  11.209  17.281  0.00  0.00    +0.000 A 
ATOM     29  N   UNL     1      48.444  11.789  18.480  0.00  0.00    +0.000 NA
ATOM     30  C   UNL     1      48.158  10.953  19.420  0.00  0.00    +0.000 A 
ATOM     31  N   UNL     1      48.126   9.590  19.269  0.00  0.00    +0.000 N 
ATOM     32  C   UNL     1      48.378   8.964  18.075  0.00  0.00    +0.000 A 
ATOM     33  O   UNL     1      48.295   7.739  17.966  0.00  0.00    +0.000 OA
ATOM     34  C   UNL     1      48.728   9.858  16.988  0.00  0.00    +0.000 A 
ATOM     35  H   UNL     1      47.883   8.990  20.046  0.00  0.00    +0.000 HD
ENDBRANCH  22  25
ENDBRANCH  20  21
ENDBRANCH   4  20
TORSDOF 8
ENDMDL
MODEL 7
REMARK VINA RESULT:    -7.172      3.316      8.880
REMARK INTER + INTRA:         -11.464
REMARK INTER:                  -9.680
REMARK INTRA:                  -1.784
REMARK UNBOUND:                -1.147
REMARK  Name = 
REMARK  8 active torsions:
REMARK  status: ('A' for Active; 'I' for Inactive)
REMARK    1  A    between atoms: N_1  and  C_2
REMARK    2  A    between atoms: C_2  and  N_3
REMARK    3  A    between atoms: C_2  and  C_11
REMARK    4  A    between atoms: N_3  and  C_4
REMARK    5  A    between atoms: C_4  and  C_5
REMARK    6  A    between atoms: C_14  and  C_15
REMARK    7  A    between atoms: C_15  and  N_16
REMARK    8  A    between atoms: C_17  and  C_19
REMARK                            x       y       z     vdW  Elec       q    Type
REMARK                         _______ _______ _______ _____ _____    ______ ____
ROOT
ATOM      1  C   UNL     1      48.806   8.062  16.268  0.00  0.00    +0.000 A 
ATOM      2  C   UNL     1      47.963   8.974  15.607  0.00  0.00    +0.000 A 
ATOM      3  C   UNL     1      47.707   8.862  14.238  0.00  0.00    +0.000 A 
ATOM      4  C   UNL     1      48.270   7.817  13.499  0.00  0.00    +0.000 A 
ATOM      5  C   UNL     1      49.162   6.944  14.134  0.00  0.00    +0.000 A 
ATOM      6  C   UNL     1      49.428   7.065  15.500  0.00  0.00    +0.000 A 
ENDROOT
BRANCH   1   7
ATOM      7  C   UNL     1      49.016   8.202  17.766  0.00  0.00    +0.000 C 
BRANCH   7   8
ATOM      8  N   UNL     1      47.772   8.220  18.501  0.00  0.00    +0.000 NA
ATOM      9  H   UNL     1      47.992   7.974  19.463  0.00  0.00    +0.000 HD
ATOM     10  H   UNL     1      47.193   7.459  18.165  0.00  0.00    +0.000 HD
ENDBRANCH   7   8
BRANCH   7  11
ATOM     11  N   UNL     1      49.758   7.118  18.375  0.00  0.00    +0.000 NA
ATOM     12  H   UNL     1      50.390   7.501  19.070  0.00  0.00    +0.000 HD
BRANCH  11  13
ATOM     13  C   UNL     1      48.884   6.154  19.049  0.00  0.00    +0.000 C 
BRANCH  13  14
ATOM     14  C   UNL     1      48.731   4.876  18.256  0.00  0.00    +0.000 A 
ATOM     15  C   UNL     1      47.546   4.608  17.553  0.00  0.00    +0.000 A 
ATOM     16  C   UNL     1      47.427   3.454  16.777  0.00  0.00    +0.000 A 
ATOM     17  C   UNL     1      48.490   2.556  16.696  0.00  0.00    +0.000 A 
ATOM     18  C   UNL     1      49.669   2.809  17.397  0.00  0.00    +0.000 A 
ATOM     19  C   UNL     1      49.789   3.961  18.175  0.00  0.00    +0.000 A 
ENDBRANCH  13  14
ENDBRANCH  11  13
ENDBRANCH   7  11
ENDBRANCH   1   7
BRANCH   4  20
ATOM     20  C   UNL     1      47.925   7.620  12.049  0.00  0.00    +0.000 C 
BRANCH  20  21
ATOM     21  N   UNL     1      47.144   6.429  11.848  0.00  0.00    +0.000 N 
ATOM     22  C   UNL     1      45.774   6.471  11.862  0.00  0.00    +0.000 C 
ATOM     23  O   UNL     1      45.151   7.520  12.008  0.00  0.00    +0.000 OA
ATOM     24  H   UNL     1      47.616   5.543  11.990  0.00  0.00    +0.000 HD
BRANCH  22  25
ATOM     25  C   UNL     1      45.088   5.198  11.621  0.00  0.00    +0.000 A 
ATOM     26  C   UNL     1      44.373   4.594  12.644  0.00  0.00    +0.000 A 
ATOM     27  S   UNL     1      43.611   3.141  12.175  0.00  0.00    +0.000 S 
ATOM     28  C   UNL     1      44.253   3.250  10.601  0.00  0.00    +0.000 A 
ATOM     29  N   UNL     1      44.008   2.277   9.679  0.00  0.00    +0.000 NA
ATOM     30  C   UNL     1      44.574   2.475   8.537  0.00  0.00    +0.000 A 
ATOM     31  N   UNL     1      45.358   3.557   8.231  0.00  0.00    +0.000 N 
ATOM     32  C   UNL     1      45.609   4.573   9.118  0.00  0.00    +0.000 A 
ATOM     33  O   UNL     1      46.281   5.554   8.792  0.00  0.00    +0.000 OA
ATOM     34  C   UNL     1      45.014   4.390  10.428  0.00  0.00    +0.000 A 
ATOM     35  H   UNL     1      45.764   3.657   7.310  0.00  0.00    +0.000 HD
ENDBRANCH  22  25
ENDBRANCH  20  21
ENDBRANCH   4  20
TORSDOF 8
ENDMDL
MODEL 8
REMARK VINA RESULT:    -7.029      1.896      2.384
REMARK INTER + INTRA:         -11.258
REMARK INTER:                 -10.407
REMARK INTRA:                  -0.851
REMARK UNBOUND:                -1.147
REMARK  Name = 
REMARK  8 active torsions:
REMARK  status: ('A' for Active; 'I' for Inactive)
REMARK    1  A    between atoms: N_1  and  C_2
REMARK    2  A    between atoms: C_2  and  N_3
REMARK    3  A    between atoms: C_2  and  C_11
REMARK    4  A    between atoms: N_3  and  C_4
REMARK    5  A    between atoms: C_4  and  C_5
REMARK    6  A    between atoms: C_14  and  C_15
REMARK    7  A    between atoms: C_15  and  N_16
REMARK    8  A    between atoms: C_17  and  C_19
REMARK                            x       y       z     vdW  Elec       q    Type
REMARK                         _______ _______ _______ _____ _____    ______ ____
ROOT
ATOM      1  C   UNL     1      44.871   6.224  11.934  0.00  0.00    +0.000 A 
ATOM      2  C   UNL     1      46.010   5.425  12.143  0.00  0.00    +0.000 A 
ATOM      3  C   UNL     1      47.139   5.929  12.792  0.00  0.00    +0.000 A 
ATOM      4  C   UNL     1      47.149   7.242  13.272  0.00  0.00    +0.000 A 
ATOM      5  C   UNL     1      46.046   8.066  13.011  0.00  0.00    +0.000 A 
ATOM      6  C   UNL     1      44.923   7.564  12.350  0.00  0.00    +0.000 A 
ENDROOT
BRANCH   1   7
ATOM      7  C   UNL     1      43.653   5.613  11.262  0.00  0.00    +0.000 C 
BRANCH   7   8
ATOM      8  N   UNL     1      42.587   6.570  11.071  0.00  0.00    +0.000 NA
ATOM      9  H   UNL     1      41.992   6.519  11.893  0.00  0.00    +0.000 HD
ATOM     10  H   UNL     1      42.004   6.248  10.307  0.00  0.00    +0.000 HD
ENDBRANCH   7   8
BRANCH   7  11
ATOM     11  N   UNL     1      43.894   5.097   9.931  0.00  0.00    +0.000 NA
ATOM     12  H   UNL     1      44.757   5.493   9.576  0.00  0.00    +0.000 HD
BRANCH  11  13
ATOM     13  C   UNL     1      44.031   3.639   9.915  0.00  0.00    +0.000 C 
BRANCH  13  14
ATOM     14  C   UNL     1      45.070   3.177   8.919  0.00  0.00    +0.000 A 
ATOM     15  C   UNL     1      45.715   4.099   8.080  0.00  0.00    +0.000 A 
ATOM     16  C   UNL     1      46.714   3.678   7.199  0.00  0.00    +0.000 A 
ATOM     17  C   UNL     1      47.077   2.334   7.149  0.00  0.00    +0.000 A 
ATOM     18  C   UNL     1      46.437   1.409   7.972  0.00  0.00    +0.000 A 
ATOM     19  C   UNL     1      45.437   1.826   8.851  0.00  0.00    +0.000 A 
ENDBRANCH  13  14
ENDBRANCH  11  13
ENDBRANCH   7  11
ENDBRANCH   1   7
BRANCH   4  20
ATOM     20  C   UNL     1      48.314   7.770  14.063  0.00  0.00    +0.000 C 
BRANCH  20  21
ATOM     21  N   UNL     1      48.603   6.936  15.198  0.00  0.00    +0.000 N 
ATOM     22  C   UNL     1      48.850   7.480  16.432  0.00  0.00    +0.000 C 
ATOM     23  O   UNL     1      48.802   8.691  16.636  0.00  0.00    +0.000 OA
ATOM     24  H   UNL     1      48.904   5.987  15.004  0.00  0.00    +0.000 HD
BRANCH  22  25
ATOM     25  C   UNL     1      49.107   6.528  17.516  0.00  0.00    +0.000 A 
ATOM     26  C   UNL     1      48.132   5.609  17.875  0.00  0.00    +0.000 A 
ATOM     27  S   UNL     1      48.617   4.558  19.128  0.00  0.00    +0.000 S 
ATOM     28  C   UNL     1      50.129   5.329  19.262  0.00  0.00    +0.000 A 
ATOM     29  N   UNL     1      51.035   4.930  20.198  0.00  0.00    +0.000 NA
ATOM     30  C   UNL     1      52.128   5.615  20.205  0.00  0.00    +0.000 A 
ATOM     31  N   UNL     1      52.400   6.659  19.359  0.00  0.00    +0.000 N 
ATOM     32  C   UNL     1      51.530   7.078  18.385  0.00  0.00    +0.000 A 
ATOM     33  O   UNL     1      51.828   7.990  17.612  0.00  0.00    +0.000 OA
ATOM     34  C   UNL     1      50.273   6.355  18.348  0.00  0.00    +0.000 A 
ATOM     35  H   UNL     1      53.284   7.149  19.410  0.00  0.00    +0.000 HD
ENDBRANCH  22  25
ENDBRANCH  20  21
ENDBRANCH   4  20
TORSDOF 8
ENDMDL
MODEL 9
REMARK VINA RESULT:    -6.977      3.698      9.142
REMARK INTER + INTRA:         -11.183
REMARK INTER:                  -9.037
REMARK INTRA:                  -2.146
REMARK UNBOUND:                -1.147
REMARK  Name = 
REMARK  8 active torsions:
REMARK  status: ('A' for Active; 'I' for Inactive)
REMARK    1  A    between atoms: N_1  and  C_2
REMARK    2  A    between atoms: C_2  and  N_3
REMARK    3  A    between atoms: C_2  and  C_11
REMARK    4  A    between atoms: N_3  and  C_4
REMARK    5  A    between atoms: C_4  and  C_5
REMARK    6  A    between atoms: C_14  and  C_15
REMARK    7  A    between atoms: C_15  and  N_16
REMARK    8  A    between atoms: C_17  and  C_19
REMARK                            x       y       z     vdW  Elec       q    Type
REMARK                         _______ _______ _______ _____ _____    ______ ____
ROOT
ATOM      1  C   UNL     1      50.728   4.558  19.026  0.00  0.00    +0.000 A 
ATOM      2  C   UNL     1      50.786   3.625  17.975  0.00  0.00    +0.000 A 
ATOM      3  C   UNL     1      49.629   3.201  17.319  0.00  0.00    +0.000 A 
ATOM      4  C   UNL     1      48.383   3.720  17.682  0.00  0.00    +0.000 A 
ATOM      5  C   UNL     1      48.307   4.599  18.770  0.00  0.00    +0.000 A 
ATOM      6  C   UNL     1      49.464   5.012  19.434  0.00  0.00    +0.000 A 
ENDROOT
BRANCH   1   7
ATOM      7  C   UNL     1      52.021   5.020  19.678  0.00  0.00    +0.000 C 
BRANCH   7   8
ATOM      8  N   UNL     1      52.747   3.935  20.300  0.00  0.00    +0.000 NA
ATOM      9  H   UNL     1      53.050   4.267  21.212  0.00  0.00    +0.000 HD
ATOM     10  H   UNL     1      53.604   3.787  19.779  0.00  0.00    +0.000 HD
ENDBRANCH   7   8
BRANCH   7  11
ATOM     11  N   UNL     1      52.984   5.597  18.764  0.00  0.00    +0.000 NA
ATOM     12  H   UNL     1      52.872   5.167  17.852  0.00  0.00    +0.000 HD
BRANCH  11  13
ATOM     13  C   UNL     1      52.802   7.042  18.602  0.00  0.00    +0.000 C 
BRANCH  13  14
ATOM     14  C   UNL     1      51.630   7.370  17.705  0.00  0.00    +0.000 A 
ATOM     15  C   UNL     1      51.540   6.820  16.417  0.00  0.00    +0.000 A 
ATOM     16  C   UNL     1      50.430   7.079  15.610  0.00  0.00    +0.000 A 
ATOM     17  C   UNL     1      49.401   7.890  16.083  0.00  0.00    +0.000 A 
ATOM     18  C   UNL     1      49.484   8.448  17.358  0.00  0.00    +0.000 A 
ATOM     19  C   UNL     1      50.593   8.191  18.165  0.00  0.00    +0.000 A 
ENDBRANCH  13  14
ENDBRANCH  11  13
ENDBRANCH   7  11
ENDBRANCH   1   7
BRANCH   4  20
ATOM     20  C   UNL     1      47.139   3.353  16.919  0.00  0.00    +0.000 C 
BRANCH  20  21
ATOM     21  N   UNL     1      46.797   4.360  15.951  0.00  0.00    +0.000 N 
ATOM     22  C   UNL     1      46.925   4.121  14.607  0.00  0.00    +0.000 C 
ATOM     23  O   UNL     1      47.300   3.037  14.166  0.00  0.00    +0.000 OA
ATOM     24  H   UNL     1      46.745   5.317  16.284  0.00  0.00    +0.000 HD
BRANCH  22  25
ATOM     25  C   UNL     1      46.522   5.215  13.718  0.00  0.00    +0.000 A 
ATOM     26  C   UNL     1      47.379   6.284  13.503  0.00  0.00    +0.000 A 
ATOM     27  S   UNL     1      46.762   7.442  12.413  0.00  0.00    +0.000 S 
ATOM     28  C   UNL     1      45.309   6.573  12.229  0.00  0.00    +0.000 A 
ATOM     29  N   UNL     1      44.308   7.049  11.437  0.00  0.00    +0.000 NA
ATOM     30  C   UNL     1      43.256   6.303  11.407  0.00  0.00    +0.000 A 
ATOM     31  N   UNL     1      43.115   5.124  12.092  0.00  0.00    +0.000 N 
ATOM     32  C   UNL     1      44.106   4.593  12.879  0.00  0.00    +0.000 A 
ATOM     33  O   UNL     1      43.960   3.507  13.443  0.00  0.00    +0.000 OA
ATOM     34  C   UNL     1      45.304   5.405  12.967  0.00  0.00    +0.000 A 
ATOM     35  H   UNL     1      42.265   4.580  12.016  0.00  0.00    +0.000 HD
ENDBRANCH  22  25
ENDBRANCH  20  21
ENDBRANCH   4  20
TORSDOF 8
ENDMDL
