MODEL 1
REMARK VINA RESULT:    -6.869      0.000      0.000
REMARK INTER + INTRA:          -8.739
REMARK INTER:                  -8.074
REMARK INTRA:                  -0.666
REMARK UNBOUND:                -0.666
REMARK  Name = 
REMARK  3 active torsions:
REMARK  status: ('A' for Active; 'I' for Inactive)
REMARK    1  A    between atoms: N_5  and  C_6
REMARK    2  A    between atoms: C_6  and  C_7
REMARK    3  A    between atoms: C_11  and  N_12
REMARK                            x       y       z     vdW  Elec       q    Type
REMARK                         _______ _______ _______ _____ _____    ______ ____
ROOT
ATOM      1  C   UNL     1      45.075   4.846  12.237  0.00  0.00    +0.000 A 
ATOM      2  C   UNL     1      45.584   3.731  12.918  0.00  0.00    +0.000 A 
ATOM      3  C   UNL     1      46.753   3.823  13.670  0.00  0.00    +0.000 A 
ATOM      4  C   UNL     1      47.442   5.034  13.738  0.00  0.00    +0.000 A 
ATOM      5  C   UNL     1      46.959   6.185  13.103  0.00  0.00    +0.000 A 
ATOM      6  C   UNL     1      45.749   6.074  12.404  0.00  0.00    +0.000 A 
ENDROOT
BRANCH   5   7
ATOM      7  N   UNL     1      47.669   7.367  13.112  0.00  0.00    +0.000 N 
ATOM      8  C   UNL     1      47.016   8.660  13.337  0.00  0.00    +0.000 C 
ATOM      9  C   UNL     1      47.304   9.618  12.164  0.00  0.00    +0.000 C 
ATOM     10  N   UNL     1      48.749   9.773  11.878  0.00  0.00    +0.000 NA
ATOM     11  C   UNL     1      49.328   8.432  11.631  0.00  0.00    +0.000 C 
ATOM     12  C   UNL     1      49.096   7.419  12.780  0.00  0.00    +0.000 C 
ATOM     13  H   UNL     1      49.191  10.152  12.715  0.00  0.00    +0.000 HD
ENDBRANCH   5   7
BRANCH   1  14
ATOM     14  C   UNL     1      43.906   4.698  11.265  0.00  0.00    +0.000 C 
ATOM     15  C   UNL     1      42.504   5.024  11.776  0.00  0.00    +0.000 C 
ATOM     16  C   UNL     1      43.202   5.986  10.878  0.00  0.00    +0.000 C 
BRANCH  14  21
ATOM     17  C   UNL     1      46.648   2.954   7.301  0.00  0.00    +0.000 A 
ATOM     18  C   UNL     1      46.116   1.934   8.045  0.00  0.00    +0.000 A 
ATOM     19  N   UNL     1      45.260   2.131   9.068  0.00  0.00    +0.000 NA
ATOM     20  C   UNL     1      44.935   3.399   9.369  0.00  0.00    +0.000 A 
ATOM     21  N   UNL     1      43.986   3.532  10.382  0.00  0.00    +0.000 N 
ATOM     22  N   UNL     1      45.423   4.463   8.708  0.00  0.00    +0.000 NA
ATOM     23  C   UNL     1      46.262   4.214   7.682  0.00  0.00    +0.000 A 
ATOM     24  H   UNL     1      43.912   2.614  10.810  0.00  0.00    +0.000 HD
ENDBRANCH  14  21
ENDBRANCH   1  14
TORSDOF 3
ENDMDL
MODEL 2
REMARK VINA RESULT:    -6.732      2.273      3.707
REMARK INTER + INTRA:          -8.579
REMARK INTER:                  -8.115
REMARK INTRA:                  -0.463
REMARK UNBOUND:                -0.666
REMARK  Name = 
REMARK  3 active torsions:
REMARK  status: ('A' for Active; 'I' for Inactive)
REMARK    1  A    between atoms: N_5  and  C_6
REMARK    2  A    between atoms: C_6  and  C_7
REMARK    3  A    between atoms: C_11  and  N_12
REMARK                            x       y       z     vdW  Elec       q    Type
REMARK                         _______ _______ _______ _____ _____    ______ ____
ROOT
ATOM      1  C   UNL     1      45.569   4.922  12.661  0.00  0.00    +0.000 A 
ATOM      2  C   UNL     1      46.125   6.035  12.015  0.00  0.00    +0.000 A 
ATOM      3  C   UNL     1      47.252   6.671  12.527  0.00  0.00    +0.000 A 
ATOM      4  C   UNL     1      47.834   6.211  13.708  0.00  0.00    +0.000 A 
ATOM      5  C   UNL     1      47.339   5.083  14.375  0.00  0.00    +0.000 A 
ATOM      6  C   UNL     1      46.239   4.429  13.801  0.00  0.00    +0.000 A 
ENDROOT
BRANCH   5   7
ATOM      7  N   UNL     1      47.867   4.663  15.576  0.00  0.00    +0.000 N 
ATOM      8  C   UNL     1      47.804   3.261  16.001  0.00  0.00    +0.000 C 
ATOM      9  C   UNL     1      47.107   3.147  17.372  0.00  0.00    +0.000 C 
ATOM     10  N   UNL     1      47.716   4.010  18.410  0.00  0.00    +0.000 NA
ATOM     11  C   UNL     1      47.715   5.409  17.921  0.00  0.00    +0.000 C 
ATOM     12  C   UNL     1      48.419   5.604  16.555  0.00  0.00    +0.000 C 
ATOM     13  H   UNL     1      48.689   3.721  18.521  0.00  0.00    +0.000 HD
ENDBRANCH   5   7
BRANCH   1  14
ATOM     14  C   UNL     1      44.230   4.345  12.206  0.00  0.00    +0.000 C 
ATOM     15  C   UNL     1      43.080   4.322  13.211  0.00  0.00    +0.000 C 
ATOM     16  C   UNL     1      43.081   5.333  12.116  0.00  0.00    +0.000 C 
BRANCH  14  21
ATOM     17  C   UNL     1      45.863   2.973   7.545  0.00  0.00    +0.000 A 
ATOM     18  C   UNL     1      45.915   1.931   8.434  0.00  0.00    +0.000 A 
ATOM     19  N   UNL     1      45.431   2.004   9.689  0.00  0.00    +0.000 NA
ATOM     20  C   UNL     1      44.885   3.168  10.078  0.00  0.00    +0.000 A 
ATOM     21  N   UNL     1      44.332   3.155  11.357  0.00  0.00    +0.000 N 
ATOM     22  N   UNL     1      44.809   4.250   9.282  0.00  0.00    +0.000 NA
ATOM     23  C   UNL     1      45.292   4.123   8.029  0.00  0.00    +0.000 A 
ATOM     24  H   UNL     1      44.663   2.297  11.790  0.00  0.00    +0.000 HD
ENDBRANCH  14  21
ENDBRANCH   1  14
TORSDOF 3
ENDMDL
MODEL 3
REMARK VINA RESULT:    -6.182      2.127      6.966
REMARK INTER + INTRA:          -7.932
REMARK INTER:                  -7.285
REMARK INTRA:                  -0.646
REMARK UNBOUND:                -0.666
REMARK  Name = 
REMARK  3 active torsions:
REMARK  status: ('A' for Active; 'I' for Inactive)
REMARK    1  A    between atoms: N_5  and  C_6
REMARK    2  A    between atoms: C_6  and  C_7
REMARK    3  A    between atoms: C_11  and  N_12
REMARK                            x       y       z     vdW  Elec       q    Type
REMARK                         _______ _______ _______ _____ _____    ______ ____
ROOT
ATOM      1  C   UNL     1      47.161   7.691  12.204  0.00  0.00    +0.000 A 
ATOM      2  C   UNL     1      46.479   8.914  12.271  0.00  0.00    +0.000 A 
ATOM      3  C   UNL     1      45.139   9.007  11.905  0.00  0.00    +0.000 A 
ATOM      4  C   UNL     1      44.462   7.876  11.450  0.00  0.00    +0.000 A 
ATOM      5  C   UNL     1      45.087   6.624  11.395  0.00  0.00    +0.000 A 
ATOM      6  C   UNL     1      46.420   6.552  11.827  0.00  0.00    +0.000 A 
ENDROOT
BRANCH   5   7
ATOM      7  N   UNL     1      44.445   5.517  10.884  0.00  0.00    +0.000 N 
ATOM      8  C   UNL     1      43.136   5.083  11.382  0.00  0.00    +0.000 C 
ATOM      9  C   UNL     1      43.204   3.621  11.868  0.00  0.00    +0.000 C 
ATOM     10  N   UNL     1      43.741   2.692  10.849  0.00  0.00    +0.000 NA
ATOM     11  C   UNL     1      45.074   3.178  10.421  0.00  0.00    +0.000 C 
ATOM     12  C   UNL     1      45.079   4.637   9.898  0.00  0.00    +0.000 C 
ATOM     13  H   UNL     1      43.123   2.729  10.039  0.00  0.00    +0.000 HD
ENDBRANCH   5   7
BRANCH   1  14
ATOM     14  C   UNL     1      48.672   7.629  12.422  0.00  0.00    +0.000 C 
ATOM     15  C   UNL     1      49.577   7.713  11.194  0.00  0.00    +0.000 C 
ATOM     16  C   UNL     1      49.441   8.896  12.090  0.00  0.00    +0.000 C 
BRANCH  14  21
ATOM     17  C   UNL     1      48.646   7.046  17.514  0.00  0.00    +0.000 A 
ATOM     18  C   UNL     1      48.667   5.842  16.860  0.00  0.00    +0.000 A 
ATOM     19  N   UNL     1      48.795   5.727  15.523  0.00  0.00    +0.000 NA
ATOM     20  C   UNL     1      48.894   6.861  14.809  0.00  0.00    +0.000 A 
ATOM     21  N   UNL     1      49.105   6.674  13.444  0.00  0.00    +0.000 N 
ATOM     22  N   UNL     1      48.863   8.086  15.362  0.00  0.00    +0.000 NA
ATOM     23  C   UNL     1      48.749   8.149  16.705  0.00  0.00    +0.000 A 
ATOM     24  H   UNL     1      48.925   5.689  13.272  0.00  0.00    +0.000 HD
ENDBRANCH  14  21
ENDBRANCH   1  14
TORSDOF 3
ENDMDL
MODEL 4
REMARK VINA RESULT:    -5.709      3.665      7.570
REMARK INTER + INTRA:          -7.376
REMARK INTER:                  -7.612
REMARK INTRA:                   0.236
REMARK UNBOUND:                -0.666
REMARK  Name = 
REMARK  3 active torsions:
REMARK  status: ('A' for Active; 'I' for Inactive)
REMARK    1  A    between atoms: N_5  and  C_6
REMARK    2  A    between atoms: C_6  and  C_7
REMARK    3  A    between atoms: C_11  and  N_12
REMARK                            x       y       z     vdW  Elec       q    Type
REMARK                         _______ _______ _______ _____ _____    ______ ____
ROOT
ATOM      1  C   UNL     1      47.607   5.370  14.978  0.00  0.00    +0.000 A 
ATOM      2  C   UNL     1      48.334   6.463  14.484  0.00  0.00    +0.000 A 
ATOM      3  C   UNL     1      48.090   6.968  13.210  0.00  0.00    +0.000 A 
ATOM      4  C   UNL     1      47.122   6.374  12.400  0.00  0.00    +0.000 A 
ATOM      5  C   UNL     1      46.345   5.302  12.856  0.00  0.00    +0.000 A 
ATOM      6  C   UNL     1      46.574   4.856  14.166  0.00  0.00    +0.000 A 
ENDROOT
BRANCH   5   7
ATOM      7  N   UNL     1      45.434   4.670  12.039  0.00  0.00    +0.000 N 
ATOM      8  C   UNL     1      44.585   5.415  11.104  0.00  0.00    +0.000 C 
ATOM      9  C   UNL     1      43.097   5.112  11.374  0.00  0.00    +0.000 C 
ATOM     10  N   UNL     1      42.785   3.665  11.367  0.00  0.00    +0.000 NA
ATOM     11  C   UNL     1      43.658   2.989  12.356  0.00  0.00    +0.000 C 
ATOM     12  C   UNL     1      45.173   3.230  12.134  0.00  0.00    +0.000 C 
ATOM     13  H   UNL     1      43.022   3.301  10.444  0.00  0.00    +0.000 HD
ENDBRANCH   5   7
BRANCH   1  14
ATOM     14  C   UNL     1      48.002   4.701  16.293  0.00  0.00    +0.000 C 
ATOM     15  C   UNL     1      46.891   4.111  17.159  0.00  0.00    +0.000 C 
ATOM     16  C   UNL     1      47.769   3.203  16.368  0.00  0.00    +0.000 C 
BRANCH  14  21
ATOM     17  C   UNL     1      52.824   3.931  17.850  0.00  0.00    +0.000 A 
ATOM     18  C   UNL     1      52.546   5.263  17.683  0.00  0.00    +0.000 A 
ATOM     19  N   UNL     1      51.316   5.732  17.393  0.00  0.00    +0.000 NA
ATOM     20  C   UNL     1      50.327   4.833  17.252  0.00  0.00    +0.000 A 
ATOM     21  N   UNL     1      49.065   5.385  17.032  0.00  0.00    +0.000 N 
ATOM     22  N   UNL     1      50.510   3.507  17.377  0.00  0.00    +0.000 NA
ATOM     23  C   UNL     1      51.755   3.088  17.684  0.00  0.00    +0.000 A 
ATOM     24  H   UNL     1      49.228   6.365  16.821  0.00  0.00    +0.000 HD
ENDBRANCH  14  21
ENDBRANCH   1  14
TORSDOF 3
ENDMDL
MODEL 5
REMARK VINA RESULT:    -5.534      3.835      8.023
REMARK INTER + INTRA:          -7.170
REMARK INTER:                  -7.055
REMARK INTRA:                  -0.115
REMARK UNBOUND:                -0.666
REMARK  Name = 
REMARK  3 active torsions:
REMARK  status: ('A' for Active; 'I' for Inactive)
REMARK    1  A    between atoms: N_5  and  C_6
REMARK    2  A    between atoms: C_6  and  C_7
REMARK    3  A    between atoms: C_11  and  N_12
REMARK                            x       y       z     vdW  Elec       q    Type
REMARK                         _______ _______ _______ _____ _____    ______ ____
ROOT
ATOM      1  C   UNL     1      47.496   5.160  15.397  0.00  0.00    +0.000 A 
ATOM      2  C   UNL     1      48.379   6.159  14.961  0.00  0.00    +0.000 A 
ATOM      3  C   UNL     1      48.320   6.649  13.659  0.00  0.00    +0.000 A 
ATOM      4  C   UNL     1      47.382   6.133  12.765  0.00  0.00    +0.000 A 
ATOM      5  C   UNL     1      46.455   5.160  13.158  0.00  0.00    +0.000 A 
ATOM      6  C   UNL     1      46.502   4.730  14.492  0.00  0.00    +0.000 A 
ENDROOT
BRANCH   5   7
ATOM      7  N   UNL     1      45.571   4.599  12.262  0.00  0.00    +0.000 N 
ATOM      8  C   UNL     1      44.870   5.407  11.259  0.00  0.00    +0.000 C 
ATOM      9  C   UNL     1      43.344   5.228  11.397  0.00  0.00    +0.000 C 
ATOM     10  N   UNL     1      42.917   3.811  11.360  0.00  0.00    +0.000 NA
ATOM     11  C   UNL     1      43.643   3.070  12.419  0.00  0.00    +0.000 C 
ATOM     12  C   UNL     1      45.185   3.187  12.331  0.00  0.00    +0.000 C 
ATOM     13  H   UNL     1      43.203   3.425  10.460  0.00  0.00    +0.000 HD
ENDBRANCH   5   7
BRANCH   1  14
ATOM     14  C   UNL     1      47.684   4.493  16.758  0.00  0.00    +0.000 C 
ATOM     15  C   UNL     1      47.440   2.988  16.859  0.00  0.00    +0.000 C 
ATOM     16  C   UNL     1      48.836   3.509  16.858  0.00  0.00    +0.000 C 
BRANCH  14  21
ATOM     17  C   UNL     1      49.313   8.072  20.046  0.00  0.00    +0.000 A 
ATOM     18  C   UNL     1      47.956   8.125  19.861  0.00  0.00    +0.000 A 
ATOM     19  N   UNL     1      47.271   7.217  19.137  0.00  0.00    +0.000 NA
ATOM     20  C   UNL     1      47.971   6.225  18.564  0.00  0.00    +0.000 A 
ATOM     21  N   UNL     1      47.198   5.275  17.897  0.00  0.00    +0.000 N 
ATOM     22  N   UNL     1      49.306   6.104  18.673  0.00  0.00    +0.000 NA
ATOM     23  C   UNL     1      49.945   7.027  19.421  0.00  0.00    +0.000 A 
ATOM     24  H   UNL     1      46.269   5.680  17.825  0.00  0.00    +0.000 HD
ENDBRANCH  14  21
ENDBRANCH   1  14
TORSDOF 3
ENDMDL
MODEL 6
REMARK VINA RESULT:    -5.389      3.045      7.121
REMARK INTER + INTRA:          -7.000
REMARK INTER:                  -6.532
REMARK INTRA:                  -0.468
REMARK UNBOUND:                -0.666
REMARK  Name = 
REMARK  3 active torsions:
REMARK  status: ('A' for Active; 'I' for Inactive)
REMARK    1  A    between atoms: N_5  and  C_6
REMARK    2  A    between atoms: C_6  and  C_7
REMARK    3  A    between atoms: C_11  and  N_12
REMARK                            x       y       z     vdW  Elec       q    Type
REMARK                         _______ _______ _______ _____ _____    ______ ____
ROOT
ATOM      1  C   UNL     1      48.991   7.545  14.647  0.00  0.00    +0.000 A 
ATOM      2  C   UNL     1      49.962   7.785  13.664  0.00  0.00    +0.000 A 
ATOM      3  C   UNL     1      49.699   7.530  12.321  0.00  0.00    +0.000 A 
ATOM      4  C   UNL     1      48.460   7.014  11.941  0.00  0.00    +0.000 A 
ATOM      5  C   UNL     1      47.444   6.788  12.878  0.00  0.00    +0.000 A 
ATOM      6  C   UNL     1      47.720   7.111  14.215  0.00  0.00    +0.000 A 
ENDROOT
BRANCH   5   7
ATOM      7  N   UNL     1      46.243   6.218  12.519  0.00  0.00    +0.000 N 
ATOM      8  C   UNL     1      45.612   5.168  13.326  0.00  0.00    +0.000 C 
ATOM      9  C   UNL     1      45.362   3.911  12.468  0.00  0.00    +0.000 C 
ATOM     10  N   UNL     1      44.596   4.190  11.233  0.00  0.00    +0.000 NA
ATOM     11  C   UNL     1      45.310   5.233  10.460  0.00  0.00    +0.000 C 
ATOM     12  C   UNL     1      45.578   6.538  11.252  0.00  0.00    +0.000 C 
ATOM     13  H   UNL     1      43.691   4.573  11.508  0.00  0.00    +0.000 HD
ENDBRANCH   5   7
BRANCH   1  14
ATOM     14  C   UNL     1      49.343   7.644  16.131  0.00  0.00    +0.000 C 
ATOM     15  C   UNL     1      49.961   8.947  16.635  0.00  0.00    +0.000 C 
ATOM     16  C   UNL     1      48.533   8.644  16.937  0.00  0.00    +0.000 C 
BRANCH  14  21
ATOM     17  C   UNL     1      47.903   2.959  17.632  0.00  0.00    +0.000 A 
ATOM     18  C   UNL     1      49.219   2.994  17.251  0.00  0.00    +0.000 A 
ATOM     19  N   UNL     1      49.867   4.131  16.928  0.00  0.00    +0.000 NA
ATOM     20  C   UNL     1      49.169   5.277  16.974  0.00  0.00    +0.000 A 
ATOM     21  N   UNL     1      49.914   6.425  16.707  0.00  0.00    +0.000 N 
ATOM     22  N   UNL     1      47.870   5.338  17.316  0.00  0.00    +0.000 NA
ATOM     23  C   UNL     1      47.270   4.176  17.646  0.00  0.00    +0.000 A 
ATOM     24  H   UNL     1      50.798   6.096  16.328  0.00  0.00    +0.000 HD
ENDBRANCH  14  21
ENDBRANCH   1  14
TORSDOF 3
ENDMDL
MODEL 7
REMARK VINA RESULT:    -5.348      2.298      6.575
REMARK INTER + INTRA:          -6.951
REMARK INTER:                  -6.522
REMARK INTRA:                  -0.429
REMARK UNBOUND:                -0.666
REMARK  Name = 
REMARK  3 active torsions:
REMARK  status: ('A' for Active; 'I' for Inactive)
REMARK    1  A    between atoms: N_5  and  C_6
REMARK    2  A    between atoms: C_6  and  C_7
REMARK    3  A    between atoms: C_11  and  N_12
REMARK                            x       y       z     vdW  Elec       q    Type
REMARK                         _______ _______ _______ _____ _____    ______ ____
ROOT
ATOM      1  C   UNL     1      47.846   7.364  12.772  0.00  0.00    +0.000 A 
ATOM      2  C   UNL     1      48.226   6.877  14.031  0.00  0.00    +0.000 A 
ATOM      3  C   UNL     1      47.684   5.699  14.538  0.00  0.00    +0.000 A 
ATOM      4  C   UNL     1      46.736   4.996  13.795  0.00  0.00    +0.000 A 
ATOM      5  C   UNL     1      46.346   5.420  12.519  0.00  0.00    +0.000 A 
ATOM      6  C   UNL     1      46.956   6.577  12.012  0.00  0.00    +0.000 A 
ENDROOT
BRANCH   5   7
ATOM      7  N   UNL     1      45.362   4.766  11.808  0.00  0.00    +0.000 N 
ATOM      8  C   UNL     1      44.364   5.495  11.019  0.00  0.00    +0.000 C 
ATOM      9  C   UNL     1      42.940   5.115  11.472  0.00  0.00    +0.000 C 
ATOM     10  N   UNL     1      42.694   3.655  11.460  0.00  0.00    +0.000 NA
ATOM     11  C   UNL     1      43.719   2.995  12.301  0.00  0.00    +0.000 C 
ATOM     12  C   UNL     1      45.179   3.314  11.890  0.00  0.00    +0.000 C 
ATOM     13  H   UNL     1      42.821   3.327  10.502  0.00  0.00    +0.000 HD
ENDBRANCH   5   7
BRANCH   1  14
ATOM     14  C   UNL     1      48.297   8.746  12.303  0.00  0.00    +0.000 C 
ATOM     15  C   UNL     1      47.223   9.805  12.061  0.00  0.00    +0.000 C 
ATOM     16  C   UNL     1      48.072   9.883  13.283  0.00  0.00    +0.000 C 
BRANCH  14  21
ATOM     17  C   UNL     1      53.385   8.167  12.096  0.00  0.00    +0.000 A 
ATOM     18  C   UNL     1      52.779   7.797  10.923  0.00  0.00    +0.000 A 
ATOM     19  N   UNL     1      51.463   7.966  10.685  0.00  0.00    +0.000 NA
ATOM     20  C   UNL     1      50.721   8.514  11.661  0.00  0.00    +0.000 A 
ATOM     21  N   UNL     1      49.386   8.736  11.324  0.00  0.00    +0.000 N 
ATOM     22  N   UNL     1      51.225   8.889  12.850  0.00  0.00    +0.000 NA
ATOM     23  C   UNL     1      52.549   8.715  13.036  0.00  0.00    +0.000 A 
ATOM     24  H   UNL     1      49.234   8.226  10.458  0.00  0.00    +0.000 HD
ENDBRANCH  14  21
ENDBRANCH   1  14
TORSDOF 3
ENDMDL
MODEL 8
REMARK VINA RESULT:    -5.257      3.546      6.411
REMARK INTER + INTRA:          -6.845
REMARK INTER:                  -6.234
REMARK INTRA:                  -0.610
REMARK UNBOUND:                -0.666
REMARK  Name = 
REMARK  3 active torsions:
REMARK  status: ('A' for Active; 'I' for Inactive)
REMARK    1  A    between atoms: N_5  and  C_6
REMARK    2  A    between atoms: C_6  and  C_7
REMARK    3  A    between atoms: C_11  and  N_12
REMARK                            x       y       z     vdW  Elec       q    Type
REMARK                         _______ _______ _______ _____ _____    ______ ____
ROOT
ATOM      1  C   UNL     1      48.617   7.956  14.795  0.00  0.00    +0.000 A 
ATOM      2  C   UNL     1      48.204   9.095  15.501  0.00  0.00    +0.000 A 
ATOM      3  C   UNL     1      48.136   9.089  16.892  0.00  0.00    +0.000 A 
ATOM      4  C   UNL     1      48.467   7.933  17.599  0.00  0.00    +0.000 A 
ATOM      5  C   UNL     1      48.917   6.780  16.944  0.00  0.00    +0.000 A 
ATOM      6  C   UNL     1      49.032   6.838  15.548  0.00  0.00    +0.000 A 
ENDROOT
BRANCH   5   7
ATOM      7  N   UNL     1      49.183   5.615  17.631  0.00  0.00    +0.000 N 
ATOM      8  C   UNL     1      48.871   4.297  17.069  0.00  0.00    +0.000 C 
ATOM      9  C   UNL     1      47.949   3.511  18.024  0.00  0.00    +0.000 C 
ATOM     10  N   UNL     1      48.485   3.410  19.400  0.00  0.00    +0.000 NA
ATOM     11  C   UNL     1      48.743   4.778  19.908  0.00  0.00    +0.000 C 
ATOM     12  C   UNL     1      49.682   5.622  19.010  0.00  0.00    +0.000 C 
ATOM     13  H   UNL     1      49.380   2.924  19.350  0.00  0.00    +0.000 HD
ENDBRANCH   5   7
BRANCH   1  14
ATOM     14  C   UNL     1      48.510   7.903  13.272  0.00  0.00    +0.000 C 
ATOM     15  C   UNL     1      49.421   8.819  12.457  0.00  0.00    +0.000 C 
ATOM     16  C   UNL     1      49.727   7.363  12.542  0.00  0.00    +0.000 C 
BRANCH  14  21
ATOM     17  C   UNL     1      44.711   4.470  13.037  0.00  0.00    +0.000 A 
ATOM     18  C   UNL     1      44.242   5.758  13.004  0.00  0.00    +0.000 A 
ATOM     19  N   UNL     1      45.045   6.838  12.935  0.00  0.00    +0.000 NA
ATOM     20  C   UNL     1      46.371   6.624  12.911  0.00  0.00    +0.000 A 
ATOM     21  N   UNL     1      47.145   7.773  12.758  0.00  0.00    +0.000 N 
ATOM     22  N   UNL     1      46.922   5.398  12.960  0.00  0.00    +0.000 NA
ATOM     23  C   UNL     1      46.077   4.348  13.012  0.00  0.00    +0.000 A 
ATOM     24  H   UNL     1      46.510   8.552  12.909  0.00  0.00    +0.000 HD
ENDBRANCH  14  21
ENDBRANCH   1  14
TORSDOF 3
ENDMDL
MODEL 9
REMARK VINA RESULT:    -4.858      3.285      7.682
REMARK INTER + INTRA:          -6.375
REMARK INTER:                  -6.160
REMARK INTRA:                  -0.215
REMARK UNBOUND:                -0.666
REMARK  Name = 
REMARK  3 active torsions:
REMARK  status: ('A' for Active; 'I' for Inactive)
REMARK    1  A    between atoms: N_5  and  C_6
REMARK    2  A    between atoms: C_6  and  C_7
REMARK    3  A    between atoms: C_11  and  N_12
REMARK                            x       y       z     vdW  Elec       q    Type
REMARK                         _______ _______ _______ _____ _____    ______ ____
ROOT
ATOM      1  C   UNL     1      48.155   6.325  14.502  0.00  0.00    +0.000 A 
ATOM      2  C   UNL     1      47.975   5.201  15.321  0.00  0.00    +0.000 A 
ATOM      3  C   UNL     1      46.975   4.271  15.050  0.00  0.00    +0.000 A 
ATOM      4  C   UNL     1      46.126   4.461  13.960  0.00  0.00    +0.000 A 
ATOM      5  C   UNL     1      46.283   5.548  13.092  0.00  0.00    +0.000 A 
ATOM      6  C   UNL     1      47.338   6.434  13.357  0.00  0.00    +0.000 A 
ENDROOT
BRANCH   5   7
ATOM      7  N   UNL     1      45.408   5.777  12.053  0.00  0.00    +0.000 N 
ATOM      8  C   UNL     1      43.958   5.838  12.262  0.00  0.00    +0.000 C 
ATOM      9  C   UNL     1      43.243   4.810  11.361  0.00  0.00    +0.000 C 
ATOM     10  N   UNL     1      43.599   4.941   9.930  0.00  0.00    +0.000 NA
ATOM     11  C   UNL     1      45.072   4.839   9.798  0.00  0.00    +0.000 C 
ATOM     12  C   UNL     1      45.858   5.858  10.660  0.00  0.00    +0.000 C 
ATOM     13  H   UNL     1      43.325   5.875   9.627  0.00  0.00    +0.000 HD
ENDBRANCH   5   7
BRANCH   1  14
ATOM     14  C   UNL     1      49.123   7.436  14.905  0.00  0.00    +0.000 C 
ATOM     15  C   UNL     1      50.143   7.909  13.871  0.00  0.00    +0.000 C 
ATOM     16  C   UNL     1      48.955   8.757  14.175  0.00  0.00    +0.000 C 
BRANCH  14  21
ATOM     17  C   UNL     1      47.768   8.653  19.697  0.00  0.00    +0.000 A 
ATOM     18  C   UNL     1      48.618   7.579  19.661  0.00  0.00    +0.000 A 
ATOM     19  N   UNL     1      49.210   7.139  18.533  0.00  0.00    +0.000 NA
ATOM     20  C   UNL     1      48.929   7.789  17.391  0.00  0.00    +0.000 A 
ATOM     21  N   UNL     1      49.632   7.338  16.275  0.00  0.00    +0.000 N 
ATOM     22  N   UNL     1      48.092   8.840  17.326  0.00  0.00    +0.000 NA
ATOM     23  C   UNL     1      47.538   9.253  18.484  0.00  0.00    +0.000 A 
ATOM     24  H   UNL     1      50.056   6.458  16.556  0.00  0.00    +0.000 HD
ENDBRANCH  14  21
ENDBRANCH   1  14
TORSDOF 3
ENDMDL
