MODEL 1
REMARK VINA RESULT:    -8.510      0.000      0.000
REMARK INTER + INTRA:         -12.937
REMARK INTER:                 -12.490
REMARK INTRA:                  -0.447
REMARK UNBOUND:                -0.447
REMARK  Name = 
REMARK  10 active torsions:
REMARK  status: ('A' for Active; 'I' for Inactive)
REMARK    1  A    between atoms: C_1  and  C_2
REMARK    2  A    between atoms: C_2  and  N_3
REMARK    3  A    between atoms: C_2  and  C_21
REMARK    4  A    between atoms: N_3  and  C_4
REMARK    5  A    between atoms: C_4  and  C_5
REMARK    6  A    between atoms: C_8  and  C_9
REMARK    7  A    between atoms: C_9  and  N_10
REMARK    8  A    between atoms: N_10  and  C_11
REMARK    9  A    between atoms: N_10  and  C_12
REMARK   10  A    between atoms: C_12  and  C_13
REMARK                            x       y       z     vdW  Elec       q    Type
REMARK                         _______ _______ _______ _____ _____    ______ ____
ROOT
ATOM      1  C   UNL     1      48.756   6.364  14.987  0.00  0.00    +0.000 C 
ENDROOT
BRANCH   1   2
ATOM      2  C   UNL     1      47.729   6.200  13.886  0.00  0.00    +0.000 A 
ATOM      3  C   UNL     1      47.602   7.157  12.870  0.00  0.00    +0.000 A 
ATOM      4  C   UNL     1      46.671   6.986  11.846  0.00  0.00    +0.000 A 
ATOM      5  C   UNL     1      45.870   5.836  11.800  0.00  0.00    +0.000 A 
ATOM      6  C   UNL     1      45.980   4.890  12.826  0.00  0.00    +0.000 A 
ATOM      7  C   UNL     1      46.899   5.073  13.858  0.00  0.00    +0.000 A 
BRANCH   5   8
ATOM      8  C   UNL     1      44.904   5.613  10.656  0.00  0.00    +0.000 C 
BRANCH   8   9
ATOM      9  N   UNL     1      44.717   4.183  10.321  0.00  0.00    +0.000 NA
ATOM     10  C   UNL     1      43.555   3.618  11.023  0.00  0.00    +0.000 C 
BRANCH   9  11
ATOM     11  C   UNL     1      44.543   4.007   8.870  0.00  0.00    +0.000 C 
BRANCH  11  12
ATOM     12  C   UNL     1      45.565   3.091   8.250  0.00  0.00    +0.000 A 
ATOM     13  C   UNL     1      46.491   3.555   7.310  0.00  0.00    +0.000 A 
ATOM     14  C   UNL     1      47.411   2.671   6.755  0.00  0.00    +0.000 A 
ATOM     15  C   UNL     1      47.378   1.348   7.163  0.00  0.00    +0.000 A 
ATOM     16  N   UNL     1      46.500   0.861   8.066  0.00  0.00    +0.000 NA
ATOM     17  C   UNL     1      45.615   1.742   8.586  0.00  0.00    +0.000 A 
ENDBRANCH  11  12
ENDBRANCH   9  11
ENDBRANCH   8   9
ENDBRANCH   5   8
ENDBRANCH   1   2
BRANCH   1  18
ATOM     18  N   UNL     1      48.188   6.040  16.290  0.00  0.00    +0.000 NA
ATOM     19  H   UNL     1      48.693   6.573  16.996  0.00  0.00    +0.000 HD
BRANCH  18  21
ATOM     20  C   UNL     1      47.047   4.103  17.373  0.00  0.00    +0.000 C 
ATOM     21  C   UNL     1      48.287   4.615  16.636  0.00  0.00    +0.000 C 
BRANCH  21  22
ATOM     22  C   UNL     1      49.536   4.492  17.491  0.00  0.00    +0.000 A 
ATOM     23  C   UNL     1      50.014   5.498  18.321  0.00  0.00    +0.000 A 
ATOM     24  S   UNL     1      51.514   5.124  19.042  0.00  0.00    +0.000 S 
ATOM     25  C   UNL     1      51.571   3.606  18.275  0.00  0.00    +0.000 A 
ATOM     26  N   UNL     1      52.647   2.785  18.418  0.00  0.00    +0.000 NA
ATOM     27  C   UNL     1      52.553   1.672  17.769  0.00  0.00    +0.000 A 
ATOM     28  N   UNL     1      51.471   1.291  17.015  0.00  0.00    +0.000 N 
ATOM     29  C   UNL     1      50.338   2.063  16.887  0.00  0.00    +0.000 A 
ATOM     30  O   UNL     1      49.346   1.649  16.295  0.00  0.00    +0.000 OA
ATOM     31  C   UNL     1      50.432   3.361  17.531  0.00  0.00    +0.000 A 
ATOM     32  H   UNL     1      51.441   0.384  16.576  0.00  0.00    +0.000 HD
ENDBRANCH  21  22
ENDBRANCH  18  21
ENDBRANCH   1  18
TORSDOF 8
ENDMDL
MODEL 2
REMARK VINA RESULT:    -7.758      2.554      3.523
REMARK INTER + INTRA:         -11.832
REMARK INTER:                 -10.566
REMARK INTRA:                  -1.266
REMARK UNBOUND:                -0.447
REMARK  Name = 
REMARK  10 active torsions:
REMARK  status: ('A' for Active; 'I' for Inactive)
REMARK    1  A    between atoms: C_1  and  C_2
REMARK    2  A    between atoms: C_2  and  N_3
REMARK    3  A    between atoms: C_2  and  C_21
REMARK    4  A    between atoms: N_3  and  C_4
REMARK    5  A    between atoms: C_4  and  C_5
REMARK    6  A    between atoms: C_8  and  C_9
REMARK    7  A    between atoms: C_9  and  N_10
REMARK    8  A    between atoms: N_10  and  C_11
REMARK    9  A    between atoms: N_10  and  C_12
REMARK   10  A    between atoms: C_12  and  C_13
REMARK                            x       y       z     vdW  Elec       q    Type
REMARK                         _______ _______ _______ _____ _____    ______ ____
ROOT
ATOM      1  C   UNL     1      49.546   7.487  13.391  0.00  0.00    +0.000 C 
ENDROOT
BRANCH   1   2
ATOM      2  C   UNL     1      48.249   6.847  12.945  0.00  0.00    +0.000 A 
ATOM      3  C   UNL     1      47.572   5.937  13.770  0.00  0.00    +0.000 A 
ATOM      4  C   UNL     1      46.365   5.371  13.362  0.00  0.00    +0.000 A 
ATOM      5  C   UNL     1      45.793   5.729  12.133  0.00  0.00    +0.000 A 
ATOM      6  C   UNL     1      46.479   6.620  11.298  0.00  0.00    +0.000 A 
ATOM      7  C   UNL     1      47.694   7.169  11.701  0.00  0.00    +0.000 A 
BRANCH   5   8
ATOM      8  C   UNL     1      44.451   5.168  11.713  0.00  0.00    +0.000 C 
BRANCH   8   9
ATOM      9  N   UNL     1      44.494   3.723  11.399  0.00  0.00    +0.000 NA
ATOM     10  C   UNL     1      43.714   2.942  12.369  0.00  0.00    +0.000 C 
BRANCH   9  11
ATOM     11  C   UNL     1      43.982   3.469  10.043  0.00  0.00    +0.000 C 
BRANCH  11  12
ATOM     12  C   UNL     1      45.066   3.224   9.026  0.00  0.00    +0.000 A 
ATOM     13  C   UNL     1      45.547   1.938   8.762  0.00  0.00    +0.000 A 
ATOM     14  C   UNL     1      46.556   1.759   7.822  0.00  0.00    +0.000 A 
ATOM     15  C   UNL     1      47.051   2.877   7.171  0.00  0.00    +0.000 A 
ATOM     16  N   UNL     1      46.615   4.135   7.398  0.00  0.00    +0.000 NA
ATOM     17  C   UNL     1      45.636   4.278   8.319  0.00  0.00    +0.000 A 
ENDBRANCH  11  12
ENDBRANCH   9  11
ENDBRANCH   8   9
ENDBRANCH   5   8
ENDBRANCH   1   2
BRANCH   1  18
ATOM     18  N   UNL     1      50.094   6.809  14.560  0.00  0.00    +0.000 NA
ATOM     19  H   UNL     1      49.337   6.306  15.018  0.00  0.00    +0.000 HD
BRANCH  18  21
ATOM     20  C   UNL     1      51.927   7.121  16.224  0.00  0.00    +0.000 C 
ATOM     21  C   UNL     1      50.696   7.722  15.540  0.00  0.00    +0.000 C 
BRANCH  21  22
ATOM     22  C   UNL     1      49.594   8.026  16.539  0.00  0.00    +0.000 A 
ATOM     23  C   UNL     1      49.131   9.304  16.823  0.00  0.00    +0.000 A 
ATOM     24  S   UNL     1      47.992   9.345  18.092  0.00  0.00    +0.000 S 
ATOM     25  C   UNL     1      48.076   7.658  18.301  0.00  0.00    +0.000 A 
ATOM     26  N   UNL     1      47.380   7.035  19.290  0.00  0.00    +0.000 NA
ATOM     27  C   UNL     1      47.551   5.755  19.332  0.00  0.00    +0.000 A 
ATOM     28  N   UNL     1      48.329   5.038  18.459  0.00  0.00    +0.000 N 
ATOM     29  C   UNL     1      49.007   5.617  17.409  0.00  0.00    +0.000 A 
ATOM     30  O   UNL     1      49.607   4.937  16.583  0.00  0.00    +0.000 OA
ATOM     31  C   UNL     1      48.912   7.065  17.373  0.00  0.00    +0.000 A 
ATOM     32  H   UNL     1      48.377   4.033  18.517  0.00  0.00    +0.000 HD
ENDBRANCH  21  22
ENDBRANCH  18  21
ENDBRANCH   1  18
TORSDOF 8
ENDMDL
MODEL 3
REMARK VINA RESULT:    -7.598      1.395      2.039
REMARK INTER + INTRA:         -11.598
REMARK INTER:                 -10.664
REMARK INTRA:                  -0.935
REMARK UNBOUND:                -0.447
REMARK  Name = 
REMARK  10 active torsions:
REMARK  status: ('A' for Active; 'I' for Inactive)
REMARK    1  A    between atoms: C_1  and  C_2
REMARK    2  A    between atoms: C_2  and  N_3
REMARK    3  A    between atoms: C_2  and  C_21
REMARK    4  A    between atoms: N_3  and  C_4
REMARK    5  A    between atoms: C_4  and  C_5
REMARK    6  A    between atoms: C_8  and  C_9
REMARK    7  A    between atoms: C_9  and  N_10
REMARK    8  A    between atoms: N_10  and  C_11
REMARK    9  A    between atoms: N_10  and  C_12
REMARK   10  A    between atoms: C_12  and  C_13
REMARK                            x       y       z     vdW  Elec       q    Type
REMARK                         _______ _______ _______ _____ _____    ______ ____
ROOT
ATOM      1  C   UNL     1      48.491   7.668  14.093  0.00  0.00    +0.000 C 
ENDROOT
BRANCH   1   2
ATOM      2  C   UNL     1      47.409   7.013  13.261  0.00  0.00    +0.000 A 
ATOM      3  C   UNL     1      46.967   5.713  13.546  0.00  0.00    +0.000 A 
ATOM      4  C   UNL     1      45.952   5.127  12.791  0.00  0.00    +0.000 A 
ATOM      5  C   UNL     1      45.335   5.843  11.755  0.00  0.00    +0.000 A 
ATOM      6  C   UNL     1      45.790   7.132  11.455  0.00  0.00    +0.000 A 
ATOM      7  C   UNL     1      46.818   7.708  12.199  0.00  0.00    +0.000 A 
BRANCH   5   8
ATOM      8  C   UNL     1      44.189   5.237  10.974  0.00  0.00    +0.000 C 
BRANCH   8   9
ATOM      9  N   UNL     1      44.478   3.875  10.472  0.00  0.00    +0.000 NA
ATOM     10  C   UNL     1      43.574   2.882  11.069  0.00  0.00    +0.000 C 
BRANCH   9  11
ATOM     11  C   UNL     1      44.360   3.824   9.006  0.00  0.00    +0.000 C 
BRANCH  11  12
ATOM     12  C   UNL     1      45.446   3.017   8.343  0.00  0.00    +0.000 A 
ATOM     13  C   UNL     1      46.335   3.594   7.431  0.00  0.00    +0.000 A 
ATOM     14  C   UNL     1      47.317   2.809   6.836  0.00  0.00    +0.000 A 
ATOM     15  C   UNL     1      47.379   1.467   7.175  0.00  0.00    +0.000 A 
ATOM     16  N   UNL     1      46.538   0.873   8.049  0.00  0.00    +0.000 NA
ATOM     17  C   UNL     1      45.593   1.660   8.610  0.00  0.00    +0.000 A 
ENDBRANCH  11  12
ENDBRANCH   9  11
ENDBRANCH   8   9
ENDBRANCH   5   8
ENDBRANCH   1   2
BRANCH   1  18
ATOM     18  N   UNL     1      49.151   6.697  14.958  0.00  0.00    +0.000 NA
ATOM     19  H   UNL     1      48.491   5.944  15.150  0.00  0.00    +0.000 HD
BRANCH  18  21
ATOM     20  C   UNL     1      50.257   8.628  16.087  0.00  0.00    +0.000 C 
ATOM     21  C   UNL     1      49.590   7.258  16.243  0.00  0.00    +0.000 C 
BRANCH  21  22
ATOM     22  C   UNL     1      50.546   6.234  16.827  0.00  0.00    +0.000 A 
ATOM     23  C   UNL     1      51.881   6.488  17.111  0.00  0.00    +0.000 A 
ATOM     24  S   UNL     1      52.739   5.105  17.622  0.00  0.00    +0.000 S 
ATOM     25  C   UNL     1      51.355   4.124  17.486  0.00  0.00    +0.000 A 
ATOM     26  N   UNL     1      51.415   2.784  17.721  0.00  0.00    +0.000 NA
ATOM     27  C   UNL     1      50.289   2.170  17.569  0.00  0.00    +0.000 A 
ATOM     28  N   UNL     1      49.104   2.774  17.233  0.00  0.00    +0.000 N 
ATOM     29  C   UNL     1      48.982   4.132  17.042  0.00  0.00    +0.000 A 
ATOM     30  O   UNL     1      47.890   4.655  16.849  0.00  0.00    +0.000 OA
ATOM     31  C   UNL     1      50.240   4.854  17.120  0.00  0.00    +0.000 A 
ATOM     32  H   UNL     1      48.250   2.241  17.182  0.00  0.00    +0.000 HD
ENDBRANCH  21  22
ENDBRANCH  18  21
ENDBRANCH   1  18
TORSDOF 8
ENDMDL
MODEL 4
REMARK VINA RESULT:    -7.493      2.449      3.158
REMARK INTER + INTRA:         -11.444
REMARK INTER:                 -10.523
REMARK INTRA:                  -0.920
REMARK UNBOUND:                -0.447
REMARK  Name = 
REMARK  10 active torsions:
REMARK  status: ('A' for Active; 'I' for Inactive)
REMARK    1  A    between atoms: C_1  and  C_2
REMARK    2  A    between atoms: C_2  and  N_3
REMARK    3  A    between atoms: C_2  and  C_21
REMARK    4  A    between atoms: N_3  and  C_4
REMARK    5  A    between atoms: C_4  and  C_5
REMARK    6  A    between atoms: C_8  and  C_9
REMARK    7  A    between atoms: C_9  and  N_10
REMARK    8  A    between atoms: N_10  and  C_11
REMARK    9  A    between atoms: N_10  and  C_12
REMARK   10  A    between atoms: C_12  and  C_13
REMARK                            x       y       z     vdW  Elec       q    Type
REMARK                         _______ _______ _______ _____ _____    ______ ____
ROOT
ATOM      1  C   UNL     1      49.204   7.231  13.709  0.00  0.00    +0.000 C 
ENDROOT
BRANCH   1   2
ATOM      2  C   UNL     1      47.909   6.733  13.104  0.00  0.00    +0.000 A 
ATOM      3  C   UNL     1      47.360   7.346  11.969  0.00  0.00    +0.000 A 
ATOM      4  C   UNL     1      46.180   6.864  11.402  0.00  0.00    +0.000 A 
ATOM      5  C   UNL     1      45.543   5.738  11.941  0.00  0.00    +0.000 A 
ATOM      6  C   UNL     1      46.078   5.138  13.088  0.00  0.00    +0.000 A 
ATOM      7  C   UNL     1      47.247   5.633  13.663  0.00  0.00    +0.000 A 
BRANCH   5   8
ATOM      8  C   UNL     1      44.299   5.170  11.293  0.00  0.00    +0.000 C 
BRANCH   8   9
ATOM      9  N   UNL     1      44.503   3.822  10.717  0.00  0.00    +0.000 NA
ATOM     10  C   UNL     1      43.564   2.848  11.290  0.00  0.00    +0.000 C 
BRANCH   9  11
ATOM     11  C   UNL     1      44.344   3.851   9.254  0.00  0.00    +0.000 C 
BRANCH  11  12
ATOM     12  C   UNL     1      45.386   3.048   8.520  0.00  0.00    +0.000 A 
ATOM     13  C   UNL     1      46.266   3.644   7.612  0.00  0.00    +0.000 A 
ATOM     14  C   UNL     1      47.207   2.862   6.949  0.00  0.00    +0.000 A 
ATOM     15  C   UNL     1      47.238   1.504   7.220  0.00  0.00    +0.000 A 
ATOM     16  N   UNL     1      46.404   0.890   8.087  0.00  0.00    +0.000 NA
ATOM     17  C   UNL     1      45.499   1.675   8.714  0.00  0.00    +0.000 A 
ENDBRANCH  11  12
ENDBRANCH   9  11
ENDBRANCH   8   9
ENDBRANCH   5   8
ENDBRANCH   1   2
BRANCH   1  18
ATOM     18  N   UNL     1      49.520   6.518  14.942  0.00  0.00    +0.000 NA
ATOM     19  H   UNL     1      48.883   5.727  15.021  0.00  0.00    +0.000 HD
BRANCH  18  21
ATOM     20  C   UNL     1      50.298   8.566  16.136  0.00  0.00    +0.000 C 
ATOM     21  C   UNL     1      49.377   7.342  16.150  0.00  0.00    +0.000 C 
BRANCH  21  22
ATOM     22  C   UNL     1      49.694   6.417  17.310  0.00  0.00    +0.000 A 
ATOM     23  C   UNL     1      50.671   5.431  17.276  0.00  0.00    +0.000 A 
ATOM     24  S   UNL     1      50.697   4.455  18.675  0.00  0.00    +0.000 S 
ATOM     25  C   UNL     1      49.410   5.321  19.375  0.00  0.00    +0.000 A 
ATOM     26  N   UNL     1      48.883   4.954  20.575  0.00  0.00    +0.000 NA
ATOM     27  C   UNL     1      47.906   5.698  20.973  0.00  0.00    +0.000 A 
ATOM     28  N   UNL     1      47.425   6.791  20.298  0.00  0.00    +0.000 N 
ATOM     29  C   UNL     1      47.962   7.235  19.110  0.00  0.00    +0.000 A 
ATOM     30  O   UNL     1      47.582   8.276  18.586  0.00  0.00    +0.000 OA
ATOM     31  C   UNL     1      49.009   6.380  18.580  0.00  0.00    +0.000 A 
ATOM     32  H   UNL     1      46.692   7.360  20.693  0.00  0.00    +0.000 HD
ENDBRANCH  21  22
ENDBRANCH  18  21
ENDBRANCH   1  18
TORSDOF 8
ENDMDL
MODEL 5
REMARK VINA RESULT:    -7.301      3.413      8.733
REMARK INTER + INTRA:         -11.162
REMARK INTER:                  -9.824
REMARK INTRA:                  -1.338
REMARK UNBOUND:                -0.447
REMARK  Name = 
REMARK  10 active torsions:
REMARK  status: ('A' for Active; 'I' for Inactive)
REMARK    1  A    between atoms: C_1  and  C_2
REMARK    2  A    between atoms: C_2  and  N_3
REMARK    3  A    between atoms: C_2  and  C_21
REMARK    4  A    between atoms: N_3  and  C_4
REMARK    5  A    between atoms: C_4  and  C_5
REMARK    6  A    between atoms: C_8  and  C_9
REMARK    7  A    between atoms: C_9  and  N_10
REMARK    8  A    between atoms: N_10  and  C_11
REMARK    9  A    between atoms: N_10  and  C_12
REMARK   10  A    between atoms: C_12  and  C_13
REMARK                            x       y       z     vdW  Elec       q    Type
REMARK                         _______ _______ _______ _____ _____    ______ ____
ROOT
ATOM      1  C   UNL     1      47.954   7.765  12.134  0.00  0.00    +0.000 C 
ENDROOT
BRANCH   1   2
ATOM      2  C   UNL     1      48.295   7.906  13.602  0.00  0.00    +0.000 A 
ATOM      3  C   UNL     1      48.069   9.111  14.282  0.00  0.00    +0.000 A 
ATOM      4  C   UNL     1      48.362   9.225  15.641  0.00  0.00    +0.000 A 
ATOM      5  C   UNL     1      48.858   8.125  16.354  0.00  0.00    +0.000 A 
ATOM      6  C   UNL     1      49.105   6.927  15.672  0.00  0.00    +0.000 A 
ATOM      7  C   UNL     1      48.828   6.822  14.310  0.00  0.00    +0.000 A 
BRANCH   5   8
ATOM      8  C   UNL     1      49.116   8.222  17.842  0.00  0.00    +0.000 C 
BRANCH   8   9
ATOM      9  N   UNL     1      49.788   7.026  18.398  0.00  0.00    +0.000 NA
ATOM     10  C   UNL     1      50.860   7.401  19.331  0.00  0.00    +0.000 C 
BRANCH   9  11
ATOM     11  C   UNL     1      48.820   6.160  19.090  0.00  0.00    +0.000 C 
BRANCH  11  12
ATOM     12  C   UNL     1      48.493   4.899  18.334  0.00  0.00    +0.000 A 
ATOM     13  C   UNL     1      49.483   3.974  17.989  0.00  0.00    +0.000 A 
ATOM     14  C   UNL     1      49.138   2.827  17.282  0.00  0.00    +0.000 A 
ATOM     15  C   UNL     1      47.808   2.641  16.943  0.00  0.00    +0.000 A 
ATOM     16  N   UNL     1      46.823   3.510  17.255  0.00  0.00    +0.000 NA
ATOM     17  C   UNL     1      47.189   4.617  17.940  0.00  0.00    +0.000 A 
ENDBRANCH  11  12
ENDBRANCH   9  11
ENDBRANCH   8   9
ENDBRANCH   5   8
ENDBRANCH   1   2
BRANCH   1  18
ATOM     18  N   UNL     1      47.092   6.611  11.901  0.00  0.00    +0.000 NA
ATOM     19  H   UNL     1      47.588   5.964  11.290  0.00  0.00    +0.000 HD
BRANCH  18  21
ATOM     20  C   UNL     1      45.163   8.193  11.883  0.00  0.00    +0.000 C 
ATOM     21  C   UNL     1      45.813   6.952  11.264  0.00  0.00    +0.000 C 
BRANCH  21  22
ATOM     22  C   UNL     1      44.939   5.722  11.427  0.00  0.00    +0.000 A 
ATOM     23  C   UNL     1      44.149   5.469  12.540  0.00  0.00    +0.000 A 
ATOM     24  S   UNL     1      43.393   3.940  12.502  0.00  0.00    +0.000 S 
ATOM     25  C   UNL     1      44.091   3.569  10.994  0.00  0.00    +0.000 A 
ATOM     26  N   UNL     1      43.898   2.355  10.409  0.00  0.00    +0.000 NA
ATOM     27  C   UNL     1      44.497   2.215   9.273  0.00  0.00    +0.000 A 
ATOM     28  N   UNL     1      45.247   3.184   8.655  0.00  0.00    +0.000 N 
ATOM     29  C   UNL     1      45.423   4.445   9.181  0.00  0.00    +0.000 A 
ATOM     30  O   UNL     1      46.007   5.323   8.555  0.00  0.00    +0.000 OA
ATOM     31  C   UNL     1      44.837   4.622  10.498  0.00  0.00    +0.000 A 
ATOM     32  H   UNL     1      45.645   3.025   7.743  0.00  0.00    +0.000 HD
ENDBRANCH  21  22
ENDBRANCH  18  21
ENDBRANCH   1  18
TORSDOF 8
ENDMDL
MODEL 6
REMARK VINA RESULT:    -7.247      3.662      8.533
REMARK INTER + INTRA:         -11.084
REMARK INTER:                  -9.180
REMARK INTRA:                  -1.904
REMARK UNBOUND:                -0.447
REMARK  Name = 
REMARK  10 active torsions:
REMARK  status: ('A' for Active; 'I' for Inactive)
REMARK    1  A    between atoms: C_1  and  C_2
REMARK    2  A    between atoms: C_2  and  N_3
REMARK    3  A    between atoms: C_2  and  C_21
REMARK    4  A    between atoms: N_3  and  C_4
REMARK    5  A    between atoms: C_4  and  C_5
REMARK    6  A    between atoms: C_8  and  C_9
REMARK    7  A    between atoms: C_9  and  N_10
REMARK    8  A    between atoms: N_10  and  C_11
REMARK    9  A    between atoms: N_10  and  C_12
REMARK   10  A    between atoms: C_12  and  C_13
REMARK                            x       y       z     vdW  Elec       q    Type
REMARK                         _______ _______ _______ _____ _____    ______ ____
ROOT
ATOM      1  C   UNL     1      48.372   8.408  14.462  0.00  0.00    +0.000 C 
ENDROOT
BRANCH   1   2
ATOM      2  C   UNL     1      48.886   8.063  15.844  0.00  0.00    +0.000 A 
ATOM      3  C   UNL     1      48.251   8.554  16.993  0.00  0.00    +0.000 A 
ATOM      4  C   UNL     1      48.715   8.210  18.263  0.00  0.00    +0.000 A 
ATOM      5  C   UNL     1      49.805   7.341  18.407  0.00  0.00    +0.000 A 
ATOM      6  C   UNL     1      50.454   6.867  17.260  0.00  0.00    +0.000 A 
ATOM      7  C   UNL     1      49.999   7.227  15.994  0.00  0.00    +0.000 A 
BRANCH   5   8
ATOM      8  C   UNL     1      50.273   6.912  19.781  0.00  0.00    +0.000 C 
BRANCH   8   9
ATOM      9  N   UNL     1      50.371   5.443  19.933  0.00  0.00    +0.000 NA
ATOM     10  C   UNL     1      51.092   5.079  21.161  0.00  0.00    +0.000 C 
BRANCH   9  11
ATOM     11  C   UNL     1      49.032   4.831  19.954  0.00  0.00    +0.000 C 
BRANCH  11  12
ATOM     12  C   UNL     1      48.633   4.213  18.639  0.00  0.00    +0.000 A 
ATOM     13  C   UNL     1      47.460   4.589  17.979  0.00  0.00    +0.000 A 
ATOM     14  C   UNL     1      47.125   3.986  16.771  0.00  0.00    +0.000 A 
ATOM     15  C   UNL     1      47.981   3.024  16.260  0.00  0.00    +0.000 A 
ATOM     16  N   UNL     1      49.121   2.632  16.867  0.00  0.00    +0.000 NA
ATOM     17  C   UNL     1      49.419   3.234  18.041  0.00  0.00    +0.000 A 
ENDBRANCH  11  12
ENDBRANCH   9  11
ENDBRANCH   8   9
ENDBRANCH   5   8
ENDBRANCH   1   2
BRANCH   1  18
ATOM     18  N   UNL     1      47.097   7.752  14.194  0.00  0.00    +0.000 NA
ATOM     19  H   UNL     1      46.623   7.606  15.084  0.00  0.00    +0.000 HD
BRANCH  18  21
ATOM     20  C   UNL     1      48.499   6.360  12.670  0.00  0.00    +0.000 C 
ATOM     21  C   UNL     1      47.237   6.448  13.532  0.00  0.00    +0.000 C 
BRANCH  21  22
ATOM     22  C   UNL     1      45.979   6.280  12.700  0.00  0.00    +0.000 A 
ATOM     23  C   UNL     1      45.301   7.329  12.091  0.00  0.00    +0.000 A 
ATOM     24  S   UNL     1      43.843   6.852  11.346  0.00  0.00    +0.000 S 
ATOM     25  C   UNL     1      44.071   5.229  11.807  0.00  0.00    +0.000 A 
ATOM     26  N   UNL     1      43.133   4.281  11.534  0.00  0.00    +0.000 NA
ATOM     27  C   UNL     1      43.439   3.098  11.952  0.00  0.00    +0.000 A 
ATOM     28  N   UNL     1      44.607   2.770  12.593  0.00  0.00    +0.000 N 
ATOM     29  C   UNL     1      45.608   3.682  12.841  0.00  0.00    +0.000 A 
ATOM     30  O   UNL     1      46.684   3.336  13.318  0.00  0.00    +0.000 OA
ATOM     31  C   UNL     1      45.273   5.043  12.463  0.00  0.00    +0.000 A 
ATOM     32  H   UNL     1      44.805   1.815  12.847  0.00  0.00    +0.000 HD
ENDBRANCH  21  22
ENDBRANCH  18  21
ENDBRANCH   1  18
TORSDOF 8
ENDMDL
MODEL 7
REMARK VINA RESULT:    -6.911      3.641      8.319
REMARK INTER + INTRA:         -10.589
REMARK INTER:                  -8.848
REMARK INTRA:                  -1.741
REMARK UNBOUND:                -0.447
REMARK  Name = 
REMARK  10 active torsions:
REMARK  status: ('A' for Active; 'I' for Inactive)
REMARK    1  A    between atoms: C_1  and  C_2
REMARK    2  A    between atoms: C_2  and  N_3
REMARK    3  A    between atoms: C_2  and  C_21
REMARK    4  A    between atoms: N_3  and  C_4
REMARK    5  A    between atoms: C_4  and  C_5
REMARK    6  A    between atoms: C_8  and  C_9
REMARK    7  A    between atoms: C_9  and  N_10
REMARK    8  A    between atoms: N_10  and  C_11
REMARK    9  A    between atoms: N_10  and  C_12
REMARK   10  A    between atoms: C_12  and  C_13
REMARK                            x       y       z     vdW  Elec       q    Type
REMARK                         _______ _______ _______ _____ _____    ______ ____
ROOT
ATOM      1  C   UNL     1      48.076   8.991  12.587  0.00  0.00    +0.000 C 
ENDROOT
BRANCH   1   2
ATOM      2  C   UNL     1      48.941   8.612  13.770  0.00  0.00    +0.000 A 
ATOM      3  C   UNL     1      48.404   8.548  15.064  0.00  0.00    +0.000 A 
ATOM      4  C   UNL     1      49.201   8.173  16.146  0.00  0.00    +0.000 A 
ATOM      5  C   UNL     1      50.544   7.822  15.949  0.00  0.00    +0.000 A 
ATOM      6  C   UNL     1      51.087   7.907  14.661  0.00  0.00    +0.000 A 
ATOM      7  C   UNL     1      50.293   8.300  13.586  0.00  0.00    +0.000 A 
BRANCH   5   8
ATOM      8  C   UNL     1      51.397   7.352  17.107  0.00  0.00    +0.000 C 
BRANCH   8   9
ATOM      9  N   UNL     1      51.833   5.944  16.977  0.00  0.00    +0.000 NA
ATOM     10  C   UNL     1      53.297   5.831  17.037  0.00  0.00    +0.000 C 
BRANCH   9  11
ATOM     11  C   UNL     1      51.237   5.113  18.036  0.00  0.00    +0.000 C 
BRANCH  11  12
ATOM     12  C   UNL     1      50.176   4.169  17.534  0.00  0.00    +0.000 A 
ATOM     13  C   UNL     1      48.822   4.518  17.538  0.00  0.00    +0.000 A 
ATOM     14  C   UNL     1      47.875   3.612  17.073  0.00  0.00    +0.000 A 
ATOM     15  C   UNL     1      48.316   2.381  16.615  0.00  0.00    +0.000 A 
ATOM     16  N   UNL     1      49.612   2.005  16.596  0.00  0.00    +0.000 NA
ATOM     17  C   UNL     1      50.510   2.906  17.056  0.00  0.00    +0.000 A 
ENDBRANCH  11  12
ENDBRANCH   9  11
ENDBRANCH   8   9
ENDBRANCH   5   8
ENDBRANCH   1   2
BRANCH   1  18
ATOM     18  N   UNL     1      47.635   7.808  11.856  0.00  0.00    +0.000 NA
ATOM     19  H   UNL     1      47.859   7.943  10.871  0.00  0.00    +0.000 HD
BRANCH  18  21
ATOM     20  C   UNL     1      45.488   8.561  12.880  0.00  0.00    +0.000 C 
ATOM     21  C   UNL     1      46.192   7.555  11.966  0.00  0.00    +0.000 C 
BRANCH  21  22
ATOM     22  C   UNL     1      46.069   6.138  12.494  0.00  0.00    +0.000 A 
ATOM     23  C   UNL     1      47.056   5.490  13.226  0.00  0.00    +0.000 A 
ATOM     24  S   UNL     1      46.693   3.857  13.557  0.00  0.00    +0.000 S 
ATOM     25  C   UNL     1      45.204   3.962  12.738  0.00  0.00    +0.000 A 
ATOM     26  N   UNL     1      44.404   2.870  12.589  0.00  0.00    +0.000 NA
ATOM     27  C   UNL     1      43.313   3.100  11.938  0.00  0.00    +0.000 A 
ATOM     28  N   UNL     1      42.933   4.324  11.448  0.00  0.00    +0.000 N 
ATOM     29  C   UNL     1      43.682   5.467  11.622  0.00  0.00    +0.000 A 
ATOM     30  O   UNL     1      43.266   6.564  11.267  0.00  0.00    +0.000 OA
ATOM     31  C   UNL     1      44.959   5.241  12.276  0.00  0.00    +0.000 A 
ATOM     32  H   UNL     1      42.042   4.444  10.993  0.00  0.00    +0.000 HD
ENDBRANCH  21  22
ENDBRANCH  18  21
ENDBRANCH   1  18
TORSDOF 8
ENDMDL
MODEL 8
REMARK VINA RESULT:    -6.824      5.378      8.445
REMARK INTER + INTRA:         -10.463
REMARK INTER:                  -9.173
REMARK INTRA:                  -1.290
REMARK UNBOUND:                -0.447
REMARK  Name = 
REMARK  10 active torsions:
REMARK  status: ('A' for Active; 'I' for Inactive)
REMARK    1  A    between atoms: C_1  and  C_2
REMARK    2  A    between atoms: C_2  and  N_3
REMARK    3  A    between atoms: C_2  and  C_21
REMARK    4  A    between atoms: N_3  and  C_4
REMARK    5  A    between atoms: C_4  and  C_5
REMARK    6  A    between atoms: C_8  and  C_9
REMARK    7  A    between atoms: C_9  and  N_10
REMARK    8  A    between atoms: N_10  and  C_11
REMARK    9  A    between atoms: N_10  and  C_12
REMARK   10  A    between atoms: C_12  and  C_13
REMARK                            x       y       z     vdW  Elec       q    Type
REMARK                         _______ _______ _______ _____ _____    ______ ____
ROOT
ATOM      1  C   UNL     1      47.212   7.730  12.697  0.00  0.00    +0.000 C 
ENDROOT
BRANCH   1   2
ATOM      2  C   UNL     1      48.508   8.321  12.183  0.00  0.00    +0.000 A 
ATOM      3  C   UNL     1      49.624   7.509  11.939  0.00  0.00    +0.000 A 
ATOM      4  C   UNL     1      50.806   8.057  11.441  0.00  0.00    +0.000 A 
ATOM      5  C   UNL     1      50.884   9.426  11.147  0.00  0.00    +0.000 A 
ATOM      6  C   UNL     1      49.777  10.242  11.411  0.00  0.00    +0.000 A 
ATOM      7  C   UNL     1      48.604   9.694  11.926  0.00  0.00    +0.000 A 
BRANCH   5   8
ATOM      8  C   UNL     1      52.141  10.016  10.545  0.00  0.00    +0.000 C 
BRANCH   8   9
ATOM      9  N   UNL     1      52.130  10.030   9.065  0.00  0.00    +0.000 NA
ATOM     10  C   UNL     1      51.905  11.387   8.546  0.00  0.00    +0.000 C 
BRANCH   9  11
ATOM     11  C   UNL     1      53.396   9.506   8.530  0.00  0.00    +0.000 C 
BRANCH  11  12
ATOM     12  C   UNL     1      53.338   8.043   8.173  0.00  0.00    +0.000 A 
ATOM     13  C   UNL     1      53.693   7.050   9.091  0.00  0.00    +0.000 A 
ATOM     14  C   UNL     1      53.633   5.712   8.715  0.00  0.00    +0.000 A 
ATOM     15  C   UNL     1      53.216   5.410   7.429  0.00  0.00    +0.000 A 
ATOM     16  N   UNL     1      52.868   6.339   6.514  0.00  0.00    +0.000 NA
ATOM     17  C   UNL     1      52.938   7.631   6.906  0.00  0.00    +0.000 A 
ENDBRANCH  11  12
ENDBRANCH   9  11
ENDBRANCH   8   9
ENDBRANCH   5   8
ENDBRANCH   1   2
BRANCH   1  18
ATOM     18  N   UNL     1      46.795   6.590  11.889  0.00  0.00    +0.000 NA
ATOM     19  H   UNL     1      47.561   6.351  11.260  0.00  0.00    +0.000 HD
BRANCH  18  21
ATOM     20  C   UNL     1      44.807   8.064  11.574  0.00  0.00    +0.000 C 
ATOM     21  C   UNL     1      45.601   6.853  11.075  0.00  0.00    +0.000 C 
BRANCH  21  22
ATOM     22  C   UNL     1      44.778   5.580  11.140  0.00  0.00    +0.000 A 
ATOM     23  C   UNL     1      43.912   5.263  12.179  0.00  0.00    +0.000 A 
ATOM     24  S   UNL     1      43.238   3.702  12.048  0.00  0.00    +0.000 S 
ATOM     25  C   UNL     1      44.075   3.399  10.597  0.00  0.00    +0.000 A 
ATOM     26  N   UNL     1      43.992   2.191   9.975  0.00  0.00    +0.000 NA
ATOM     27  C   UNL     1      44.688   2.106   8.891  0.00  0.00    +0.000 A 
ATOM     28  N   UNL     1      45.437   3.124   8.356  0.00  0.00    +0.000 N 
ATOM     29  C   UNL     1      45.508   4.379   8.919  0.00  0.00    +0.000 A 
ATOM     30  O   UNL     1      46.097   5.297   8.361  0.00  0.00    +0.000 OA
ATOM     31  C   UNL     1      44.807   4.497  10.186  0.00  0.00    +0.000 A 
ATOM     32  H   UNL     1      45.916   3.005   7.477  0.00  0.00    +0.000 HD
ENDBRANCH  21  22
ENDBRANCH  18  21
ENDBRANCH   1  18
TORSDOF 8
ENDMDL
MODEL 9
REMARK VINA RESULT:    -6.606      2.889      4.582
REMARK INTER + INTRA:         -10.142
REMARK INTER:                  -8.398
REMARK INTRA:                  -1.744
REMARK UNBOUND:                -0.447
REMARK  Name = 
REMARK  10 active torsions:
REMARK  status: ('A' for Active; 'I' for Inactive)
REMARK    1  A    between atoms: C_1  and  C_2
REMARK    2  A    between atoms: C_2  and  N_3
REMARK    3  A    between atoms: C_2  and  C_21
REMARK    4  A    between atoms: N_3  and  C_4
REMARK    5  A    between atoms: C_4  and  C_5
REMARK    6  A    between atoms: C_8  and  C_9
REMARK    7  A    between atoms: C_9  and  N_10
REMARK    8  A    between atoms: N_10  and  C_11
REMARK    9  A    between atoms: N_10  and  C_12
REMARK   10  A    between atoms: C_12  and  C_13
REMARK                            x       y       z     vdW  Elec       q    Type
REMARK                         _______ _______ _______ _____ _____    ______ ____
ROOT
ATOM      1  C   UNL     1      50.829   7.585  18.100  0.00  0.00    +0.000 C 
ENDROOT
BRANCH   1   2
ATOM      2  C   UNL     1      50.028   7.833  16.839  0.00  0.00    +0.000 A 
ATOM      3  C   UNL     1      49.096   8.878  16.771  0.00  0.00    +0.000 A 
ATOM      4  C   UNL     1      48.382   9.116  15.596  0.00  0.00    +0.000 A 
ATOM      5  C   UNL     1      48.609   8.332  14.457  0.00  0.00    +0.000 A 
ATOM      6  C   UNL     1      49.523   7.274  14.531  0.00  0.00    +0.000 A 
ATOM      7  C   UNL     1      50.222   7.028  15.711  0.00  0.00    +0.000 A 
BRANCH   5   8
ATOM      8  C   UNL     1      47.885   8.626  13.161  0.00  0.00    +0.000 C 
BRANCH   8   9
ATOM      9  N   UNL     1      46.692   7.775  12.952  0.00  0.00    +0.000 NA
ATOM     10  C   UNL     1      45.501   8.587  12.667  0.00  0.00    +0.000 C 
BRANCH   9  11
ATOM     11  C   UNL     1      46.913   6.829  11.847  0.00  0.00    +0.000 C 
BRANCH  11  12
ATOM     12  C   UNL     1      46.030   5.610  11.913  0.00  0.00    +0.000 A 
ATOM     13  C   UNL     1      45.257   5.205  10.821  0.00  0.00    +0.000 A 
ATOM     14  C   UNL     1      44.449   4.078  10.930  0.00  0.00    +0.000 A 
ATOM     15  C   UNL     1      44.443   3.389  12.131  0.00  0.00    +0.000 A 
ATOM     16  N   UNL     1      45.173   3.748  13.209  0.00  0.00    +0.000 NA
ATOM     17  C   UNL     1      45.947   4.849  13.075  0.00  0.00    +0.000 A 
ENDBRANCH  11  12
ENDBRANCH   9  11
ENDBRANCH   8   9
ENDBRANCH   5   8
ENDBRANCH   1   2
BRANCH   1  18
ATOM     18  N   UNL     1      49.963   7.187  19.204  0.00  0.00    +0.000 NA
ATOM     19  H   UNL     1      49.905   7.966  19.858  0.00  0.00    +0.000 HD
BRANCH  18  21
ATOM     20  C   UNL     1      51.898   6.175  20.413  0.00  0.00    +0.000 C 
ATOM     21  C   UNL     1      50.452   6.011  19.938  0.00  0.00    +0.000 C 
BRANCH  21  22
ATOM     22  C   UNL     1      50.308   4.846  18.976  0.00  0.00    +0.000 A 
ATOM     23  C   UNL     1      51.337   3.972  18.651  0.00  0.00    +0.000 A 
ATOM     24  S   UNL     1      50.917   2.853  17.434  0.00  0.00    +0.000 S 
ATOM     25  C   UNL     1      49.346   3.494  17.305  0.00  0.00    +0.000 A 
ATOM     26  N   UNL     1      48.466   3.022  16.380  0.00  0.00    +0.000 NA
ATOM     27  C   UNL     1      47.317   3.612  16.394  0.00  0.00    +0.000 A 
ATOM     28  N   UNL     1      46.956   4.609  17.266  0.00  0.00    +0.000 N 
ATOM     29  C   UNL     1      47.792   5.079  18.254  0.00  0.00    +0.000 A 
ATOM     30  O   UNL     1      47.404   5.894  19.085  0.00  0.00    +0.000 OA
ATOM     31  C   UNL     1      49.125   4.504  18.223  0.00  0.00    +0.000 A 
ATOM     32  H   UNL     1      46.023   4.990  17.255  0.00  0.00    +0.000 HD
ENDBRANCH  21  22
ENDBRANCH  18  21
ENDBRANCH   1  18
TORSDOF 8
ENDMDL
