MODEL 1
REMARK VINA RESULT:    -8.168      0.000      0.000
REMARK INTER + INTRA:         -11.893
REMARK INTER:                 -11.032
REMARK INTRA:                  -0.861
REMARK UNBOUND:                -0.861
REMARK  Name = 
REMARK  6 active torsions:
REMARK  status: ('A' for Active; 'I' for Inactive)
REMARK    1  A    between atoms: C_2  and  C_4
REMARK    2  A    between atoms: C_7  and  O_8
REMARK    3  A    between atoms: O_8  and  C_9
REMARK    4  A    between atoms: C_9  and  C_10
REMARK    5  A    between atoms: C_11  and  C_12
REMARK    6  A    between atoms: C_16  and  C_17
REMARK                            x       y       z     vdW  Elec       q    Type
REMARK                         _______ _______ _______ _____ _____    ______ ____
ROOT
ATOM      1  C   UNL     1      45.062   4.600  11.835  0.00  0.00    +0.000 C 
ATOM      2  C   UNL     1      45.713   4.206  12.940  0.00  0.00    +0.000 C 
ENDROOT
BRANCH   2   3
ATOM      3  C   UNL     1      46.698   5.024  13.650  0.00  0.00    +0.000 A 
ATOM      4  C   UNL     1      47.297   6.149  13.077  0.00  0.00    +0.000 A 
ATOM      5  C   UNL     1      48.235   6.882  13.796  0.00  0.00    +0.000 A 
ATOM      6  C   UNL     1      48.599   6.482  15.084  0.00  0.00    +0.000 A 
ATOM      7  C   UNL     1      48.009   5.366  15.710  0.00  0.00    +0.000 A 
ATOM      8  C   UNL     1      47.056   4.654  14.958  0.00  0.00    +0.000 A 
BRANCH   7   9
ATOM      9  C   UNL     1      48.298   5.036  17.136  0.00  0.00    +0.000 A 
ATOM     10  C   UNL     1      48.233   6.079  18.090  0.00  0.00    +0.000 A 
ATOM     11  C   UNL     1      48.408   5.856  19.459  0.00  0.00    +0.000 A 
ATOM     12  C   UNL     1      48.628   4.569  19.927  0.00  0.00    +0.000 A 
ATOM     13  C   UNL     1      48.718   3.519  19.019  0.00  0.00    +0.000 A 
ATOM     14  C   UNL     1      48.583   3.746  17.639  0.00  0.00    +0.000 A 
ATOM     15 CL   UNL     1      48.850   2.360  16.631  0.00  0.00    +0.000 Cl
ENDBRANCH   7   9
ENDBRANCH   2   3
BRANCH   1  16
ATOM     16  C   UNL     1      43.979   3.805  11.185  0.00  0.00    +0.000 C 
BRANCH  16  17
ATOM     17  O   UNL     1      43.851   4.240   9.832  0.00  0.00    +0.000 OA
BRANCH  17  21
ATOM     18  C   UNL     1      46.617   2.387   7.414  0.00  0.00    +0.000 A 
ATOM     19  C   UNL     1      45.894   1.632   8.342  0.00  0.00    +0.000 A 
ATOM     20  C   UNL     1      44.959   2.271   9.157  0.00  0.00    +0.000 A 
ATOM     21  C   UNL     1      44.783   3.637   9.010  0.00  0.00    +0.000 A 
ATOM     22  N   UNL     1      45.476   4.392   8.131  0.00  0.00    +0.000 NA
ATOM     23  C   UNL     1      46.383   3.753   7.362  0.00  0.00    +0.000 A 
BRANCH  18  25
ATOM     24  N   UNL     1      48.774   2.522   6.311  0.00  0.00    +0.000 N 
ATOM     25  C   UNL     1      47.624   1.812   6.501  0.00  0.00    +0.000 C 
ATOM     26  O   UNL     1      47.454   0.722   5.970  0.00  0.00    +0.000 OA
ATOM     27  H   UNL     1      49.501   2.055   5.782  0.00  0.00    +0.000 HD
ATOM     28  H   UNL     1      49.055   3.274   6.924  0.00  0.00    +0.000 HD
ENDBRANCH  18  25
ENDBRANCH  17  21
ENDBRANCH  16  17
ENDBRANCH   1  16
TORSDOF 6
ENDMDL
MODEL 2
REMARK VINA RESULT:    -8.108      2.673      4.745
REMARK INTER + INTRA:         -11.813
REMARK INTER:                 -10.819
REMARK INTRA:                  -0.993
REMARK UNBOUND:                -0.861
REMARK  Name = 
REMARK  6 active torsions:
REMARK  status: ('A' for Active; 'I' for Inactive)
REMARK    1  A    between atoms: C_2  and  C_4
REMARK    2  A    between atoms: C_7  and  O_8
REMARK    3  A    between atoms: O_8  and  C_9
REMARK    4  A    between atoms: C_9  and  C_10
REMARK    5  A    between atoms: C_11  and  C_12
REMARK    6  A    between atoms: C_16  and  C_17
REMARK                            x       y       z     vdW  Elec       q    Type
REMARK                         _______ _______ _______ _____ _____    ______ ____
ROOT
ATOM      1  C   UNL     1      45.046   3.490  11.939  0.00  0.00    +0.000 C 
ATOM      2  C   UNL     1      44.921   4.652  12.597  0.00  0.00    +0.000 C 
ENDROOT
BRANCH   2   3
ATOM      3  C   UNL     1      46.048   5.422  13.127  0.00  0.00    +0.000 A 
ATOM      4  C   UNL     1      46.821   4.981  14.204  0.00  0.00    +0.000 A 
ATOM      5  C   UNL     1      47.874   5.760  14.672  0.00  0.00    +0.000 A 
ATOM      6  C   UNL     1      48.147   6.997  14.082  0.00  0.00    +0.000 A 
ATOM      7  C   UNL     1      47.407   7.474  12.982  0.00  0.00    +0.000 A 
ATOM      8  C   UNL     1      46.356   6.656  12.527  0.00  0.00    +0.000 A 
BRANCH   7   9
ATOM      9  C   UNL     1      47.800   8.724  12.269  0.00  0.00    +0.000 A 
ATOM     10  C   UNL     1      46.894   9.812  12.277  0.00  0.00    +0.000 A 
ATOM     11  C   UNL     1      47.204  11.050  11.706  0.00  0.00    +0.000 A 
ATOM     12  C   UNL     1      48.448  11.253  11.129  0.00  0.00    +0.000 A 
ATOM     13  C   UNL     1      49.360  10.204  11.085  0.00  0.00    +0.000 A 
ATOM     14  C   UNL     1      49.036   8.945  11.621  0.00  0.00    +0.000 A 
ATOM     15 CL   UNL     1      50.225   7.707  11.371  0.00  0.00    +0.000 Cl
ENDBRANCH   7   9
ENDBRANCH   2   3
BRANCH   1  16
ATOM     16  C   UNL     1      43.901   2.771  11.305  0.00  0.00    +0.000 C 
BRANCH  16  17
ATOM     17  O   UNL     1      43.670   3.340  10.017  0.00  0.00    +0.000 OA
BRANCH  17  21
ATOM     18  C   UNL     1      46.603   2.345   7.309  0.00  0.00    +0.000 A 
ATOM     19  C   UNL     1      46.131   3.660   7.364  0.00  0.00    +0.000 A 
ATOM     20  C   UNL     1      45.135   3.985   8.287  0.00  0.00    +0.000 A 
ATOM     21  C   UNL     1      44.654   2.986   9.116  0.00  0.00    +0.000 A 
ATOM     22  N   UNL     1      45.084   1.706   9.076  0.00  0.00    +0.000 NA
ATOM     23  C   UNL     1      46.039   1.413   8.168  0.00  0.00    +0.000 A 
BRANCH  18  25
ATOM     24  N   UNL     1      48.809   2.623   6.337  0.00  0.00    +0.000 N 
ATOM     25  C   UNL     1      47.656   1.895   6.377  0.00  0.00    +0.000 C 
ATOM     26  O   UNL     1      47.519   0.883   5.702  0.00  0.00    +0.000 OA
ATOM     27  H   UNL     1      49.563   2.230   5.788  0.00  0.00    +0.000 HD
ATOM     28  H   UNL     1      49.055   3.289   7.056  0.00  0.00    +0.000 HD
ENDBRANCH  18  25
ENDBRANCH  17  21
ENDBRANCH  16  17
ENDBRANCH   1  16
TORSDOF 6
ENDMDL
MODEL 3
REMARK VINA RESULT:    -7.971      2.903      4.859
REMARK INTER + INTRA:         -11.628
REMARK INTER:                 -10.872
REMARK INTRA:                  -0.756
REMARK UNBOUND:                -0.861
REMARK  Name = 
REMARK  6 active torsions:
REMARK  status: ('A' for Active; 'I' for Inactive)
REMARK    1  A    between atoms: C_2  and  C_4
REMARK    2  A    between atoms: C_7  and  O_8
REMARK    3  A    between atoms: O_8  and  C_9
REMARK    4  A    between atoms: C_9  and  C_10
REMARK    5  A    between atoms: C_11  and  C_12
REMARK    6  A    between atoms: C_16  and  C_17
REMARK                            x       y       z     vdW  Elec       q    Type
REMARK                         _______ _______ _______ _____ _____    ______ ____
ROOT
ATOM      1  C   UNL     1      44.722   3.939  11.956  0.00  0.00    +0.000 C 
ATOM      2  C   UNL     1      45.360   5.077  11.646  0.00  0.00    +0.000 C 
ENDROOT
BRANCH   2   3
ATOM      3  C   UNL     1      46.424   5.672  12.458  0.00  0.00    +0.000 A 
ATOM      4  C   UNL     1      46.755   5.199  13.730  0.00  0.00    +0.000 A 
ATOM      5  C   UNL     1      47.768   5.810  14.460  0.00  0.00    +0.000 A 
ATOM      6  C   UNL     1      48.443   6.914  13.932  0.00  0.00    +0.000 A 
ATOM      7  C   UNL     1      48.158   7.415  12.647  0.00  0.00    +0.000 A 
ATOM      8  C   UNL     1      47.133   6.766  11.932  0.00  0.00    +0.000 A 
BRANCH   7   9
ATOM      9  C   UNL     1      48.982   8.498  12.037  0.00  0.00    +0.000 A 
ATOM     10  C   UNL     1      50.325   8.205  11.698  0.00  0.00    +0.000 A 
ATOM     11  C   UNL     1      51.153   9.127  11.050  0.00  0.00    +0.000 A 
ATOM     12  C   UNL     1      50.655  10.372  10.693  0.00  0.00    +0.000 A 
ATOM     13  C   UNL     1      49.347  10.705  11.026  0.00  0.00    +0.000 A 
ATOM     14  C   UNL     1      48.524   9.795  11.713  0.00  0.00    +0.000 A 
ATOM     15 CL   UNL     1      46.966  10.406  12.171  0.00  0.00    +0.000 Cl
ENDBRANCH   7   9
ENDBRANCH   2   3
BRANCH   1  16
ATOM     16  C   UNL     1      43.719   3.283  11.066  0.00  0.00    +0.000 C 
BRANCH  16  17
ATOM     17  O   UNL     1      43.744   3.938   9.799  0.00  0.00    +0.000 OA
BRANCH  17  21
ATOM     18  C   UNL     1      46.612   2.294   7.349  0.00  0.00    +0.000 A 
ATOM     19  C   UNL     1      45.958   1.488   8.285  0.00  0.00    +0.000 A 
ATOM     20  C   UNL     1      44.987   2.057   9.112  0.00  0.00    +0.000 A 
ATOM     21  C   UNL     1      44.709   3.406   8.967  0.00  0.00    +0.000 A 
ATOM     22  N   UNL     1      45.333   4.209   8.079  0.00  0.00    +0.000 NA
ATOM     23  C   UNL     1      46.275   3.638   7.299  0.00  0.00    +0.000 A 
BRANCH  18  25
ATOM     24  N   UNL     1      48.787   2.535   6.301  0.00  0.00    +0.000 N 
ATOM     25  C   UNL     1      47.647   1.794   6.423  0.00  0.00    +0.000 C 
ATOM     26  O   UNL     1      47.509   0.736   5.824  0.00  0.00    +0.000 OA
ATOM     27  H   UNL     1      49.533   2.114   5.761  0.00  0.00    +0.000 HD
ATOM     28  H   UNL     1      49.041   3.253   6.965  0.00  0.00    +0.000 HD
ENDBRANCH  18  25
ENDBRANCH  17  21
ENDBRANCH  16  17
ENDBRANCH   1  16
TORSDOF 6
ENDMDL
MODEL 4
REMARK VINA RESULT:    -7.956      1.502      2.135
REMARK INTER + INTRA:         -11.607
REMARK INTER:                 -11.104
REMARK INTRA:                  -0.503
REMARK UNBOUND:                -0.861
REMARK  Name = 
REMARK  6 active torsions:
REMARK  status: ('A' for Active; 'I' for Inactive)
REMARK    1  A    between atoms: C_2  and  C_4
REMARK    2  A    between atoms: C_7  and  O_8
REMARK    3  A    between atoms: O_8  and  C_9
REMARK    4  A    between atoms: C_9  and  C_10
REMARK    5  A    between atoms: C_11  and  C_12
REMARK    6  A    between atoms: C_16  and  C_17
REMARK                            x       y       z     vdW  Elec       q    Type
REMARK                         _______ _______ _______ _____ _____    ______ ____
ROOT
ATOM      1  C   UNL     1      44.832   5.040  11.305  0.00  0.00    +0.000 C 
ATOM      2  C   UNL     1      45.520   6.191  11.280  0.00  0.00    +0.000 C 
ENDROOT
BRANCH   2   3
ATOM      3  C   UNL     1      46.686   6.472  12.120  0.00  0.00    +0.000 A 
ATOM      4  C   UNL     1      47.696   7.358  11.736  0.00  0.00    +0.000 A 
ATOM      5  C   UNL     1      48.785   7.578  12.572  0.00  0.00    +0.000 A 
ATOM      6  C   UNL     1      48.885   6.895  13.787  0.00  0.00    +0.000 A 
ATOM      7  C   UNL     1      47.883   6.007  14.225  0.00  0.00    +0.000 A 
ATOM      8  C   UNL     1      46.789   5.817  13.359  0.00  0.00    +0.000 A 
BRANCH   7   9
ATOM      9  C   UNL     1      47.929   5.399  15.586  0.00  0.00    +0.000 A 
ATOM     10  C   UNL     1      47.274   4.161  15.788  0.00  0.00    +0.000 A 
ATOM     11  C   UNL     1      47.328   3.473  17.004  0.00  0.00    +0.000 A 
ATOM     12  C   UNL     1      48.065   3.990  18.058  0.00  0.00    +0.000 A 
ATOM     13  C   UNL     1      48.708   5.214  17.906  0.00  0.00    +0.000 A 
ATOM     14  C   UNL     1      48.623   5.928  16.698  0.00  0.00    +0.000 A 
ATOM     15 CL   UNL     1      49.367   7.495  16.710  0.00  0.00    +0.000 Cl
ENDBRANCH   7   9
ENDBRANCH   2   3
BRANCH   1  16
ATOM     16  C   UNL     1      43.716   4.721  10.366  0.00  0.00    +0.000 C 
BRANCH  16  17
ATOM     17  O   UNL     1      43.714   3.314  10.131  0.00  0.00    +0.000 OA
BRANCH  17  21
ATOM     18  C   UNL     1      46.542   2.286   7.325  0.00  0.00    +0.000 A 
ATOM     19  C   UNL     1      46.007   3.578   7.326  0.00  0.00    +0.000 A 
ATOM     20  C   UNL     1      45.048   3.915   8.282  0.00  0.00    +0.000 A 
ATOM     21  C   UNL     1      44.665   2.950   9.198  0.00  0.00    +0.000 A 
ATOM     22  N   UNL     1      45.156   1.692   9.213  0.00  0.00    +0.000 NA
ATOM     23  C   UNL     1      46.075   1.387   8.271  0.00  0.00    +0.000 A 
BRANCH  18  25
ATOM     24  N   UNL     1      48.685   2.595   6.228  0.00  0.00    +0.000 N 
ATOM     25  C   UNL     1      47.565   1.827   6.364  0.00  0.00    +0.000 C 
ATOM     26  O   UNL     1      47.434   0.778   5.748  0.00  0.00    +0.000 OA
ATOM     27  H   UNL     1      49.425   2.202   5.660  0.00  0.00    +0.000 HD
ATOM     28  H   UNL     1      48.940   3.306   6.898  0.00  0.00    +0.000 HD
ENDBRANCH  18  25
ENDBRANCH  17  21
ENDBRANCH  16  17
ENDBRANCH   1  16
TORSDOF 6
ENDMDL
MODEL 5
REMARK VINA RESULT:    -7.623      3.166      3.724
REMARK INTER + INTRA:         -11.157
REMARK INTER:                 -10.070
REMARK INTRA:                  -1.088
REMARK UNBOUND:                -0.861
REMARK  Name = 
REMARK  6 active torsions:
REMARK  status: ('A' for Active; 'I' for Inactive)
REMARK    1  A    between atoms: C_2  and  C_4
REMARK    2  A    between atoms: C_7  and  O_8
REMARK    3  A    between atoms: O_8  and  C_9
REMARK    4  A    between atoms: C_9  and  C_10
REMARK    5  A    between atoms: C_11  and  C_12
REMARK    6  A    between atoms: C_16  and  C_17
REMARK                            x       y       z     vdW  Elec       q    Type
REMARK                         _______ _______ _______ _____ _____    ______ ____
ROOT
ATOM      1  C   UNL     1      44.891   4.972  11.661  0.00  0.00    +0.000 C 
ATOM      2  C   UNL     1      44.342   6.182  11.475  0.00  0.00    +0.000 C 
ENDROOT
BRANCH   2   3
ATOM      3  C   UNL     1      45.024   7.446  11.760  0.00  0.00    +0.000 A 
ATOM      4  C   UNL     1      44.521   8.683  11.348  0.00  0.00    +0.000 A 
ATOM      5  C   UNL     1      45.217   9.851  11.638  0.00  0.00    +0.000 A 
ATOM      6  C   UNL     1      46.433   9.790  12.324  0.00  0.00    +0.000 A 
ATOM      7  C   UNL     1      46.970   8.568  12.776  0.00  0.00    +0.000 A 
ATOM      8  C   UNL     1      46.234   7.407  12.474  0.00  0.00    +0.000 A 
BRANCH   7   9
ATOM      9  C   UNL     1      48.191   8.529  13.632  0.00  0.00    +0.000 A 
ATOM     10  C   UNL     1      48.073   8.931  14.984  0.00  0.00    +0.000 A 
ATOM     11  C   UNL     1      49.140   8.855  15.885  0.00  0.00    +0.000 A 
ATOM     12  C   UNL     1      50.360   8.345  15.469  0.00  0.00    +0.000 A 
ATOM     13  C   UNL     1      50.523   7.957  14.144  0.00  0.00    +0.000 A 
ATOM     14  C   UNL     1      49.465   8.070  13.225  0.00  0.00    +0.000 A 
ATOM     15 CL   UNL     1      49.862   7.670  11.585  0.00  0.00    +0.000 Cl
ENDBRANCH   7   9
ENDBRANCH   2   3
BRANCH   1  16
ATOM     16  C   UNL     1      44.231   3.694  11.262  0.00  0.00    +0.000 C 
BRANCH  16  17
ATOM     17  O   UNL     1      43.808   3.810   9.904  0.00  0.00    +0.000 OA
BRANCH  17  21
ATOM     18  C   UNL     1      46.640   2.308   7.325  0.00  0.00    +0.000 A 
ATOM     19  C   UNL     1      46.058   1.467   8.278  0.00  0.00    +0.000 A 
ATOM     20  C   UNL     1      45.099   1.988   9.148  0.00  0.00    +0.000 A 
ATOM     21  C   UNL     1      44.759   3.325   9.029  0.00  0.00    +0.000 A 
ATOM     22  N   UNL     1      45.313   4.162   8.126  0.00  0.00    +0.000 NA
ATOM     23  C   UNL     1      46.247   3.638   7.303  0.00  0.00    +0.000 A 
BRANCH  18  25
ATOM     24  N   UNL     1      48.845   2.535   6.336  0.00  0.00    +0.000 N 
ATOM     25  C   UNL     1      47.658   1.861   6.354  0.00  0.00    +0.000 C 
ATOM     26  O   UNL     1      47.463   0.896   5.626  0.00  0.00    +0.000 OA
ATOM     27  H   UNL     1      49.571   2.137   5.754  0.00  0.00    +0.000 HD
ATOM     28  H   UNL     1      49.132   3.147   7.086  0.00  0.00    +0.000 HD
ENDBRANCH  18  25
ENDBRANCH  17  21
ENDBRANCH  16  17
ENDBRANCH   1  16
TORSDOF 6
ENDMDL
MODEL 6
REMARK VINA RESULT:    -7.473      4.924      8.837
REMARK INTER + INTRA:         -10.955
REMARK INTER:                 -10.077
REMARK INTRA:                  -0.879
REMARK UNBOUND:                -0.861
REMARK  Name = 
REMARK  6 active torsions:
REMARK  status: ('A' for Active; 'I' for Inactive)
REMARK    1  A    between atoms: C_2  and  C_4
REMARK    2  A    between atoms: C_7  and  O_8
REMARK    3  A    between atoms: O_8  and  C_9
REMARK    4  A    between atoms: C_9  and  C_10
REMARK    5  A    between atoms: C_11  and  C_12
REMARK    6  A    between atoms: C_16  and  C_17
REMARK                            x       y       z     vdW  Elec       q    Type
REMARK                         _______ _______ _______ _____ _____    ______ ____
ROOT
ATOM      1  C   UNL     1      48.144   6.339  15.041  0.00  0.00    +0.000 C 
ATOM      2  C   UNL     1      48.138   7.118  13.949  0.00  0.00    +0.000 C 
ENDROOT
BRANCH   2   3
ATOM      3  C   UNL     1      46.999   7.249  13.038  0.00  0.00    +0.000 A 
ATOM      4  C   UNL     1      46.289   8.442  12.886  0.00  0.00    +0.000 A 
ATOM      5  C   UNL     1      45.209   8.504  12.012  0.00  0.00    +0.000 A 
ATOM      6  C   UNL     1      44.816   7.367  11.301  0.00  0.00    +0.000 A 
ATOM      7  C   UNL     1      45.513   6.147  11.408  0.00  0.00    +0.000 A 
ATOM      8  C   UNL     1      46.608   6.123  12.293  0.00  0.00    +0.000 A 
BRANCH   7   9
ATOM      9  C   UNL     1      45.176   4.985  10.536  0.00  0.00    +0.000 A 
ATOM     10  C   UNL     1      45.634   4.999   9.196  0.00  0.00    +0.000 A 
ATOM     11  C   UNL     1      45.438   3.922   8.326  0.00  0.00    +0.000 A 
ATOM     12  C   UNL     1      44.798   2.777   8.776  0.00  0.00    +0.000 A 
ATOM     13  C   UNL     1      44.317   2.731  10.080  0.00  0.00    +0.000 A 
ATOM     14  C   UNL     1      44.476   3.827  10.945  0.00  0.00    +0.000 A 
ATOM     15 CL   UNL     1      43.708   3.667  12.492  0.00  0.00    +0.000 Cl
ENDBRANCH   7   9
ENDBRANCH   2   3
BRANCH   1  16
ATOM     16  C   UNL     1      49.267   6.299  16.024  0.00  0.00    +0.000 C 
BRANCH  16  17
ATOM     17  O   UNL     1      48.883   5.462  17.113  0.00  0.00    +0.000 OA
BRANCH  17  21
ATOM     18  C   UNL     1      51.460   2.283  17.542  0.00  0.00    +0.000 A 
ATOM     19  C   UNL     1      51.915   3.581  17.793  0.00  0.00    +0.000 A 
ATOM     20  C   UNL     1      51.032   4.651  17.644  0.00  0.00    +0.000 A 
ATOM     21  C   UNL     1      49.731   4.381  17.253  0.00  0.00    +0.000 A 
ATOM     22  N   UNL     1      49.269   3.140  16.993  0.00  0.00    +0.000 NA
ATOM     23  C   UNL     1      50.145   2.122  17.133  0.00  0.00    +0.000 A 
BRANCH  18  25
ATOM     24  N   UNL     1      51.725  -0.039  18.196  0.00  0.00    +0.000 N 
ATOM     25  C   UNL     1      52.306   1.081  17.675  0.00  0.00    +0.000 C 
ATOM     26  O   UNL     1      53.469   1.075  17.292  0.00  0.00    +0.000 OA
ATOM     27  H   UNL     1      52.283  -0.883  18.164  0.00  0.00    +0.000 HD
ATOM     28  H   UNL     1      50.724  -0.146  18.270  0.00  0.00    +0.000 HD
ENDBRANCH  18  25
ENDBRANCH  17  21
ENDBRANCH  16  17
ENDBRANCH   1  16
TORSDOF 6
ENDMDL
MODEL 7
REMARK VINA RESULT:    -6.787      4.726      9.406
REMARK INTER + INTRA:         -10.028
REMARK INTER:                  -9.123
REMARK INTRA:                  -0.905
REMARK UNBOUND:                -0.861
REMARK  Name = 
REMARK  6 active torsions:
REMARK  status: ('A' for Active; 'I' for Inactive)
REMARK    1  A    between atoms: C_2  and  C_4
REMARK    2  A    between atoms: C_7  and  O_8
REMARK    3  A    between atoms: O_8  and  C_9
REMARK    4  A    between atoms: C_9  and  C_10
REMARK    5  A    between atoms: C_11  and  C_12
REMARK    6  A    between atoms: C_16  and  C_17
REMARK                            x       y       z     vdW  Elec       q    Type
REMARK                         _______ _______ _______ _____ _____    ______ ____
ROOT
ATOM      1  C   UNL     1      48.722   8.234  14.337  0.00  0.00    +0.000 C 
ATOM      2  C   UNL     1      48.122   7.167  13.788  0.00  0.00    +0.000 C 
ENDROOT
BRANCH   2   3
ATOM      3  C   UNL     1      46.937   7.239  12.932  0.00  0.00    +0.000 A 
ATOM      4  C   UNL     1      46.132   8.379  12.854  0.00  0.00    +0.000 A 
ATOM      5  C   UNL     1      45.012   8.386  12.030  0.00  0.00    +0.000 A 
ATOM      6  C   UNL     1      44.674   7.246  11.296  0.00  0.00    +0.000 A 
ATOM      7  C   UNL     1      45.465   6.081  11.328  0.00  0.00    +0.000 A 
ATOM      8  C   UNL     1      46.598   6.112  12.164  0.00  0.00    +0.000 A 
BRANCH   7   9
ATOM      9  C   UNL     1      45.177   4.926  10.430  0.00  0.00    +0.000 A 
ATOM     10  C   UNL     1      45.643   4.984   9.094  0.00  0.00    +0.000 A 
ATOM     11  C   UNL     1      45.493   3.920   8.200  0.00  0.00    +0.000 A 
ATOM     12  C   UNL     1      44.893   2.743   8.621  0.00  0.00    +0.000 A 
ATOM     13  C   UNL     1      44.405   2.651   9.921  0.00  0.00    +0.000 A 
ATOM     14  C   UNL     1      44.518   3.734  10.810  0.00  0.00    +0.000 A 
ATOM     15 CL   UNL     1      43.746   3.513  12.347  0.00  0.00    +0.000 Cl
ENDBRANCH   7   9
ENDBRANCH   2   3
BRANCH   1  16
ATOM     16  C   UNL     1      49.994   8.159  15.115  0.00  0.00    +0.000 C 
BRANCH  16  17
ATOM     17  O   UNL     1      50.327   6.784  15.304  0.00  0.00    +0.000 OA
BRANCH  17  21
ATOM     18  C   UNL     1      49.056   5.446  18.982  0.00  0.00    +0.000 A 
ATOM     19  C   UNL     1      49.572   6.740  18.857  0.00  0.00    +0.000 A 
ATOM     20  C   UNL     1      50.001   7.183  17.604  0.00  0.00    +0.000 A 
ATOM     21  C   UNL     1      49.894   6.317  16.529  0.00  0.00    +0.000 A 
ATOM     22  N   UNL     1      49.411   5.059  16.623  0.00  0.00    +0.000 NA
ATOM     23  C   UNL     1      49.013   4.650  17.847  0.00  0.00    +0.000 A 
BRANCH  18  25
ATOM     24  N   UNL     1      48.469   3.522  20.339  0.00  0.00    +0.000 N 
ATOM     25  C   UNL     1      48.570   4.881  20.256  0.00  0.00    +0.000 C 
ATOM     26  O   UNL     1      48.311   5.598  21.213  0.00  0.00    +0.000 OA
ATOM     27  H   UNL     1      48.254   3.150  21.255  0.00  0.00    +0.000 HD
ATOM     28  H   UNL     1      48.916   2.903  19.678  0.00  0.00    +0.000 HD
ENDBRANCH  18  25
ENDBRANCH  17  21
ENDBRANCH  16  17
ENDBRANCH   1  16
TORSDOF 6
ENDMDL
MODEL 8
REMARK VINA RESULT:    -6.577      5.618      8.894
REMARK INTER + INTRA:          -9.744
REMARK INTER:                  -8.870
REMARK INTRA:                  -0.874
REMARK UNBOUND:                -0.861
REMARK  Name = 
REMARK  6 active torsions:
REMARK  status: ('A' for Active; 'I' for Inactive)
REMARK    1  A    between atoms: C_2  and  C_4
REMARK    2  A    between atoms: C_7  and  O_8
REMARK    3  A    between atoms: O_8  and  C_9
REMARK    4  A    between atoms: C_9  and  C_10
REMARK    5  A    between atoms: C_11  and  C_12
REMARK    6  A    between atoms: C_16  and  C_17
REMARK                            x       y       z     vdW  Elec       q    Type
REMARK                         _______ _______ _______ _____ _____    ______ ____
ROOT
ATOM      1  C   UNL     1      47.355   4.249  15.790  0.00  0.00    +0.000 C 
ATOM      2  C   UNL     1      46.990   3.751  14.599  0.00  0.00    +0.000 C 
ENDROOT
BRANCH   2   3
ATOM      3  C   UNL     1      46.564   4.567  13.461  0.00  0.00    +0.000 A 
ATOM      4  C   UNL     1      45.556   4.166  12.581  0.00  0.00    +0.000 A 
ATOM      5  C   UNL     1      45.201   4.979  11.510  0.00  0.00    +0.000 A 
ATOM      6  C   UNL     1      45.867   6.189  11.298  0.00  0.00    +0.000 A 
ATOM      7  C   UNL     1      46.876   6.644  12.169  0.00  0.00    +0.000 A 
ATOM      8  C   UNL     1      47.203   5.802  13.248  0.00  0.00    +0.000 A 
BRANCH   7   9
ATOM      9  C   UNL     1      47.475   8.002  12.017  0.00  0.00    +0.000 A 
ATOM     10  C   UNL     1      48.848   8.093  11.684  0.00  0.00    +0.000 A 
ATOM     11  C   UNL     1      49.481   9.316  11.441  0.00  0.00    +0.000 A 
ATOM     12  C   UNL     1      48.753  10.494  11.497  0.00  0.00    +0.000 A 
ATOM     13  C   UNL     1      47.405  10.449  11.839  0.00  0.00    +0.000 A 
ATOM     14  C   UNL     1      46.775   9.225  12.124  0.00  0.00    +0.000 A 
ATOM     15 CL   UNL     1      45.131   9.347  12.661  0.00  0.00    +0.000 Cl
ENDBRANCH   7   9
ENDBRANCH   2   3
BRANCH   1  16
ATOM     16  C   UNL     1      47.894   3.417  16.906  0.00  0.00    +0.000 C 
BRANCH  16  17
ATOM     17  O   UNL     1      48.813   2.472  16.360  0.00  0.00    +0.000 OA
BRANCH  17  21
ATOM     18  C   UNL     1      52.503   2.639  18.172  0.00  0.00    +0.000 A 
ATOM     19  C   UNL     1      52.004   1.409  17.732  0.00  0.00    +0.000 A 
ATOM     20  C   UNL     1      50.751   1.365  17.119  0.00  0.00    +0.000 A 
ATOM     21  C   UNL     1      50.050   2.549  16.969  0.00  0.00    +0.000 A 
ATOM     22  N   UNL     1      50.503   3.748  17.395  0.00  0.00    +0.000 NA
ATOM     23  C   UNL     1      51.713   3.764  17.995  0.00  0.00    +0.000 A 
BRANCH  18  25
ATOM     24  N   UNL     1      54.294   1.739  19.541  0.00  0.00    +0.000 N 
ATOM     25  C   UNL     1      53.817   2.800  18.826  0.00  0.00    +0.000 C 
ATOM     26  O   UNL     1      54.472   3.825  18.695  0.00  0.00    +0.000 OA
ATOM     27  H   UNL     1      55.245   1.823  19.876  0.00  0.00    +0.000 HD
ATOM     28  H   UNL     1      53.913   0.808  19.450  0.00  0.00    +0.000 HD
ENDBRANCH  18  25
ENDBRANCH  17  21
ENDBRANCH  16  17
ENDBRANCH   1  16
TORSDOF 6
ENDMDL
MODEL 9
REMARK VINA RESULT:    -6.569      1.869      2.213
REMARK INTER + INTRA:          -9.734
REMARK INTER:                  -8.745
REMARK INTRA:                  -0.989
REMARK UNBOUND:                -0.861
REMARK  Name = 
REMARK  6 active torsions:
REMARK  status: ('A' for Active; 'I' for Inactive)
REMARK    1  A    between atoms: C_2  and  C_4
REMARK    2  A    between atoms: C_7  and  O_8
REMARK    3  A    between atoms: O_8  and  C_9
REMARK    4  A    between atoms: C_9  and  C_10
REMARK    5  A    between atoms: C_11  and  C_12
REMARK    6  A    between atoms: C_16  and  C_17
REMARK                            x       y       z     vdW  Elec       q    Type
REMARK                         _______ _______ _______ _____ _____    ______ ____
ROOT
ATOM      1  C   UNL     1      45.137   5.179  12.966  0.00  0.00    +0.000 C 
ATOM      2  C   UNL     1      46.448   4.902  12.894  0.00  0.00    +0.000 C 
ENDROOT
BRANCH   2   3
ATOM      3  C   UNL     1      47.500   5.746  13.462  0.00  0.00    +0.000 A 
ATOM      4  C   UNL     1      48.303   6.579  12.679  0.00  0.00    +0.000 A 
ATOM      5  C   UNL     1      49.295   7.352  13.274  0.00  0.00    +0.000 A 
ATOM      6  C   UNL     1      49.507   7.279  14.653  0.00  0.00    +0.000 A 
ATOM      7  C   UNL     1      48.711   6.468  15.485  0.00  0.00    +0.000 A 
ATOM      8  C   UNL     1      47.709   5.708  14.852  0.00  0.00    +0.000 A 
BRANCH   7   9
ATOM      9  C   UNL     1      48.851   6.510  16.969  0.00  0.00    +0.000 A 
ATOM     10  C   UNL     1      49.291   5.341  17.634  0.00  0.00    +0.000 A 
ATOM     11  C   UNL     1      49.529   5.305  19.011  0.00  0.00    +0.000 A 
ATOM     12  C   UNL     1      49.360   6.452  19.772  0.00  0.00    +0.000 A 
ATOM     13  C   UNL     1      48.910   7.617  19.160  0.00  0.00    +0.000 A 
ATOM     14  C   UNL     1      48.631   7.646  17.782  0.00  0.00    +0.000 A 
ATOM     15 CL   UNL     1      47.954   9.131  17.195  0.00  0.00    +0.000 Cl
ENDBRANCH   7   9
ENDBRANCH   2   3
BRANCH   1  16
ATOM     16  C   UNL     1      44.068   4.257  12.482  0.00  0.00    +0.000 C 
BRANCH  16  17
ATOM     17  O   UNL     1      43.636   4.702  11.197  0.00  0.00    +0.000 OA
BRANCH  17  21
ATOM     18  C   UNL     1      45.786   2.892   8.191  0.00  0.00    +0.000 A 
ATOM     19  C   UNL     1      45.010   2.111   9.052  0.00  0.00    +0.000 A 
ATOM     20  C   UNL     1      44.285   2.736  10.069  0.00  0.00    +0.000 A 
ATOM     21  C   UNL     1      44.364   4.114  10.181  0.00  0.00    +0.000 A 
ATOM     22  N   UNL     1      45.114   4.891   9.371  0.00  0.00    +0.000 NA
ATOM     23  C   UNL     1      45.815   4.262   8.402  0.00  0.00    +0.000 A 
BRANCH  18  25
ATOM     24  N   UNL     1      47.227   1.153   7.305  0.00  0.00    +0.000 N 
ATOM     25  C   UNL     1      46.585   2.336   7.081  0.00  0.00    +0.000 C 
ATOM     26  O   UNL     1      46.632   2.889   5.991  0.00  0.00    +0.000 OA
ATOM     27  H   UNL     1      47.665   0.727   6.498  0.00  0.00    +0.000 HD
ATOM     28  H   UNL     1      46.999   0.550   8.083  0.00  0.00    +0.000 HD
ENDBRANCH  18  25
ENDBRANCH  17  21
ENDBRANCH  16  17
ENDBRANCH   1  16
TORSDOF 6
ENDMDL
