MODEL 1
REMARK VINA RESULT:    -7.854      0.000      0.000
REMARK INTER + INTRA:          -9.887
REMARK INTER:                  -9.232
REMARK INTRA:                  -0.656
REMARK UNBOUND:                -0.656
REMARK  Name = 
REMARK  3 active torsions:
REMARK  status: ('A' for Active; 'I' for Inactive)
REMARK    1  A    between atoms: C_5  and  O_6
REMARK    2  A    between atoms: O_6  and  C_7
REMARK    3  A    between atoms: C_7  and  C_8
REMARK                            x       y       z     vdW  Elec       q    Type
REMARK                         _______ _______ _______ _____ _____    ______ ____
ROOT
ATOM      1  C   UNL     1      45.023   4.760  12.243  0.00  0.00    +0.000 A 
ATOM      2  C   UNL     1      45.559   3.623  12.842  0.00  0.00    +0.000 A 
ATOM      3  C   UNL     1      46.770   3.715  13.503  0.00  0.00    +0.000 A 
ATOM      4  N   UNL     1      47.492   4.850  13.596  0.00  0.00    +0.000 NA
ATOM      5  C   UNL     1      46.981   5.976  13.063  0.00  0.00    +0.000 A 
ATOM      6  N   UNL     1      47.725   7.126  13.112  0.00  0.00    +0.000 N 
ATOM      7  C   UNL     1      47.154   8.466  13.207  0.00  0.00    +0.000 C 
ATOM      8  C   UNL     1      47.784   9.367  12.125  0.00  0.00    +0.000 C 
ATOM      9  N   UNL     1      49.265   9.406  12.194  0.00  0.00    +0.000 NA
ATOM     10  C   UNL     1      49.782   8.019  12.112  0.00  0.00    +0.000 C 
ATOM     11  C   UNL     1      49.185   7.048  13.165  0.00  0.00    +0.000 C 
ATOM     12  C   UNL     1      45.749   5.949  12.411  0.00  0.00    +0.000 A 
ATOM     13  H   UNL     1      49.522   9.777  13.106  0.00  0.00    +0.000 HD
ENDROOT
BRANCH   1  14
ATOM     14  C   UNL     1      43.750   4.738  11.411  0.00  0.00    +0.000 C 
ATOM     15  C   UNL     1      42.447   5.153  12.101  0.00  0.00    +0.000 C 
ATOM     16  C   UNL     1      43.052   6.051  11.079  0.00  0.00    +0.000 C 
BRANCH  14  17
ATOM     17  O   UNL     1      43.578   3.584  10.534  0.00  0.00    +0.000 OA
BRANCH  17  22
ATOM     18 CL   UNL     1      47.370   2.416   6.222  0.00  0.00    +0.000 Cl
ATOM     19  C   UNL     1      46.350   2.785   7.555  0.00  0.00    +0.000 A 
ATOM     20  C   UNL     1      45.981   4.107   7.789  0.00  0.00    +0.000 A 
ATOM     21  C   UNL     1      45.101   4.401   8.827  0.00  0.00    +0.000 A 
ATOM     22  C   UNL     1      44.558   3.373   9.600  0.00  0.00    +0.000 A 
ATOM     23  C   UNL     1      44.985   2.059   9.410  0.00  0.00    +0.000 A 
ATOM     24  C   UNL     1      45.877   1.763   8.380  0.00  0.00    +0.000 A 
ENDBRANCH  17  22
ENDBRANCH  14  17
ENDBRANCH   1  14
TORSDOF 3
ENDMDL
MODEL 2
REMARK VINA RESULT:    -7.303      2.170      3.665
REMARK INTER + INTRA:          -9.239
REMARK INTER:                  -9.374
REMARK INTRA:                   0.135
REMARK UNBOUND:                -0.656
REMARK  Name = 
REMARK  3 active torsions:
REMARK  status: ('A' for Active; 'I' for Inactive)
REMARK    1  A    between atoms: C_5  and  O_6
REMARK    2  A    between atoms: O_6  and  C_7
REMARK    3  A    between atoms: C_7  and  C_8
REMARK                            x       y       z     vdW  Elec       q    Type
REMARK                         _______ _______ _______ _____ _____    ______ ____
ROOT
ATOM      1  C   UNL     1      45.692   5.287  12.735  0.00  0.00    +0.000 A 
ATOM      2  C   UNL     1      46.409   6.353  12.198  0.00  0.00    +0.000 A 
ATOM      3  C   UNL     1      47.551   6.792  12.842  0.00  0.00    +0.000 A 
ATOM      4  N   UNL     1      48.020   6.258  13.988  0.00  0.00    +0.000 NA
ATOM      5  C   UNL     1      47.372   5.199  14.510  0.00  0.00    +0.000 A 
ATOM      6  N   UNL     1      47.813   4.676  15.698  0.00  0.00    +0.000 N 
ATOM      7  C   UNL     1      47.708   3.266  16.059  0.00  0.00    +0.000 C 
ATOM      8  C   UNL     1      47.079   3.143  17.462  0.00  0.00    +0.000 C 
ATOM      9  N   UNL     1      47.814   3.912  18.496  0.00  0.00    +0.000 NA
ATOM     10  C   UNL     1      47.903   5.327  18.064  0.00  0.00    +0.000 C 
ATOM     11  C   UNL     1      48.519   5.530  16.654  0.00  0.00    +0.000 C 
ATOM     12  C   UNL     1      46.232   4.695  13.887  0.00  0.00    +0.000 A 
ATOM     13  H   UNL     1      48.761   3.542  18.539  0.00  0.00    +0.000 HD
ENDROOT
BRANCH   1  14
ATOM     14  C   UNL     1      44.372   4.798  12.156  0.00  0.00    +0.000 C 
ATOM     15  C   UNL     1      43.101   5.074  12.963  0.00  0.00    +0.000 C 
ATOM     16  C   UNL     1      43.336   5.814  11.693  0.00  0.00    +0.000 C 
BRANCH  14  17
ATOM     17  O   UNL     1      44.387   3.460  11.571  0.00  0.00    +0.000 OA
BRANCH  17  22
ATOM     18 CL   UNL     1      46.714   3.219   6.199  0.00  0.00    +0.000 Cl
ATOM     19  C   UNL     1      45.925   3.283   7.724  0.00  0.00    +0.000 A 
ATOM     20  C   UNL     1      45.546   2.098   8.349  0.00  0.00    +0.000 A 
ATOM     21  C   UNL     1      44.968   2.143   9.614  0.00  0.00    +0.000 A 
ATOM     22  C   UNL     1      44.809   3.365  10.271  0.00  0.00    +0.000 A 
ATOM     23  C   UNL     1      45.123   4.554   9.614  0.00  0.00    +0.000 A 
ATOM     24  C   UNL     1      45.691   4.513   8.341  0.00  0.00    +0.000 A 
ENDBRANCH  17  22
ENDBRANCH  14  17
ENDBRANCH   1  14
TORSDOF 3
ENDMDL
MODEL 3
REMARK VINA RESULT:    -5.991      4.356      7.643
REMARK INTER + INTRA:          -7.698
REMARK INTER:                  -7.064
REMARK INTRA:                  -0.634
REMARK UNBOUND:                -0.656
REMARK  Name = 
REMARK  3 active torsions:
REMARK  status: ('A' for Active; 'I' for Inactive)
REMARK    1  A    between atoms: C_5  and  O_6
REMARK    2  A    between atoms: O_6  and  C_7
REMARK    3  A    between atoms: C_7  and  C_8
REMARK                            x       y       z     vdW  Elec       q    Type
REMARK                         _______ _______ _______ _____ _____    ______ ____
ROOT
ATOM      1  C   UNL     1      47.412   7.511  13.416  0.00  0.00    +0.000 A 
ATOM      2  C   UNL     1      46.818   8.765  13.295  0.00  0.00    +0.000 A 
ATOM      3  C   UNL     1      45.522   8.855  12.821  0.00  0.00    +0.000 A 
ATOM      4  N   UNL     1      44.783   7.792  12.445  0.00  0.00    +0.000 NA
ATOM      5  C   UNL     1      45.314   6.563  12.589  0.00  0.00    +0.000 A 
ATOM      6  N   UNL     1      44.590   5.478  12.168  0.00  0.00    +0.000 N 
ATOM      7  C   UNL     1      44.662   4.158  12.787  0.00  0.00    +0.000 C 
ATOM      8  C   UNL     1      44.886   3.093  11.693  0.00  0.00    +0.000 C 
ATOM      9  N   UNL     1      43.858   3.134  10.626  0.00  0.00    +0.000 NA
ATOM     10  C   UNL     1      43.820   4.500  10.052  0.00  0.00    +0.000 C 
ATOM     11  C   UNL     1      43.607   5.629  11.095  0.00  0.00    +0.000 C 
ATOM     12  C   UNL     1      46.606   6.410  13.090  0.00  0.00    +0.000 A 
ATOM     13  H   UNL     1      42.954   2.957  11.060  0.00  0.00    +0.000 HD
ENDROOT
BRANCH   1  14
ATOM     14  C   UNL     1      48.863   7.316  13.832  0.00  0.00    +0.000 C 
ATOM     15  C   UNL     1      49.939   7.527  12.763  0.00  0.00    +0.000 C 
ATOM     16  C   UNL     1      49.799   8.517  13.866  0.00  0.00    +0.000 C 
BRANCH  14  17
ATOM     17  O   UNL     1      49.135   6.161  14.682  0.00  0.00    +0.000 OA
BRANCH  17  22
ATOM     18 CL   UNL     1      47.417   5.980  20.282  0.00  0.00    +0.000 Cl
ATOM     19  C   UNL     1      47.821   6.091  18.615  0.00  0.00    +0.000 A 
ATOM     20  C   UNL     1      48.433   7.245  18.134  0.00  0.00    +0.000 A 
ATOM     21  C   UNL     1      48.823   7.311  16.800  0.00  0.00    +0.000 A 
ATOM     22  C   UNL     1      48.639   6.211  15.959  0.00  0.00    +0.000 A 
ATOM     23  C   UNL     1      47.961   5.085  16.424  0.00  0.00    +0.000 A 
ATOM     24  C   UNL     1      47.558   5.021  17.758  0.00  0.00    +0.000 A 
ENDBRANCH  17  22
ENDBRANCH  14  17
ENDBRANCH   1  14
TORSDOF 3
ENDMDL
MODEL 4
REMARK VINA RESULT:    -5.829      2.758      4.136
REMARK INTER + INTRA:          -7.506
REMARK INTER:                  -6.848
REMARK INTRA:                  -0.659
REMARK UNBOUND:                -0.656
REMARK  Name = 
REMARK  3 active torsions:
REMARK  status: ('A' for Active; 'I' for Inactive)
REMARK    1  A    between atoms: C_5  and  O_6
REMARK    2  A    between atoms: O_6  and  C_7
REMARK    3  A    between atoms: C_7  and  C_8
REMARK                            x       y       z     vdW  Elec       q    Type
REMARK                         _______ _______ _______ _____ _____    ______ ____
ROOT
ATOM      1  C   UNL     1      47.030   7.363  12.740  0.00  0.00    +0.000 A 
ATOM      2  C   UNL     1      47.990   7.505  11.741  0.00  0.00    +0.000 A 
ATOM      3  C   UNL     1      49.326   7.339  12.059  0.00  0.00    +0.000 A 
ATOM      4  N   UNL     1      49.774   7.059  13.299  0.00  0.00    +0.000 NA
ATOM      5  C   UNL     1      48.868   6.875  14.279  0.00  0.00    +0.000 A 
ATOM      6  N   UNL     1      49.313   6.635  15.553  0.00  0.00    +0.000 N 
ATOM      7  C   UNL     1      48.600   5.814  16.526  0.00  0.00    +0.000 C 
ATOM      8  C   UNL     1      48.478   6.588  17.855  0.00  0.00    +0.000 C 
ATOM      9  N   UNL     1      49.787   7.038  18.385  0.00  0.00    +0.000 NA
ATOM     10  C   UNL     1      50.468   7.849  17.347  0.00  0.00    +0.000 C 
ATOM     11  C   UNL     1      50.620   7.139  15.975  0.00  0.00    +0.000 C 
ATOM     12  C   UNL     1      47.506   7.000  14.009  0.00  0.00    +0.000 A 
ATOM     13  H   UNL     1      50.355   6.210  18.551  0.00  0.00    +0.000 HD
ENDROOT
BRANCH   1  14
ATOM     14  C   UNL     1      45.549   7.624  12.511  0.00  0.00    +0.000 C 
ATOM     15  C   UNL     1      45.028   9.037  12.788  0.00  0.00    +0.000 C 
ATOM     16  C   UNL     1      45.118   8.553  11.383  0.00  0.00    +0.000 C 
BRANCH  14  17
ATOM     17  O   UNL     1      44.636   6.587  12.983  0.00  0.00    +0.000 OA
BRANCH  17  22
ATOM     18 CL   UNL     1      44.623   1.996   9.342  0.00  0.00    +0.000 Cl
ATOM     19  C   UNL     1      44.536   3.292  10.467  0.00  0.00    +0.000 A 
ATOM     20  C   UNL     1      45.184   3.177  11.694  0.00  0.00    +0.000 A 
ATOM     21  C   UNL     1      45.172   4.251  12.579  0.00  0.00    +0.000 A 
ATOM     22  C   UNL     1      44.553   5.451  12.221  0.00  0.00    +0.000 A 
ATOM     23  C   UNL     1      43.845   5.537  11.023  0.00  0.00    +0.000 A 
ATOM     24  C   UNL     1      43.844   4.459  10.139  0.00  0.00    +0.000 A 
ENDBRANCH  17  22
ENDBRANCH  14  17
ENDBRANCH   1  14
TORSDOF 3
ENDMDL
MODEL 5
REMARK VINA RESULT:    -5.734      4.234      6.479
REMARK INTER + INTRA:          -7.395
REMARK INTER:                  -6.804
REMARK INTRA:                  -0.591
REMARK UNBOUND:                -0.656
REMARK  Name = 
REMARK  3 active torsions:
REMARK  status: ('A' for Active; 'I' for Inactive)
REMARK    1  A    between atoms: C_5  and  O_6
REMARK    2  A    between atoms: O_6  and  C_7
REMARK    3  A    between atoms: C_7  and  C_8
REMARK                            x       y       z     vdW  Elec       q    Type
REMARK                         _______ _______ _______ _____ _____    ______ ____
ROOT
ATOM      1  C   UNL     1      47.431   6.356  13.399  0.00  0.00    +0.000 A 
ATOM      2  C   UNL     1      46.591   5.498  12.693  0.00  0.00    +0.000 A 
ATOM      3  C   UNL     1      46.200   4.306  13.275  0.00  0.00    +0.000 A 
ATOM      4  N   UNL     1      46.597   3.901  14.499  0.00  0.00    +0.000 NA
ATOM      5  C   UNL     1      47.376   4.728  15.223  0.00  0.00    +0.000 A 
ATOM      6  N   UNL     1      47.822   4.308  16.449  0.00  0.00    +0.000 N 
ATOM      7  C   UNL     1      48.074   5.200  17.576  0.00  0.00    +0.000 C 
ATOM      8  C   UNL     1      49.476   4.911  18.152  0.00  0.00    +0.000 C 
ATOM      9  N   UNL     1      49.663   3.492  18.536  0.00  0.00    +0.000 NA
ATOM     10  C   UNL     1      49.375   2.638  17.358  0.00  0.00    +0.000 C 
ATOM     11  C   UNL     1      47.983   2.878  16.716  0.00  0.00    +0.000 C 
ATOM     12  C   UNL     1      47.776   5.955  14.699  0.00  0.00    +0.000 A 
ATOM     13  H   UNL     1      48.974   3.271  19.252  0.00  0.00    +0.000 HD
ENDROOT
BRANCH   1  14
ATOM     14  C   UNL     1      47.994   7.640  12.807  0.00  0.00    +0.000 C 
ATOM     15  C   UNL     1      49.510   7.719  12.604  0.00  0.00    +0.000 C 
ATOM     16  C   UNL     1      48.618   7.611  11.417  0.00  0.00    +0.000 C 
BRANCH  14  17
ATOM     17  O   UNL     1      47.431   8.884  13.322  0.00  0.00    +0.000 OA
BRANCH  17  22
ATOM     18 CL   UNL     1      43.734  11.393   9.531  0.00  0.00    +0.000 Cl
ATOM     19  C   UNL     1      44.758  10.709  10.730  0.00  0.00    +0.000 A 
ATOM     20  C   UNL     1      44.376   9.530  11.364  0.00  0.00    +0.000 A 
ATOM     21  C   UNL     1      45.234   8.937  12.286  0.00  0.00    +0.000 A 
ATOM     22  C   UNL     1      46.487   9.499  12.542  0.00  0.00    +0.000 A 
ATOM     23  C   UNL     1      46.836  10.717  11.960  0.00  0.00    +0.000 A 
ATOM     24  C   UNL     1      45.973  11.320  11.045  0.00  0.00    +0.000 A 
ENDBRANCH  17  22
ENDBRANCH  14  17
ENDBRANCH   1  14
TORSDOF 3
ENDMDL
MODEL 6
REMARK VINA RESULT:    -5.651      3.720      5.912
REMARK INTER + INTRA:          -7.298
REMARK INTER:                  -6.619
REMARK INTRA:                  -0.678
REMARK UNBOUND:                -0.656
REMARK  Name = 
REMARK  3 active torsions:
REMARK  status: ('A' for Active; 'I' for Inactive)
REMARK    1  A    between atoms: C_5  and  O_6
REMARK    2  A    between atoms: O_6  and  C_7
REMARK    3  A    between atoms: C_7  and  C_8
REMARK                            x       y       z     vdW  Elec       q    Type
REMARK                         _______ _______ _______ _____ _____    ______ ____
ROOT
ATOM      1  C   UNL     1      48.368   7.904  14.575  0.00  0.00    +0.000 A 
ATOM      2  C   UNL     1      48.017   9.113  15.170  0.00  0.00    +0.000 A 
ATOM      3  C   UNL     1      48.151   9.256  16.539  0.00  0.00    +0.000 A 
ATOM      4  N   UNL     1      48.592   8.280  17.357  0.00  0.00    +0.000 NA
ATOM      5  C   UNL     1      48.979   7.113  16.807  0.00  0.00    +0.000 A 
ATOM      6  N   UNL     1      49.387   6.097  17.633  0.00  0.00    +0.000 N 
ATOM      7  C   UNL     1      50.390   5.102  17.269  0.00  0.00    +0.000 C 
ATOM      8  C   UNL     1      49.840   3.691  17.567  0.00  0.00    +0.000 C 
ATOM      9  N   UNL     1      49.401   3.525  18.973  0.00  0.00    +0.000 NA
ATOM     10  C   UNL     1      48.400   4.574  19.286  0.00  0.00    +0.000 C 
ATOM     11  C   UNL     1      48.878   6.023  19.003  0.00  0.00    +0.000 C 
ATOM     12  C   UNL     1      48.894   6.923  15.429  0.00  0.00    +0.000 A 
ATOM     13  H   UNL     1      50.210   3.684  19.571  0.00  0.00    +0.000 HD
ENDROOT
BRANCH   1  14
ATOM     14  C   UNL     1      48.163   7.616  13.095  0.00  0.00    +0.000 C 
ATOM     15  C   UNL     1      49.181   8.203  12.113  0.00  0.00    +0.000 C 
ATOM     16  C   UNL     1      49.165   6.735  12.359  0.00  0.00    +0.000 C 
BRANCH  14  17
ATOM     17  O   UNL     1      46.791   7.715  12.607  0.00  0.00    +0.000 OA
BRANCH  17  22
ATOM     18 CL   UNL     1      43.661   2.904  11.425  0.00  0.00    +0.000 Cl
ATOM     19  C   UNL     1      44.677   4.252  11.749  0.00  0.00    +0.000 A 
ATOM     20  C   UNL     1      45.118   5.046  10.693  0.00  0.00    +0.000 A 
ATOM     21  C   UNL     1      45.884   6.177  10.958  0.00  0.00    +0.000 A 
ATOM     22  C   UNL     1      46.172   6.538  12.277  0.00  0.00    +0.000 A 
ATOM     23  C   UNL     1      45.791   5.702  13.326  0.00  0.00    +0.000 A 
ATOM     24  C   UNL     1      45.034   4.561  13.062  0.00  0.00    +0.000 A 
ENDBRANCH  17  22
ENDBRANCH  14  17
ENDBRANCH   1  14
TORSDOF 3
ENDMDL
MODEL 7
REMARK VINA RESULT:    -5.534      4.769      7.958
REMARK INTER + INTRA:          -7.160
REMARK INTER:                  -7.380
REMARK INTRA:                   0.220
REMARK UNBOUND:                -0.656
REMARK  Name = 
REMARK  3 active torsions:
REMARK  status: ('A' for Active; 'I' for Inactive)
REMARK    1  A    between atoms: C_5  and  O_6
REMARK    2  A    between atoms: O_6  and  C_7
REMARK    3  A    between atoms: C_7  and  C_8
REMARK                            x       y       z     vdW  Elec       q    Type
REMARK                         _______ _______ _______ _____ _____    ______ ____
ROOT
ATOM      1  C   UNL     1      47.520   5.231  14.997  0.00  0.00    +0.000 A 
ATOM      2  C   UNL     1      48.187   6.304  14.412  0.00  0.00    +0.000 A 
ATOM      3  C   UNL     1      47.766   6.772  13.181  0.00  0.00    +0.000 A 
ATOM      4  N   UNL     1      46.741   6.239  12.485  0.00  0.00    +0.000 NA
ATOM      5  C   UNL     1      46.050   5.226  13.043  0.00  0.00    +0.000 A 
ATOM      6  N   UNL     1      45.035   4.647  12.325  0.00  0.00    +0.000 N 
ATOM      7  C   UNL     1      43.839   4.066  12.926  0.00  0.00    +0.000 C 
ATOM      8  C   UNL     1      43.618   2.650  12.356  0.00  0.00    +0.000 C 
ATOM      9  N   UNL     1      43.545   2.625  10.876  0.00  0.00    +0.000 NA
ATOM     10  C   UNL     1      44.776   3.244  10.328  0.00  0.00    +0.000 C 
ATOM     11  C   UNL     1      45.071   4.670  10.863  0.00  0.00    +0.000 C 
ATOM     12  C   UNL     1      46.412   4.734  14.295  0.00  0.00    +0.000 A 
ATOM     13  H   UNL     1      42.757   3.207  10.595  0.00  0.00    +0.000 HD
ENDROOT
BRANCH   1  14
ATOM     14  C   UNL     1      47.970   4.582  16.298  0.00  0.00    +0.000 C 
ATOM     15  C   UNL     1      46.957   3.703  17.036  0.00  0.00    +0.000 C 
ATOM     16  C   UNL     1      48.125   3.068  16.365  0.00  0.00    +0.000 C 
BRANCH  14  17
ATOM     17  O   UNL     1      48.742   5.430  17.202  0.00  0.00    +0.000 OA
BRANCH  17  22
ATOM     18 CL   UNL     1      54.572   5.033  17.638  0.00  0.00    +0.000 Cl
ATOM     19  C   UNL     1      52.869   5.081  17.414  0.00  0.00    +0.000 A 
ATOM     20  C   UNL     1      52.082   4.048  17.918  0.00  0.00    +0.000 A 
ATOM     21  C   UNL     1      50.698   4.117  17.798  0.00  0.00    +0.000 A 
ATOM     22  C   UNL     1      50.098   5.236  17.215  0.00  0.00    +0.000 A 
ATOM     23  C   UNL     1      50.890   6.233  16.647  0.00  0.00    +0.000 A 
ATOM     24  C   UNL     1      52.278   6.160  16.754  0.00  0.00    +0.000 A 
ENDBRANCH  17  22
ENDBRANCH  14  17
ENDBRANCH   1  14
TORSDOF 3
ENDMDL
MODEL 8
REMARK VINA RESULT:    -5.460      4.937      7.906
REMARK INTER + INTRA:          -7.073
REMARK INTER:                  -6.301
REMARK INTRA:                  -0.772
REMARK UNBOUND:                -0.656
REMARK  Name = 
REMARK  3 active torsions:
REMARK  status: ('A' for Active; 'I' for Inactive)
REMARK    1  A    between atoms: C_5  and  O_6
REMARK    2  A    between atoms: O_6  and  C_7
REMARK    3  A    between atoms: C_7  and  C_8
REMARK                            x       y       z     vdW  Elec       q    Type
REMARK                         _______ _______ _______ _____ _____    ______ ____
ROOT
ATOM      1  C   UNL     1      48.214   4.792  17.073  0.00  0.00    +0.000 A 
ATOM      2  C   UNL     1      48.472   3.424  17.126  0.00  0.00    +0.000 A 
ATOM      3  C   UNL     1      48.134   2.631  16.045  0.00  0.00    +0.000 A 
ATOM      4  N   UNL     1      47.544   3.096  14.926  0.00  0.00    +0.000 NA
ATOM      5  C   UNL     1      47.318   4.420  14.827  0.00  0.00    +0.000 A 
ATOM      6  N   UNL     1      46.678   4.899  13.713  0.00  0.00    +0.000 N 
ATOM      7  C   UNL     1      46.918   6.218  13.138  0.00  0.00    +0.000 C 
ATOM      8  C   UNL     1      45.567   6.931  12.915  0.00  0.00    +0.000 C 
ATOM      9  N   UNL     1      44.626   6.142  12.084  0.00  0.00    +0.000 NA
ATOM     10  C   UNL     1      44.439   4.811  12.709  0.00  0.00    +0.000 C 
ATOM     11  C   UNL     1      45.757   4.035  12.974  0.00  0.00    +0.000 C 
ATOM     12  C   UNL     1      47.666   5.272  15.873  0.00  0.00    +0.000 A 
ATOM     13  H   UNL     1      45.063   5.997  11.176  0.00  0.00    +0.000 HD
ENDROOT
BRANCH   1  14
ATOM     14  C   UNL     1      48.457   5.729  18.246  0.00  0.00    +0.000 C 
ATOM     15  C   UNL     1      47.269   6.041  19.160  0.00  0.00    +0.000 C 
ATOM     16  C   UNL     1      48.377   5.186  19.667  0.00  0.00    +0.000 C 
BRANCH  14  17
ATOM     17  O   UNL     1      49.274   6.906  17.966  0.00  0.00    +0.000 OA
BRANCH  17  22
ATOM     18 CL   UNL     1      54.561   6.491  15.472  0.00  0.00    +0.000 Cl
ATOM     19  C   UNL     1      52.979   6.515  16.144  0.00  0.00    +0.000 A 
ATOM     20  C   UNL     1      52.701   5.743  17.269  0.00  0.00    +0.000 A 
ATOM     21  C   UNL     1      51.441   5.812  17.855  0.00  0.00    +0.000 A 
ATOM     22  C   UNL     1      50.476   6.684  17.346  0.00  0.00    +0.000 A 
ATOM     23  C   UNL     1      50.733   7.401  16.178  0.00  0.00    +0.000 A 
ATOM     24  C   UNL     1      51.991   7.323  15.580  0.00  0.00    +0.000 A 
ENDBRANCH  17  22
ENDBRANCH  14  17
ENDBRANCH   1  14
TORSDOF 3
ENDMDL
MODEL 9
REMARK VINA RESULT:    -5.007      6.087      8.785
REMARK INTER + INTRA:          -6.540
REMARK INTER:                  -5.984
REMARK INTRA:                  -0.557
REMARK UNBOUND:                -0.656
REMARK  Name = 
REMARK  3 active torsions:
REMARK  status: ('A' for Active; 'I' for Inactive)
REMARK    1  A    between atoms: C_5  and  O_6
REMARK    2  A    between atoms: O_6  and  C_7
REMARK    3  A    between atoms: C_7  and  C_8
REMARK                            x       y       z     vdW  Elec       q    Type
REMARK                         _______ _______ _______ _____ _____    ______ ____
ROOT
ATOM      1  C   UNL     1      48.452   5.183  17.496  0.00  0.00    +0.000 A 
ATOM      2  C   UNL     1      48.286   3.834  17.798  0.00  0.00    +0.000 A 
ATOM      3  C   UNL     1      47.740   2.992  16.846  0.00  0.00    +0.000 A 
ATOM      4  N   UNL     1      47.334   3.399  15.626  0.00  0.00    +0.000 NA
ATOM      5  C   UNL     1      47.520   4.690  15.290  0.00  0.00    +0.000 A 
ATOM      6  N   UNL     1      47.071   5.125  14.070  0.00  0.00    +0.000 N 
ATOM      7  C   UNL     1      47.706   6.188  13.297  0.00  0.00    +0.000 C 
ATOM      8  C   UNL     1      46.637   7.213  12.865  0.00  0.00    +0.000 C 
ATOM      9  N   UNL     1      45.514   6.599  12.117  0.00  0.00    +0.000 NA
ATOM     10  C   UNL     1      44.925   5.519  12.944  0.00  0.00    +0.000 C 
ATOM     11  C   UNL     1      45.944   4.451  13.425  0.00  0.00    +0.000 C 
ATOM     12  C   UNL     1      48.094   5.577  16.198  0.00  0.00    +0.000 A 
ATOM     13  H   UNL     1      45.900   6.170  11.278  0.00  0.00    +0.000 HD
ENDROOT
BRANCH   1  14
ATOM     14  C   UNL     1      48.950   6.205  18.508  0.00  0.00    +0.000 C 
ATOM     15  C   UNL     1      48.066   7.427  18.773  0.00  0.00    +0.000 C 
ATOM     16  C   UNL     1      48.202   6.381  19.823  0.00  0.00    +0.000 C 
BRANCH  14  17
ATOM     17  O   UNL     1      50.368   6.544  18.431  0.00  0.00    +0.000 OA
BRANCH  17  22
ATOM     18 CL   UNL     1      54.575   2.635  19.598  0.00  0.00    +0.000 Cl
ATOM     19  C   UNL     1      53.263   3.694  19.268  0.00  0.00    +0.000 A 
ATOM     20  C   UNL     1      52.569   4.275  20.327  0.00  0.00    +0.000 A 
ATOM     21  C   UNL     1      51.550   5.186  20.063  0.00  0.00    +0.000 A 
ATOM     22  C   UNL     1      51.254   5.547  18.747  0.00  0.00    +0.000 A 
ATOM     23  C   UNL     1      51.900   4.910  17.688  0.00  0.00    +0.000 A 
ATOM     24  C   UNL     1      52.913   3.988  17.949  0.00  0.00    +0.000 A 
ENDBRANCH  17  22
ENDBRANCH  14  17
ENDBRANCH   1  14
TORSDOF 3
ENDMDL
