MODEL 1
REMARK VINA RESULT:    -7.035      0.000      0.000
REMARK INTER + INTRA:         -12.212
REMARK INTER:                 -10.119
REMARK INTRA:                  -2.093
REMARK UNBOUND:                -2.093
REMARK  Name = 
REMARK  10 active torsions:
REMARK  status: ('A' for Active; 'I' for Inactive)
REMARK    1  A    between atoms: C_1  and  C_2
REMARK    2  A    between atoms: C_2  and  C_3
REMARK    3  A    between atoms: C_2  and  N_9
REMARK    4  A    between atoms: N_9  and  C_10
REMARK    5  A    between atoms: N_9  and  C_11
REMARK    6  A    between atoms: C_11  and  C_12
REMARK    7  A    between atoms: C_15  and  C_16
REMARK    8  A    between atoms: C_16  and  N_17
REMARK    9  A    between atoms: C_18  and  C_20
REMARK   10  A    between atoms: C_27  and  O_28
REMARK                            x       y       z     vdW  Elec       q    Type
REMARK                         _______ _______ _______ _____ _____    ______ ____
ROOT
ATOM      1  C   UNL     1      48.914   7.996  16.291  0.00  0.00    +0.000 A 
ATOM      2  C   UNL     1      48.407   9.146  15.668  0.00  0.00    +0.000 A 
ATOM      3  C   UNL     1      48.006   9.129  14.334  0.00  0.00    +0.000 A 
ATOM      4  C   UNL     1      48.187   7.982  13.557  0.00  0.00    +0.000 A 
ATOM      5  C   UNL     1      48.861   6.891  14.117  0.00  0.00    +0.000 A 
ATOM      6  C   UNL     1      49.204   6.891  15.475  0.00  0.00    +0.000 A 
ENDROOT
BRANCH   1   7
ATOM      7  C   UNL     1      49.159   7.946  17.798  0.00  0.00    +0.000 C 
BRANCH   7   8
ATOM      8  N   UNL     1      48.022   7.470  18.642  0.00  0.00    +0.000 NA
ATOM      9  C   UNL     1      47.647   8.487  19.639  0.00  0.00    +0.000 C 
BRANCH   8  11
ATOM     10  C   UNL     1      49.694   6.223  20.108  0.00  0.00    +0.000 C 
ATOM     11  C   UNL     1      48.353   6.196  19.351  0.00  0.00    +0.000 C 
BRANCH  11  12
ATOM     12  C   UNL     1      48.420   4.977  18.418  0.00  0.00    +0.000 A 
ATOM     13  C   UNL     1      49.602   4.230  18.266  0.00  0.00    +0.000 A 
ATOM     14  C   UNL     1      49.621   3.070  17.486  0.00  0.00    +0.000 A 
ATOM     15  C   UNL     1      48.463   2.650  16.836  0.00  0.00    +0.000 A 
ATOM     16  C   UNL     1      47.287   3.396  16.953  0.00  0.00    +0.000 A 
ATOM     17  C   UNL     1      47.268   4.555  17.731  0.00  0.00    +0.000 A 
ENDBRANCH  11  12
ENDBRANCH   8  11
ENDBRANCH   7   8
ENDBRANCH   1   7
BRANCH   4  18
ATOM     18  C   UNL     1      47.655   7.937  12.151  0.00  0.00    +0.000 C 
BRANCH  18  19
ATOM     19  N   UNL     1      46.959   6.707  11.894  0.00  0.00    +0.000 N 
ATOM     20  C   UNL     1      45.604   6.615  12.054  0.00  0.00    +0.000 C 
ATOM     21  O   UNL     1      44.912   7.590  12.338  0.00  0.00    +0.000 OA
ATOM     22  H   UNL     1      47.501   5.852  11.855  0.00  0.00    +0.000 HD
BRANCH  20  23
ATOM     23  C   UNL     1      45.013   5.297  11.806  0.00  0.00    +0.000 A 
ATOM     24  C   UNL     1      44.389   4.631  12.853  0.00  0.00    +0.000 A 
ATOM     25  S   UNL     1      43.697   3.145  12.398  0.00  0.00    +0.000 S 
ATOM     26  C   UNL     1      44.253   3.318  10.802  0.00  0.00    +0.000 A 
ATOM     27  N   UNL     1      43.994   2.348   9.901  0.00  0.00    +0.000 NA
ATOM     28  C   UNL     1      44.497   2.573   8.676  0.00  0.00    +0.000 A 
ATOM     29  C   UNL     1      45.228   3.682   8.307  0.00  0.00    +0.000 A 
ATOM     30  C   UNL     1      45.462   4.658   9.270  0.00  0.00    +0.000 A 
ATOM     31  C   UNL     1      44.958   4.503  10.587  0.00  0.00    +0.000 A 
BRANCH  30  32
ATOM     32  O   UNL     1      46.189   5.773   8.924  0.00  0.00    +0.000 OA
ATOM     33  H   UNL     1      45.976   6.501   9.535  0.00  0.00    +0.000 HD
ENDBRANCH  30  32
ENDBRANCH  20  23
ENDBRANCH  18  19
ENDBRANCH   4  18
TORSDOF 8
ENDMDL
MODEL 2
REMARK VINA RESULT:    -6.920      2.727      4.302
REMARK INTER + INTRA:         -12.048
REMARK INTER:                  -9.525
REMARK INTRA:                  -2.522
REMARK UNBOUND:                -2.093
REMARK  Name = 
REMARK  10 active torsions:
REMARK  status: ('A' for Active; 'I' for Inactive)
REMARK    1  A    between atoms: C_1  and  C_2
REMARK    2  A    between atoms: C_2  and  C_3
REMARK    3  A    between atoms: C_2  and  N_9
REMARK    4  A    between atoms: N_9  and  C_10
REMARK    5  A    between atoms: N_9  and  C_11
REMARK    6  A    between atoms: C_11  and  C_12
REMARK    7  A    between atoms: C_15  and  C_16
REMARK    8  A    between atoms: C_16  and  N_17
REMARK    9  A    between atoms: C_18  and  C_20
REMARK   10  A    between atoms: C_27  and  O_28
REMARK                            x       y       z     vdW  Elec       q    Type
REMARK                         _______ _______ _______ _____ _____    ______ ____
ROOT
ATOM      1  C   UNL     1      51.320   5.041  17.907  0.00  0.00    +0.000 A 
ATOM      2  C   UNL     1      50.441   5.941  17.286  0.00  0.00    +0.000 A 
ATOM      3  C   UNL     1      49.146   5.563  16.937  0.00  0.00    +0.000 A 
ATOM      4  C   UNL     1      48.724   4.244  17.116  0.00  0.00    +0.000 A 
ATOM      5  C   UNL     1      49.651   3.296  17.563  0.00  0.00    +0.000 A 
ATOM      6  C   UNL     1      50.930   3.694  17.972  0.00  0.00    +0.000 A 
ENDROOT
BRANCH   1   7
ATOM      7  C   UNL     1      52.659   5.500  18.480  0.00  0.00    +0.000 C 
BRANCH   7   8
ATOM      8  N   UNL     1      52.611   6.606  19.484  0.00  0.00    +0.000 NA
ATOM      9  C   UNL     1      53.941   7.212  19.661  0.00  0.00    +0.000 C 
BRANCH   8  11
ATOM     10  C   UNL     1      52.625   4.731  21.212  0.00  0.00    +0.000 C 
ATOM     11  C   UNL     1      52.116   6.128  20.811  0.00  0.00    +0.000 C 
BRANCH  11  12
ATOM     12  C   UNL     1      50.583   6.060  20.904  0.00  0.00    +0.000 A 
ATOM     13  C   UNL     1      49.776   7.166  20.582  0.00  0.00    +0.000 A 
ATOM     14  C   UNL     1      48.383   7.061  20.583  0.00  0.00    +0.000 A 
ATOM     15  C   UNL     1      47.777   5.852  20.919  0.00  0.00    +0.000 A 
ATOM     16  C   UNL     1      48.563   4.751  21.270  0.00  0.00    +0.000 A 
ATOM     17  C   UNL     1      49.955   4.857  21.270  0.00  0.00    +0.000 A 
ENDBRANCH  11  12
ENDBRANCH   8  11
ENDBRANCH   7   8
ENDBRANCH   1   7
BRANCH   4  18
ATOM     18  C   UNL     1      47.293   3.870  16.838  0.00  0.00    +0.000 C 
BRANCH  18  19
ATOM     19  N   UNL     1      46.778   4.582  15.701  0.00  0.00    +0.000 N 
ATOM     20  C   UNL     1      46.921   4.088  14.434  0.00  0.00    +0.000 C 
ATOM     21  O   UNL     1      47.414   2.983  14.215  0.00  0.00    +0.000 OA
ATOM     22  H   UNL     1      46.551   5.563  15.815  0.00  0.00    +0.000 HD
BRANCH  20  23
ATOM     23  C   UNL     1      46.395   4.925  13.351  0.00  0.00    +0.000 A 
ATOM     24  C   UNL     1      46.837   6.236  13.240  0.00  0.00    +0.000 A 
ATOM     25  S   UNL     1      46.188   7.061  11.901  0.00  0.00    +0.000 S 
ATOM     26  C   UNL     1      45.255   5.711  11.458  0.00  0.00    +0.000 A 
ATOM     27  N   UNL     1      44.450   5.786  10.379  0.00  0.00    +0.000 NA
ATOM     28  C   UNL     1      43.741   4.673  10.131  0.00  0.00    +0.000 A 
ATOM     29  C   UNL     1      43.786   3.516  10.880  0.00  0.00    +0.000 A 
ATOM     30  C   UNL     1      44.638   3.485  11.980  0.00  0.00    +0.000 A 
ATOM     31  C   UNL     1      45.429   4.616  12.307  0.00  0.00    +0.000 A 
BRANCH  30  32
ATOM     32  O   UNL     1      44.700   2.342  12.741  0.00  0.00    +0.000 OA
ATOM     33  H   UNL     1      45.602   2.235  13.092  0.00  0.00    +0.000 HD
ENDBRANCH  30  32
ENDBRANCH  20  23
ENDBRANCH  18  19
ENDBRANCH   4  18
TORSDOF 8
ENDMDL
MODEL 3
REMARK VINA RESULT:    -6.910      4.958      8.433
REMARK INTER + INTRA:         -12.033
REMARK INTER:                 -10.600
REMARK INTRA:                  -1.433
REMARK UNBOUND:                -2.093
REMARK  Name = 
REMARK  10 active torsions:
REMARK  status: ('A' for Active; 'I' for Inactive)
REMARK    1  A    between atoms: C_1  and  C_2
REMARK    2  A    between atoms: C_2  and  C_3
REMARK    3  A    between atoms: C_2  and  N_9
REMARK    4  A    between atoms: N_9  and  C_10
REMARK    5  A    between atoms: N_9  and  C_11
REMARK    6  A    between atoms: C_11  and  C_12
REMARK    7  A    between atoms: C_15  and  C_16
REMARK    8  A    between atoms: C_16  and  N_17
REMARK    9  A    between atoms: C_18  and  C_20
REMARK   10  A    between atoms: C_27  and  O_28
REMARK                            x       y       z     vdW  Elec       q    Type
REMARK                         _______ _______ _______ _____ _____    ______ ____
ROOT
ATOM      1  C   UNL     1      46.419   5.814  12.456  0.00  0.00    +0.000 A 
ATOM      2  C   UNL     1      46.902   6.682  11.466  0.00  0.00    +0.000 A 
ATOM      3  C   UNL     1      48.147   7.296  11.587  0.00  0.00    +0.000 A 
ATOM      4  C   UNL     1      48.905   7.131  12.749  0.00  0.00    +0.000 A 
ATOM      5  C   UNL     1      48.350   6.418  13.818  0.00  0.00    +0.000 A 
ATOM      6  C   UNL     1      47.128   5.751  13.666  0.00  0.00    +0.000 A 
ENDROOT
BRANCH   1   7
ATOM      7  C   UNL     1      45.159   4.978  12.239  0.00  0.00    +0.000 C 
BRANCH   7   8
ATOM      8  N   UNL     1      44.348   5.297  11.025  0.00  0.00    +0.000 NA
ATOM      9  C   UNL     1      43.195   6.144  11.373  0.00  0.00    +0.000 C 
BRANCH   8  11
ATOM     10  C   UNL     1      43.566   2.886  11.305  0.00  0.00    +0.000 C 
ATOM     11  C   UNL     1      43.852   4.059  10.349  0.00  0.00    +0.000 C 
BRANCH  11  12
ATOM     12  C   UNL     1      44.821   3.512   9.288  0.00  0.00    +0.000 A 
ATOM     13  C   UNL     1      45.521   4.368   8.419  0.00  0.00    +0.000 A 
ATOM     14  C   UNL     1      46.466   3.862   7.523  0.00  0.00    +0.000 A 
ATOM     15  C   UNL     1      46.714   2.492   7.473  0.00  0.00    +0.000 A 
ATOM     16  C   UNL     1      46.006   1.624   8.309  0.00  0.00    +0.000 A 
ATOM     17  C   UNL     1      45.060   2.130   9.204  0.00  0.00    +0.000 A 
ENDBRANCH  11  12
ENDBRANCH   8  11
ENDBRANCH   7   8
ENDBRANCH   1   7
BRANCH   4  18
ATOM     18  C   UNL     1      50.291   7.709  12.828  0.00  0.00    +0.000 C 
BRANCH  18  19
ATOM     19  N   UNL     1      50.904   7.779  11.531  0.00  0.00    +0.000 N 
ATOM     20  C   UNL     1      52.088   8.439  11.343  0.00  0.00    +0.000 C 
ATOM     21  O   UNL     1      52.721   8.923  12.279  0.00  0.00    +0.000 OA
ATOM     22  H   UNL     1      50.331   7.573  10.721  0.00  0.00    +0.000 HD
BRANCH  20  23
ATOM     23  C   UNL     1      52.592   8.482   9.967  0.00  0.00    +0.000 A 
ATOM     24  C   UNL     1      52.543   9.682   9.270  0.00  0.00    +0.000 A 
ATOM     25  S   UNL     1      53.221   9.592   7.713  0.00  0.00    +0.000 S 
ATOM     26  C   UNL     1      53.552   7.935   7.899  0.00  0.00    +0.000 A 
ATOM     27  N   UNL     1      54.128   7.256   6.885  0.00  0.00    +0.000 NA
ATOM     28  C   UNL     1      54.325   5.950   7.127  0.00  0.00    +0.000 A 
ATOM     29  C   UNL     1      53.987   5.296   8.293  0.00  0.00    +0.000 A 
ATOM     30  C   UNL     1      53.402   6.042   9.312  0.00  0.00    +0.000 A 
ATOM     31  C   UNL     1      53.167   7.430   9.141  0.00  0.00    +0.000 A 
BRANCH  30  32
ATOM     32  O   UNL     1      53.057   5.410  10.484  0.00  0.00    +0.000 OA
ATOM     33  H   UNL     1      52.173   5.707  10.764  0.00  0.00    +0.000 HD
ENDBRANCH  30  32
ENDBRANCH  20  23
ENDBRANCH  18  19
ENDBRANCH   4  18
TORSDOF 8
ENDMDL
MODEL 4
REMARK VINA RESULT:    -6.779      2.267      2.818
REMARK INTER + INTRA:         -11.845
REMARK INTER:                  -9.112
REMARK INTRA:                  -2.732
REMARK UNBOUND:                -2.093
REMARK  Name = 
REMARK  10 active torsions:
REMARK  status: ('A' for Active; 'I' for Inactive)
REMARK    1  A    between atoms: C_1  and  C_2
REMARK    2  A    between atoms: C_2  and  C_3
REMARK    3  A    between atoms: C_2  and  N_9
REMARK    4  A    between atoms: N_9  and  C_10
REMARK    5  A    between atoms: N_9  and  C_11
REMARK    6  A    between atoms: C_11  and  C_12
REMARK    7  A    between atoms: C_15  and  C_16
REMARK    8  A    between atoms: C_16  and  N_17
REMARK    9  A    between atoms: C_18  and  C_20
REMARK   10  A    between atoms: C_27  and  O_28
REMARK                            x       y       z     vdW  Elec       q    Type
REMARK                         _______ _______ _______ _____ _____    ______ ____
ROOT
ATOM      1  C   UNL     1      49.494   7.494  18.286  0.00  0.00    +0.000 A 
ATOM      2  C   UNL     1      48.678   8.305  17.483  0.00  0.00    +0.000 A 
ATOM      3  C   UNL     1      48.761   8.263  16.093  0.00  0.00    +0.000 A 
ATOM      4  C   UNL     1      49.729   7.475  15.467  0.00  0.00    +0.000 A 
ATOM      5  C   UNL     1      50.668   6.806  16.261  0.00  0.00    +0.000 A 
ATOM      6  C   UNL     1      50.539   6.801  17.656  0.00  0.00    +0.000 A 
ENDROOT
BRANCH   1   7
ATOM      7  C   UNL     1      49.269   7.377  19.792  0.00  0.00    +0.000 C 
BRANCH   7   8
ATOM      8  N   UNL     1      48.021   6.679  20.228  0.00  0.00    +0.000 NA
ATOM      9  C   UNL     1      47.576   7.170  21.542  0.00  0.00    +0.000 C 
BRANCH   8  11
ATOM     10  C   UNL     1      49.554   4.764  20.924  0.00  0.00    +0.000 C 
ATOM     11  C   UNL     1      48.213   5.198  20.303  0.00  0.00    +0.000 C 
BRANCH  11  12
ATOM     12  C   UNL     1      48.136   4.500  18.936  0.00  0.00    +0.000 A 
ATOM     13  C   UNL     1      47.148   4.834  17.993  0.00  0.00    +0.000 A 
ATOM     14  C   UNL     1      47.147   4.257  16.720  0.00  0.00    +0.000 A 
ATOM     15  C   UNL     1      48.126   3.328  16.377  0.00  0.00    +0.000 A 
ATOM     16  C   UNL     1      49.099   2.963  17.312  0.00  0.00    +0.000 A 
ATOM     17  C   UNL     1      49.099   3.539  18.584  0.00  0.00    +0.000 A 
ENDBRANCH  11  12
ENDBRANCH   8  11
ENDBRANCH   7   8
ENDBRANCH   1   7
BRANCH   4  18
ATOM     18  C   UNL     1      49.743   7.353  13.968  0.00  0.00    +0.000 C 
BRANCH  18  19
ATOM     19  N   UNL     1      48.416   7.433  13.425  0.00  0.00    +0.000 N 
ATOM     20  C   UNL     1      47.710   6.303  13.114  0.00  0.00    +0.000 C 
ATOM     21  O   UNL     1      48.137   5.177  13.362  0.00  0.00    +0.000 OA
ATOM     22  H   UNL     1      48.114   8.315  13.029  0.00  0.00    +0.000 HD
BRANCH  20  23
ATOM     23  C   UNL     1      46.384   6.511  12.524  0.00  0.00    +0.000 A 
ATOM     24  C   UNL     1      46.033   7.783  12.091  0.00  0.00    +0.000 A 
ATOM     25  S   UNL     1      44.493   7.856  11.373  0.00  0.00    +0.000 S 
ATOM     26  C   UNL     1      44.224   6.204  11.665  0.00  0.00    +0.000 A 
ATOM     27  N   UNL     1      43.054   5.646  11.291  0.00  0.00    +0.000 NA
ATOM     28  C   UNL     1      42.935   4.342  11.588  0.00  0.00    +0.000 A 
ATOM     29  C   UNL     1      43.892   3.579  12.224  0.00  0.00    +0.000 A 
ATOM     30  C   UNL     1      45.086   4.198  12.583  0.00  0.00    +0.000 A 
ATOM     31  C   UNL     1      45.295   5.572  12.297  0.00  0.00    +0.000 A 
BRANCH  30  32
ATOM     32  O   UNL     1      46.054   3.457  13.217  0.00  0.00    +0.000 OA
ATOM     33  H   UNL     1      46.330   2.723  12.640  0.00  0.00    +0.000 HD
ENDBRANCH  30  32
ENDBRANCH  20  23
ENDBRANCH  18  19
ENDBRANCH   4  18
TORSDOF 8
ENDMDL
MODEL 5
REMARK VINA RESULT:    -6.413      2.451      4.379
REMARK INTER + INTRA:         -11.318
REMARK INTER:                  -8.610
REMARK INTRA:                  -2.708
REMARK UNBOUND:                -2.093
REMARK  Name = 
REMARK  10 active torsions:
REMARK  status: ('A' for Active; 'I' for Inactive)
REMARK    1  A    between atoms: C_1  and  C_2
REMARK    2  A    between atoms: C_2  and  C_3
REMARK    3  A    between atoms: C_2  and  N_9
REMARK    4  A    between atoms: N_9  and  C_10
REMARK    5  A    between atoms: N_9  and  C_11
REMARK    6  A    between atoms: C_11  and  C_12
REMARK    7  A    between atoms: C_15  and  C_16
REMARK    8  A    between atoms: C_16  and  N_17
REMARK    9  A    between atoms: C_18  and  C_20
REMARK   10  A    between atoms: C_27  and  O_28
REMARK                            x       y       z     vdW  Elec       q    Type
REMARK                         _______ _______ _______ _____ _____    ______ ____
ROOT
ATOM      1  C   UNL     1      49.592   6.122  19.664  0.00  0.00    +0.000 A 
ATOM      2  C   UNL     1      50.256   5.009  19.127  0.00  0.00    +0.000 A 
ATOM      3  C   UNL     1      49.645   4.189  18.180  0.00  0.00    +0.000 A 
ATOM      4  C   UNL     1      48.315   4.405  17.813  0.00  0.00    +0.000 A 
ATOM      5  C   UNL     1      47.586   5.397  18.479  0.00  0.00    +0.000 A 
ATOM      6  C   UNL     1      48.224   6.258  19.381  0.00  0.00    +0.000 A 
ENDROOT
BRANCH   1   7
ATOM      7  C   UNL     1      50.319   7.141  20.538  0.00  0.00    +0.000 C 
BRANCH   7   8
ATOM      8  N   UNL     1      51.481   7.846  19.914  0.00  0.00    +0.000 NA
ATOM      9  C   UNL     1      52.358   8.425  20.944  0.00  0.00    +0.000 C 
BRANCH   8  11
ATOM     10  C   UNL     1      49.874   9.788  19.527  0.00  0.00    +0.000 C 
ATOM     11  C   UNL     1      51.036   8.933  18.989  0.00  0.00    +0.000 C 
BRANCH  11  12
ATOM     12  C   UNL     1      50.580   8.418  17.614  0.00  0.00    +0.000 A 
ATOM     13  C   UNL     1      51.387   7.563  16.843  0.00  0.00    +0.000 A 
ATOM     14  C   UNL     1      50.921   7.031  15.638  0.00  0.00    +0.000 A 
ATOM     15  C   UNL     1      49.646   7.357  15.181  0.00  0.00    +0.000 A 
ATOM     16  C   UNL     1      48.841   8.229  15.921  0.00  0.00    +0.000 A 
ATOM     17  C   UNL     1      49.309   8.762  17.124  0.00  0.00    +0.000 A 
ENDBRANCH  11  12
ENDBRANCH   8  11
ENDBRANCH   7   8
ENDBRANCH   1   7
BRANCH   4  18
ATOM     18  C   UNL     1      47.698   3.584  16.714  0.00  0.00    +0.000 C 
BRANCH  18  19
ATOM     19  N   UNL     1      47.008   4.413  15.766  0.00  0.00    +0.000 N 
ATOM     20  C   UNL     1      46.941   4.069  14.443  0.00  0.00    +0.000 C 
ATOM     21  O   UNL     1      47.389   3.004  14.022  0.00  0.00    +0.000 OA
ATOM     22  H   UNL     1      46.805   5.370  16.027  0.00  0.00    +0.000 HD
BRANCH  20  23
ATOM     23  C   UNL     1      46.249   5.016  13.564  0.00  0.00    +0.000 A 
ATOM     24  C   UNL     1      46.607   6.356  13.604  0.00  0.00    +0.000 A 
ATOM     25  S   UNL     1      45.763   7.320  12.485  0.00  0.00    +0.000 S 
ATOM     26  C   UNL     1      44.854   5.988  11.948  0.00  0.00    +0.000 A 
ATOM     27  N   UNL     1      43.923   6.163  10.988  0.00  0.00    +0.000 NA
ATOM     28  C   UNL     1      43.247   5.052  10.654  0.00  0.00    +0.000 A 
ATOM     29  C   UNL     1      43.439   3.806  11.211  0.00  0.00    +0.000 A 
ATOM     30  C   UNL     1      44.416   3.674  12.193  0.00  0.00    +0.000 A 
ATOM     31  C   UNL     1      45.182   4.797  12.598  0.00  0.00    +0.000 A 
BRANCH  30  32
ATOM     32  O   UNL     1      44.625   2.440  12.762  0.00  0.00    +0.000 OA
ATOM     33  H   UNL     1      44.920   2.553  13.682  0.00  0.00    +0.000 HD
ENDBRANCH  30  32
ENDBRANCH  20  23
ENDBRANCH  18  19
ENDBRANCH   4  18
TORSDOF 8
ENDMDL
MODEL 6
REMARK VINA RESULT:    -6.356      3.627      8.946
REMARK INTER + INTRA:         -11.236
REMARK INTER:                  -9.976
REMARK INTRA:                  -1.260
REMARK UNBOUND:                -2.093
REMARK  Name = 
REMARK  10 active torsions:
REMARK  status: ('A' for Active; 'I' for Inactive)
REMARK    1  A    between atoms: C_1  and  C_2
REMARK    2  A    between atoms: C_2  and  C_3
REMARK    3  A    between atoms: C_2  and  N_9
REMARK    4  A    between atoms: N_9  and  C_10
REMARK    5  A    between atoms: N_9  and  C_11
REMARK    6  A    between atoms: C_11  and  C_12
REMARK    7  A    between atoms: C_15  and  C_16
REMARK    8  A    between atoms: C_16  and  N_17
REMARK    9  A    between atoms: C_18  and  C_20
REMARK   10  A    between atoms: C_27  and  O_28
REMARK                            x       y       z     vdW  Elec       q    Type
REMARK                         _______ _______ _______ _____ _____    ______ ____
ROOT
ATOM      1  C   UNL     1      45.648   5.567  13.210  0.00  0.00    +0.000 A 
ATOM      2  C   UNL     1      45.994   6.844  12.745  0.00  0.00    +0.000 A 
ATOM      3  C   UNL     1      47.251   7.390  12.996  0.00  0.00    +0.000 A 
ATOM      4  C   UNL     1      48.167   6.710  13.801  0.00  0.00    +0.000 A 
ATOM      5  C   UNL     1      47.765   5.522  14.422  0.00  0.00    +0.000 A 
ATOM      6  C   UNL     1      46.525   4.947  14.114  0.00  0.00    +0.000 A 
ENDROOT
BRANCH   1   7
ATOM      7  C   UNL     1      44.359   4.877  12.767  0.00  0.00    +0.000 C 
BRANCH   7   8
ATOM      8  N   UNL     1      43.939   5.097  11.350  0.00  0.00    +0.000 NA
ATOM      9  C   UNL     1      42.798   6.025  11.279  0.00  0.00    +0.000 C 
BRANCH   8  11
ATOM     10  C   UNL     1      43.474   2.605  11.627  0.00  0.00    +0.000 C 
ATOM     11  C   UNL     1      43.563   3.815  10.679  0.00  0.00    +0.000 C 
BRANCH  11  12
ATOM     12  C   UNL     1      44.533   3.403   9.559  0.00  0.00    +0.000 A 
ATOM     13  C   UNL     1      45.145   4.357   8.728  0.00  0.00    +0.000 A 
ATOM     14  C   UNL     1      46.094   3.974   7.776  0.00  0.00    +0.000 A 
ATOM     15  C   UNL     1      46.433   2.631   7.633  0.00  0.00    +0.000 A 
ATOM     16  C   UNL     1      45.813   1.666   8.432  0.00  0.00    +0.000 A 
ATOM     17  C   UNL     1      44.864   2.049   9.382  0.00  0.00    +0.000 A 
ENDBRANCH  11  12
ENDBRANCH   8  11
ENDBRANCH   7   8
ENDBRANCH   1   7
BRANCH   4  18
ATOM     18  C   UNL     1      49.558   7.254  13.978  0.00  0.00    +0.000 C 
BRANCH  18  19
ATOM     19  N   UNL     1      49.707   7.904  15.251  0.00  0.00    +0.000 N 
ATOM     20  C   UNL     1      50.197   7.229  16.335  0.00  0.00    +0.000 C 
ATOM     21  O   UNL     1      50.609   6.074  16.255  0.00  0.00    +0.000 OA
ATOM     22  H   UNL     1      49.206   8.770  15.406  0.00  0.00    +0.000 HD
BRANCH  20  23
ATOM     23  C   UNL     1      50.261   7.984  17.590  0.00  0.00    +0.000 A 
ATOM     24  C   UNL     1      51.308   7.742  18.469  0.00  0.00    +0.000 A 
ATOM     25  S   UNL     1      51.284   8.736  19.848  0.00  0.00    +0.000 S 
ATOM     26  C   UNL     1      49.844   9.485  19.344  0.00  0.00    +0.000 A 
ATOM     27  N   UNL     1      49.286  10.439  20.118  0.00  0.00    +0.000 NA
ATOM     28  C   UNL     1      48.140  10.949  19.638  0.00  0.00    +0.000 A 
ATOM     29  C   UNL     1      47.532  10.572  18.460  0.00  0.00    +0.000 A 
ATOM     30  C   UNL     1      48.151   9.589  17.692  0.00  0.00    +0.000 A 
ATOM     31  C   UNL     1      49.369   9.004  18.123  0.00  0.00    +0.000 A 
BRANCH  30  32
ATOM     32  O   UNL     1      47.562   9.198  16.513  0.00  0.00    +0.000 OA
ATOM     33  H   UNL     1      48.068   9.558  15.763  0.00  0.00    +0.000 HD
ENDBRANCH  30  32
ENDBRANCH  20  23
ENDBRANCH  18  19
ENDBRANCH   4  18
TORSDOF 8
ENDMDL
MODEL 7
REMARK VINA RESULT:    -6.212      1.539      2.164
REMARK INTER + INTRA:         -11.029
REMARK INTER:                  -9.323
REMARK INTRA:                  -1.706
REMARK UNBOUND:                -2.093
REMARK  Name = 
REMARK  10 active torsions:
REMARK  status: ('A' for Active; 'I' for Inactive)
REMARK    1  A    between atoms: C_1  and  C_2
REMARK    2  A    between atoms: C_2  and  C_3
REMARK    3  A    between atoms: C_2  and  N_9
REMARK    4  A    between atoms: N_9  and  C_10
REMARK    5  A    between atoms: N_9  and  C_11
REMARK    6  A    between atoms: C_11  and  C_12
REMARK    7  A    between atoms: C_15  and  C_16
REMARK    8  A    between atoms: C_16  and  N_17
REMARK    9  A    between atoms: C_18  and  C_20
REMARK   10  A    between atoms: C_27  and  O_28
REMARK                            x       y       z     vdW  Elec       q    Type
REMARK                         _______ _______ _______ _____ _____    ______ ____
ROOT
ATOM      1  C   UNL     1      49.914   7.217  16.025  0.00  0.00    +0.000 A 
ATOM      2  C   UNL     1      50.771   7.810  15.086  0.00  0.00    +0.000 A 
ATOM      3  C   UNL     1      50.347   8.072  13.784  0.00  0.00    +0.000 A 
ATOM      4  C   UNL     1      49.081   7.664  13.359  0.00  0.00    +0.000 A 
ATOM      5  C   UNL     1      48.290   6.909  14.231  0.00  0.00    +0.000 A 
ATOM      6  C   UNL     1      48.695   6.704  15.556  0.00  0.00    +0.000 A 
ENDROOT
BRANCH   1   7
ATOM      7  C   UNL     1      50.294   7.117  17.501  0.00  0.00    +0.000 C 
BRANCH   7   8
ATOM      8  N   UNL     1      49.175   6.872  18.462  0.00  0.00    +0.000 NA
ATOM      9  C   UNL     1      49.112   7.938  19.475  0.00  0.00    +0.000 C 
BRANCH   8  11
ATOM     10  C   UNL     1      50.653   5.369  19.897  0.00  0.00    +0.000 C 
ATOM     11  C   UNL     1      49.318   5.554  19.153  0.00  0.00    +0.000 C 
BRANCH  11  12
ATOM     12  C   UNL     1      49.193   4.350  18.206  0.00  0.00    +0.000 A 
ATOM     13  C   UNL     1      50.304   3.555  17.874  0.00  0.00    +0.000 A 
ATOM     14  C   UNL     1      50.158   2.410  17.086  0.00  0.00    +0.000 A 
ATOM     15  C   UNL     1      48.899   2.052  16.608  0.00  0.00    +0.000 A 
ATOM     16  C   UNL     1      47.788   2.846  16.904  0.00  0.00    +0.000 A 
ATOM     17  C   UNL     1      47.935   3.991  17.691  0.00  0.00    +0.000 A 
ENDBRANCH  11  12
ENDBRANCH   8  11
ENDBRANCH   7   8
ENDBRANCH   1   7
BRANCH   4  18
ATOM     18  C   UNL     1      48.592   8.046  11.988  0.00  0.00    +0.000 C 
BRANCH  18  19
ATOM     19  N   UNL     1      47.838   6.982  11.387  0.00  0.00    +0.000 N 
ATOM     20  C   UNL     1      46.470   7.008  11.368  0.00  0.00    +0.000 C 
ATOM     21  O   UNL     1      45.829   7.972  11.782  0.00  0.00    +0.000 OA
ATOM     22  H   UNL     1      48.307   6.100  11.219  0.00  0.00    +0.000 HD
BRANCH  20  23
ATOM     23  C   UNL     1      45.810   5.845  10.767  0.00  0.00    +0.000 A 
ATOM     24  C   UNL     1      46.012   5.580   9.419  0.00  0.00    +0.000 A 
ATOM     25  S   UNL     1      45.235   4.166   8.881  0.00  0.00    +0.000 S 
ATOM     26  C   UNL     1      44.561   3.892  10.417  0.00  0.00    +0.000 A 
ATOM     27  N   UNL     1      43.762   2.822  10.610  0.00  0.00    +0.000 NA
ATOM     28  C   UNL     1      43.265   2.711  11.852  0.00  0.00    +0.000 A 
ATOM     29  C   UNL     1      43.510   3.586  12.889  0.00  0.00    +0.000 A 
ATOM     30  C   UNL     1      44.347   4.670  12.643  0.00  0.00    +0.000 A 
ATOM     31  C   UNL     1      44.921   4.856  11.359  0.00  0.00    +0.000 A 
BRANCH  30  32
ATOM     32  O   UNL     1      44.607   5.555  13.662  0.00  0.00    +0.000 OA
ATOM     33  H   UNL     1      44.585   6.464  13.315  0.00  0.00    +0.000 HD
ENDBRANCH  30  32
ENDBRANCH  20  23
ENDBRANCH  18  19
ENDBRANCH   4  18
TORSDOF 8
ENDMDL
MODEL 8
REMARK VINA RESULT:    -6.058      2.940      5.027
REMARK INTER + INTRA:         -10.807
REMARK INTER:                  -8.679
REMARK INTRA:                  -2.128
REMARK UNBOUND:                -2.093
REMARK  Name = 
REMARK  10 active torsions:
REMARK  status: ('A' for Active; 'I' for Inactive)
REMARK    1  A    between atoms: C_1  and  C_2
REMARK    2  A    between atoms: C_2  and  C_3
REMARK    3  A    between atoms: C_2  and  N_9
REMARK    4  A    between atoms: N_9  and  C_10
REMARK    5  A    between atoms: N_9  and  C_11
REMARK    6  A    between atoms: C_11  and  C_12
REMARK    7  A    between atoms: C_15  and  C_16
REMARK    8  A    between atoms: C_16  and  N_17
REMARK    9  A    between atoms: C_18  and  C_20
REMARK   10  A    between atoms: C_27  and  O_28
REMARK                            x       y       z     vdW  Elec       q    Type
REMARK                         _______ _______ _______ _____ _____    ______ ____
ROOT
ATOM      1  C   UNL     1      51.013   4.931  18.586  0.00  0.00    +0.000 A 
ATOM      2  C   UNL     1      51.044   3.702  17.910  0.00  0.00    +0.000 A 
ATOM      3  C   UNL     1      49.903   3.182  17.302  0.00  0.00    +0.000 A 
ATOM      4  C   UNL     1      48.674   3.834  17.433  0.00  0.00    +0.000 A 
ATOM      5  C   UNL     1      48.595   4.960  18.259  0.00  0.00    +0.000 A 
ATOM      6  C   UNL     1      49.757   5.514  18.814  0.00  0.00    +0.000 A 
ENDROOT
BRANCH   1   7
ATOM      7  C   UNL     1      52.293   5.608  19.071  0.00  0.00    +0.000 C 
BRANCH   7   8
ATOM      8  N   UNL     1      53.363   5.823  18.049  0.00  0.00    +0.000 NA
ATOM      9  C   UNL     1      54.695   5.568  18.622  0.00  0.00    +0.000 C 
BRANCH   8  11
ATOM     10  C   UNL     1      53.682   8.308  18.520  0.00  0.00    +0.000 C 
ATOM     11  C   UNL     1      53.330   7.212  17.498  0.00  0.00    +0.000 C 
BRANCH  11  12
ATOM     12  C   UNL     1      51.964   7.606  16.912  0.00  0.00    +0.000 A 
ATOM     13  C   UNL     1      51.184   8.626  17.484  0.00  0.00    +0.000 A 
ATOM     14  C   UNL     1      49.989   9.035  16.886  0.00  0.00    +0.000 A 
ATOM     15  C   UNL     1      49.550   8.419  15.716  0.00  0.00    +0.000 A 
ATOM     16  C   UNL     1      50.299   7.383  15.149  0.00  0.00    +0.000 A 
ATOM     17  C   UNL     1      51.493   6.974  15.748  0.00  0.00    +0.000 A 
ENDBRANCH  11  12
ENDBRANCH   8  11
ENDBRANCH   7   8
ENDBRANCH   1   7
BRANCH   4  18
ATOM     18  C   UNL     1      47.472   3.324  16.686  0.00  0.00    +0.000 C 
BRANCH  18  19
ATOM     19  N   UNL     1      46.945   4.323  15.799  0.00  0.00    +0.000 N 
ATOM     20  C   UNL     1      46.887   4.109  14.449  0.00  0.00    +0.000 C 
ATOM     21  O   UNL     1      47.198   3.032  13.944  0.00  0.00    +0.000 OA
ATOM     22  H   UNL     1      46.867   5.273  16.142  0.00  0.00    +0.000 HD
BRANCH  20  23
ATOM     23  C   UNL     1      46.371   5.218  13.641  0.00  0.00    +0.000 A 
ATOM     24  C   UNL     1      47.121   6.382  13.541  0.00  0.00    +0.000 A 
ATOM     25  S   UNL     1      46.427   7.553  12.521  0.00  0.00    +0.000 S 
ATOM     26  C   UNL     1      45.077   6.565  12.223  0.00  0.00    +0.000 A 
ATOM     27  N   UNL     1      44.090   7.014  11.420  0.00  0.00    +0.000 NA
ATOM     28  C   UNL     1      43.061   6.165  11.270  0.00  0.00    +0.000 A 
ATOM     29  C   UNL     1      42.959   4.923  11.861  0.00  0.00    +0.000 A 
ATOM     30  C   UNL     1      44.007   4.501  12.674  0.00  0.00    +0.000 A 
ATOM     31  C   UNL     1      45.136   5.334  12.879  0.00  0.00    +0.000 A 
BRANCH  30  32
ATOM     32  O   UNL     1      43.928   3.266  13.273  0.00  0.00    +0.000 OA
ATOM     33  H   UNL     1      44.707   3.131  13.841  0.00  0.00    +0.000 HD
ENDBRANCH  30  32
ENDBRANCH  20  23
ENDBRANCH  18  19
ENDBRANCH   4  18
TORSDOF 8
ENDMDL
MODEL 9
REMARK VINA RESULT:    -6.055      1.473      2.031
REMARK INTER + INTRA:         -10.803
REMARK INTER:                  -9.698
REMARK INTRA:                  -1.105
REMARK UNBOUND:                -2.093
REMARK  Name = 
REMARK  10 active torsions:
REMARK  status: ('A' for Active; 'I' for Inactive)
REMARK    1  A    between atoms: C_1  and  C_2
REMARK    2  A    between atoms: C_2  and  C_3
REMARK    3  A    between atoms: C_2  and  N_9
REMARK    4  A    between atoms: N_9  and  C_10
REMARK    5  A    between atoms: N_9  and  C_11
REMARK    6  A    between atoms: C_11  and  C_12
REMARK    7  A    between atoms: C_15  and  C_16
REMARK    8  A    between atoms: C_16  and  N_17
REMARK    9  A    between atoms: C_18  and  C_20
REMARK   10  A    between atoms: C_27  and  O_28
REMARK                            x       y       z     vdW  Elec       q    Type
REMARK                         _______ _______ _______ _____ _____    ______ ____
ROOT
ATOM      1  C   UNL     1      49.448   7.732  14.216  0.00  0.00    +0.000 A 
ATOM      2  C   UNL     1      48.359   8.497  14.659  0.00  0.00    +0.000 A 
ATOM      3  C   UNL     1      47.208   8.633  13.884  0.00  0.00    +0.000 A 
ATOM      4  C   UNL     1      47.151   8.083  12.602  0.00  0.00    +0.000 A 
ATOM      5  C   UNL     1      48.299   7.477  12.079  0.00  0.00    +0.000 A 
ATOM      6  C   UNL     1      49.429   7.288  12.885  0.00  0.00    +0.000 A 
ENDROOT
BRANCH   1   7
ATOM      7  C   UNL     1      50.621   7.405  15.138  0.00  0.00    +0.000 C 
BRANCH   7   8
ATOM      8  N   UNL     1      50.398   7.613  16.601  0.00  0.00    +0.000 NA
ATOM      9  C   UNL     1      51.151   8.781  17.086  0.00  0.00    +0.000 C 
BRANCH   8  11
ATOM     10  C   UNL     1      52.091   5.732  16.913  0.00  0.00    +0.000 C 
ATOM     11  C   UNL     1      50.798   6.413  17.398  0.00  0.00    +0.000 C 
BRANCH  11  12
ATOM     12  C   UNL     1      49.726   5.311  17.425  0.00  0.00    +0.000 A 
ATOM     13  C   UNL     1      48.354   5.618  17.403  0.00  0.00    +0.000 A 
ATOM     14  C   UNL     1      47.394   4.605  17.335  0.00  0.00    +0.000 A 
ATOM     15  C   UNL     1      47.793   3.270  17.301  0.00  0.00    +0.000 A 
ATOM     16  C   UNL     1      49.151   2.946  17.351  0.00  0.00    +0.000 A 
ATOM     17  C   UNL     1      50.110   3.959  17.420  0.00  0.00    +0.000 A 
ENDBRANCH  11  12
ENDBRANCH   8  11
ENDBRANCH   7   8
ENDBRANCH   1   7
BRANCH   4  18
ATOM     18  C   UNL     1      45.870   8.142  11.817  0.00  0.00    +0.000 C 
BRANCH  18  19
ATOM     19  N   UNL     1      45.454   6.834  11.394  0.00  0.00    +0.000 N 
ATOM     20  C   UNL     1      44.735   6.018  12.223  0.00  0.00    +0.000 C 
ATOM     21  O   UNL     1      44.339   6.392  13.325  0.00  0.00    +0.000 OA
ATOM     22  H   UNL     1      45.918   6.422  10.593  0.00  0.00    +0.000 HD
BRANCH  20  23
ATOM     23  C   UNL     1      44.408   4.690  11.697  0.00  0.00    +0.000 A 
ATOM     24  C   UNL     1      43.765   3.778  12.525  0.00  0.00    +0.000 A 
ATOM     25  S   UNL     1      43.394   2.307  11.757  0.00  0.00    +0.000 S 
ATOM     26  C   UNL     1      44.127   2.818  10.312  0.00  0.00    +0.000 A 
ATOM     27  N   UNL     1      44.156   1.985   9.251  0.00  0.00    +0.000 NA
ATOM     28  C   UNL     1      44.778   2.478   8.169  0.00  0.00    +0.000 A 
ATOM     29  C   UNL     1      45.361   3.725   8.084  0.00  0.00    +0.000 A 
ATOM     30  C   UNL     1      45.298   4.551   9.202  0.00  0.00    +0.000 A 
ATOM     31  C   UNL     1      44.651   4.109  10.384  0.00  0.00    +0.000 A 
BRANCH  30  32
ATOM     32  O   UNL     1      45.872   5.799   9.140  0.00  0.00    +0.000 OA
ATOM     33  H   UNL     1      46.789   5.749   9.461  0.00  0.00    +0.000 HD
ENDBRANCH  30  32
ENDBRANCH  20  23
ENDBRANCH  18  19
ENDBRANCH   4  18
TORSDOF 8
ENDMDL
