MODEL 1
REMARK VINA RESULT:    -8.652      0.000      0.000
REMARK INTER + INTRA:         -13.181
REMARK INTER:                 -12.193
REMARK INTRA:                  -0.988
REMARK UNBOUND:                -0.988
REMARK  Name = 
REMARK  8 active torsions:
REMARK  status: ('A' for Active; 'I' for Inactive)
REMARK    1  A    between atoms: C_1  and  C_2
REMARK    2  A    between atoms: C_2  and  C_3
REMARK    3  A    between atoms: C_6  and  C_7
REMARK    4  A    between atoms: C_11  and  C_12
REMARK    5  A    between atoms: C_12  and  C_13
REMARK    6  A    between atoms: C_13  and  O_14
REMARK    7  A    between atoms: O_14  and  C_15
REMARK    8  A    between atoms: C_18  and  C_19
REMARK                            x       y       z     vdW  Elec       q    Type
REMARK                         _______ _______ _______ _____ _____    ______ ____
ROOT
ATOM      1  C   UNL     1      43.630   5.045  11.827  0.00  0.00    +0.000 C 
ENDROOT
BRANCH   1   6
ATOM      2  C   UNL     1      46.944   5.433  13.756  0.00  0.00    +0.000 A 
ATOM      3  C   UNL     1      47.654   6.250  12.869  0.00  0.00    +0.000 A 
ATOM      4  C   UNL     1      47.074   6.699  11.689  0.00  0.00    +0.000 A 
ATOM      5  C   UNL     1      45.776   6.328  11.355  0.00  0.00    +0.000 A 
ATOM      6  C   UNL     1      45.025   5.503  12.208  0.00  0.00    +0.000 A 
ATOM      7  C   UNL     1      45.625   5.096  13.413  0.00  0.00    +0.000 A 
BRANCH   2  11
ATOM      8  C   UNL     1      48.545   4.068  17.351  0.00  0.00    +0.000 A 
ATOM      9  C   UNL     1      47.871   3.221  16.479  0.00  0.00    +0.000 A 
ATOM     10  N   UNL     1      47.360   3.632  15.296  0.00  0.00    +0.000 NA
ATOM     11  C   UNL     1      47.546   4.944  14.994  0.00  0.00    +0.000 A 
ATOM     12  C   UNL     1      48.252   5.775  15.863  0.00  0.00    +0.000 A 
ATOM     13  N   UNL     1      48.763   5.366  17.044  0.00  0.00    +0.000 NA
BRANCH   8  15
ATOM     14  C   UNL     1      49.346   4.752  19.622  0.00  0.00    +0.000 C 
ATOM     15  C   UNL     1      49.007   3.592  18.696  0.00  0.00    +0.000 C 
ENDBRANCH   8  15
ENDBRANCH   2  11
ENDBRANCH   1   6
BRANCH   1  16
ATOM     16  C   UNL     1      43.483   4.705  10.341  0.00  0.00    +0.000 C 
BRANCH  16  17
ATOM     17  O   UNL     1      43.671   3.315  10.080  0.00  0.00    +0.000 OA
BRANCH  17  18
ATOM     18  C   UNL     1      44.651   3.053   9.156  0.00  0.00    +0.000 A 
ATOM     19  C   UNL     1      45.279   4.010   8.350  0.00  0.00    +0.000 A 
ATOM     20  C   UNL     1      46.275   3.637   7.442  0.00  0.00    +0.000 A 
ATOM     21  C   UNL     1      46.661   2.303   7.332  0.00  0.00    +0.000 A 
ATOM     22  C   UNL     1      46.037   1.352   8.144  0.00  0.00    +0.000 A 
ATOM     23  F   UNL     1      46.387   0.056   8.087  0.00  0.00    +0.000 F 
ATOM     24  C   UNL     1      45.035   1.716   9.045  0.00  0.00    +0.000 A 
BRANCH  21  25
ATOM     25  C   UNL     1      47.727   1.966   6.353  0.00  0.00    +0.000 C 
ATOM     26  N   UNL     1      48.895   2.663   6.402  0.00  0.00    +0.000 N 
ATOM     27  O   UNL     1      47.566   1.078   5.515  0.00  0.00    +0.000 OA
ATOM     28  H   UNL     1      49.069   3.404   7.073  0.00  0.00    +0.000 HD
ATOM     29  H   UNL     1      49.619   2.428   5.737  0.00  0.00    +0.000 HD
ENDBRANCH  21  25
ENDBRANCH  17  18
ENDBRANCH  16  17
ENDBRANCH   1  16
TORSDOF 7
ENDMDL
MODEL 2
REMARK VINA RESULT:    -8.063      2.799      4.718
REMARK INTER + INTRA:         -12.351
REMARK INTER:                 -11.159
REMARK INTRA:                  -1.192
REMARK UNBOUND:                -0.988
REMARK  Name = 
REMARK  8 active torsions:
REMARK  status: ('A' for Active; 'I' for Inactive)
REMARK    1  A    between atoms: C_1  and  C_2
REMARK    2  A    between atoms: C_2  and  C_3
REMARK    3  A    between atoms: C_6  and  C_7
REMARK    4  A    between atoms: C_11  and  C_12
REMARK    5  A    between atoms: C_12  and  C_13
REMARK    6  A    between atoms: C_13  and  O_14
REMARK    7  A    between atoms: O_14  and  C_15
REMARK    8  A    between atoms: C_18  and  C_19
REMARK                            x       y       z     vdW  Elec       q    Type
REMARK                         _______ _______ _______ _____ _____    ______ ____
ROOT
ATOM      1  C   UNL     1      43.279   5.282  12.398  0.00  0.00    +0.000 C 
ENDROOT
BRANCH   1   6
ATOM      2  C   UNL     1      46.769   6.900  12.629  0.00  0.00    +0.000 A 
ATOM      3  C   UNL     1      47.457   5.908  13.338  0.00  0.00    +0.000 A 
ATOM      4  C   UNL     1      46.827   4.725  13.708  0.00  0.00    +0.000 A 
ATOM      5  C   UNL     1      45.489   4.511  13.396  0.00  0.00    +0.000 A 
ATOM      6  C   UNL     1      44.754   5.480  12.693  0.00  0.00    +0.000 A 
ATOM      7  C   UNL     1      45.428   6.650  12.299  0.00  0.00    +0.000 A 
BRANCH   2  11
ATOM      8  C   UNL     1      48.577  10.447  11.405  0.00  0.00    +0.000 A 
ATOM      9  C   UNL     1      47.247  10.401  11.808  0.00  0.00    +0.000 A 
ATOM     10  N   UNL     1      46.641   9.269  12.229  0.00  0.00    +0.000 NA
ATOM     11  C   UNL     1      47.416   8.152  12.245  0.00  0.00    +0.000 A 
ATOM     12  C   UNL     1      48.757   8.219  11.870  0.00  0.00    +0.000 A 
ATOM     13  N   UNL     1      49.364   9.349  11.448  0.00  0.00    +0.000 NA
BRANCH   8  15
ATOM     14  C   UNL     1      48.504  12.128   9.552  0.00  0.00    +0.000 C 
ATOM     15  C   UNL     1      49.178  11.704  10.849  0.00  0.00    +0.000 C 
ENDBRANCH   8  15
ENDBRANCH   2  11
ENDBRANCH   1   6
BRANCH   1  16
ATOM     16  C   UNL     1      43.000   4.809  10.969  0.00  0.00    +0.000 C 
BRANCH  16  17
ATOM     17  O   UNL     1      43.437   3.470  10.744  0.00  0.00    +0.000 OA
BRANCH  17  18
ATOM     18  C   UNL     1      44.382   3.354   9.755  0.00  0.00    +0.000 A 
ATOM     19  C   UNL     1      45.012   4.424   9.111  0.00  0.00    +0.000 A 
ATOM     20  C   UNL     1      45.969   4.197   8.118  0.00  0.00    +0.000 A 
ATOM     21  C   UNL     1      46.315   2.895   7.761  0.00  0.00    +0.000 A 
ATOM     22  C   UNL     1      45.689   1.830   8.412  0.00  0.00    +0.000 A 
ATOM     23  F   UNL     1      46.001   0.557   8.116  0.00  0.00    +0.000 F 
ATOM     24  C   UNL     1      44.725   2.050   9.397  0.00  0.00    +0.000 A 
BRANCH  21  25
ATOM     25  C   UNL     1      47.342   2.714   6.701  0.00  0.00    +0.000 C 
ATOM     26  N   UNL     1      47.117   3.272   5.480  0.00  0.00    +0.000 N 
ATOM     27  O   UNL     1      48.374   2.079   6.915  0.00  0.00    +0.000 OA
ATOM     28  H   UNL     1      46.280   3.801   5.259  0.00  0.00    +0.000 HD
ATOM     29  H   UNL     1      47.820   3.151   4.764  0.00  0.00    +0.000 HD
ENDBRANCH  21  25
ENDBRANCH  17  18
ENDBRANCH  16  17
ENDBRANCH   1  16
TORSDOF 7
ENDMDL
MODEL 3
REMARK VINA RESULT:    -7.817      1.213      1.691
REMARK INTER + INTRA:         -12.003
REMARK INTER:                 -11.126
REMARK INTRA:                  -0.877
REMARK UNBOUND:                -0.988
REMARK  Name = 
REMARK  8 active torsions:
REMARK  status: ('A' for Active; 'I' for Inactive)
REMARK    1  A    between atoms: C_1  and  C_2
REMARK    2  A    between atoms: C_2  and  C_3
REMARK    3  A    between atoms: C_6  and  C_7
REMARK    4  A    between atoms: C_11  and  C_12
REMARK    5  A    between atoms: C_12  and  C_13
REMARK    6  A    between atoms: C_13  and  O_14
REMARK    7  A    between atoms: O_14  and  C_15
REMARK    8  A    between atoms: C_18  and  C_19
REMARK                            x       y       z     vdW  Elec       q    Type
REMARK                         _______ _______ _______ _____ _____    ______ ____
ROOT
ATOM      1  C   UNL     1      44.265   4.202  12.164  0.00  0.00    +0.000 C 
ENDROOT
BRANCH   1   6
ATOM      2  C   UNL     1      47.289   5.581  14.115  0.00  0.00    +0.000 A 
ATOM      3  C   UNL     1      47.804   6.479  13.173  0.00  0.00    +0.000 A 
ATOM      4  C   UNL     1      47.178   6.668  11.947  0.00  0.00    +0.000 A 
ATOM      5  C   UNL     1      46.032   5.951  11.622  0.00  0.00    +0.000 A 
ATOM      6  C   UNL     1      45.481   5.032  12.530  0.00  0.00    +0.000 A 
ATOM      7  C   UNL     1      46.115   4.890  13.778  0.00  0.00    +0.000 A 
BRANCH   2  11
ATOM      8  C   UNL     1      49.237   4.870  17.727  0.00  0.00    +0.000 A 
ATOM      9  C   UNL     1      49.667   5.852  16.842  0.00  0.00    +0.000 A 
ATOM     10  N   UNL     1      49.042   6.118  15.673  0.00  0.00    +0.000 NA
ATOM     11  C   UNL     1      47.944   5.363  15.403  0.00  0.00    +0.000 A 
ATOM     12  C   UNL     1      47.505   4.406  16.315  0.00  0.00    +0.000 A 
ATOM     13  N   UNL     1      48.128   4.138  17.483  0.00  0.00    +0.000 NA
BRANCH   8  15
ATOM     14  C   UNL     1      49.208   4.781  20.229  0.00  0.00    +0.000 C 
ATOM     15  C   UNL     1      50.021   4.541  18.964  0.00  0.00    +0.000 C 
ENDBRANCH   8  15
ENDBRANCH   2  11
ENDBRANCH   1   6
BRANCH   1  16
ATOM     16  C   UNL     1      43.842   4.352  10.699  0.00  0.00    +0.000 C 
BRANCH  16  17
ATOM     17  O   UNL     1      43.628   3.092  10.064  0.00  0.00    +0.000 OA
BRANCH  17  18
ATOM     18  C   UNL     1      44.619   2.741   9.182  0.00  0.00    +0.000 A 
ATOM     19  C   UNL     1      45.113   1.445   8.997  0.00  0.00    +0.000 A 
ATOM     20  C   UNL     1      46.123   1.192   8.064  0.00  0.00    +0.000 A 
ATOM     21  C   UNL     1      46.648   2.231   7.298  0.00  0.00    +0.000 A 
ATOM     22  C   UNL     1      46.146   3.522   7.481  0.00  0.00    +0.000 A 
ATOM     23  F   UNL     1      46.607   4.554   6.754  0.00  0.00    +0.000 F 
ATOM     24  C   UNL     1      45.145   3.783   8.418  0.00  0.00    +0.000 A 
BRANCH  21  25
ATOM     25  C   UNL     1      47.717   1.902   6.319  0.00  0.00    +0.000 C 
ATOM     26  N   UNL     1      48.911   2.546   6.424  0.00  0.00    +0.000 N 
ATOM     27  O   UNL     1      47.535   1.067   5.433  0.00  0.00    +0.000 OA
ATOM     28  H   UNL     1      49.103   3.243   7.136  0.00  0.00    +0.000 HD
ATOM     29  H   UNL     1      49.637   2.316   5.759  0.00  0.00    +0.000 HD
ENDBRANCH  21  25
ENDBRANCH  17  18
ENDBRANCH  16  17
ENDBRANCH   1  16
TORSDOF 7
ENDMDL
MODEL 4
REMARK VINA RESULT:    -7.676      3.312      8.321
REMARK INTER + INTRA:         -11.805
REMARK INTER:                 -10.499
REMARK INTRA:                  -1.306
REMARK UNBOUND:                -0.988
REMARK  Name = 
REMARK  8 active torsions:
REMARK  status: ('A' for Active; 'I' for Inactive)
REMARK    1  A    between atoms: C_1  and  C_2
REMARK    2  A    between atoms: C_2  and  C_3
REMARK    3  A    between atoms: C_6  and  C_7
REMARK    4  A    between atoms: C_11  and  C_12
REMARK    5  A    between atoms: C_12  and  C_13
REMARK    6  A    between atoms: C_13  and  O_14
REMARK    7  A    between atoms: O_14  and  C_15
REMARK    8  A    between atoms: C_18  and  C_19
REMARK                            x       y       z     vdW  Elec       q    Type
REMARK                         _______ _______ _______ _____ _____    ______ ____
ROOT
ATOM      1  C   UNL     1      45.011   7.480  11.601  0.00  0.00    +0.000 C 
ENDROOT
BRANCH   1   6
ATOM      2  C   UNL     1      44.817   4.020   9.915  0.00  0.00    +0.000 A 
ATOM      3  C   UNL     1      43.830   3.415  10.701  0.00  0.00    +0.000 A 
ATOM      4  C   UNL     1      43.210   4.110  11.733  0.00  0.00    +0.000 A 
ATOM      5  C   UNL     1      43.574   5.422  12.018  0.00  0.00    +0.000 A 
ATOM      6  C   UNL     1      44.565   6.070  11.263  0.00  0.00    +0.000 A 
ATOM      7  C   UNL     1      45.147   5.354  10.201  0.00  0.00    +0.000 A 
BRANCH   2  11
ATOM      8  C   UNL     1      46.838   1.970   6.905  0.00  0.00    +0.000 A 
ATOM      9  C   UNL     1      46.266   1.310   7.986  0.00  0.00    +0.000 A 
ATOM     10  N   UNL     1      45.587   1.947   8.966  0.00  0.00    +0.000 NA
ATOM     11  C   UNL     1      45.485   3.297   8.836  0.00  0.00    +0.000 A 
ATOM     12  C   UNL     1      46.035   3.941   7.729  0.00  0.00    +0.000 A 
ATOM     13  N   UNL     1      46.714   3.306   6.749  0.00  0.00    +0.000 NA
BRANCH   8  15
ATOM     14  C   UNL     1      47.034   1.261   4.512  0.00  0.00    +0.000 C 
ATOM     15  C   UNL     1      47.668   1.234   5.895  0.00  0.00    +0.000 C 
ENDBRANCH   8  15
ENDBRANCH   2  11
ENDBRANCH   1   6
BRANCH   1  16
ATOM     16  C   UNL     1      45.854   7.565  12.877  0.00  0.00    +0.000 C 
BRANCH  16  17
ATOM     17  O   UNL     1      47.086   6.854  12.761  0.00  0.00    +0.000 OA
BRANCH  17  18
ATOM     18  C   UNL     1      47.254   5.878  13.711  0.00  0.00    +0.000 A 
ATOM     19  C   UNL     1      46.804   4.557  13.600  0.00  0.00    +0.000 A 
ATOM     20  C   UNL     1      47.033   3.635  14.625  0.00  0.00    +0.000 A 
ATOM     21  C   UNL     1      47.722   4.020  15.773  0.00  0.00    +0.000 A 
ATOM     22  C   UNL     1      48.177   5.337  15.877  0.00  0.00    +0.000 A 
ATOM     23  F   UNL     1      48.862   5.750  16.956  0.00  0.00    +0.000 F 
ATOM     24  C   UNL     1      47.942   6.265  14.861  0.00  0.00    +0.000 A 
BRANCH  21  25
ATOM     25  C   UNL     1      47.940   2.996  16.829  0.00  0.00    +0.000 C 
ATOM     26  N   UNL     1      46.934   2.755  17.714  0.00  0.00    +0.000 N 
ATOM     27  O   UNL     1      49.001   2.376  16.907  0.00  0.00    +0.000 OA
ATOM     28  H   UNL     1      46.046   3.244  17.689  0.00  0.00    +0.000 HD
ATOM     29  H   UNL     1      47.085   2.054  18.427  0.00  0.00    +0.000 HD
ENDBRANCH  21  25
ENDBRANCH  17  18
ENDBRANCH  16  17
ENDBRANCH   1  16
TORSDOF 7
ENDMDL
MODEL 5
REMARK VINA RESULT:    -7.207      3.309      8.765
REMARK INTER + INTRA:         -11.144
REMARK INTER:                 -10.320
REMARK INTRA:                  -0.823
REMARK UNBOUND:                -0.988
REMARK  Name = 
REMARK  8 active torsions:
REMARK  status: ('A' for Active; 'I' for Inactive)
REMARK    1  A    between atoms: C_1  and  C_2
REMARK    2  A    between atoms: C_2  and  C_3
REMARK    3  A    between atoms: C_6  and  C_7
REMARK    4  A    between atoms: C_11  and  C_12
REMARK    5  A    between atoms: C_12  and  C_13
REMARK    6  A    between atoms: C_13  and  O_14
REMARK    7  A    between atoms: O_14  and  C_15
REMARK    8  A    between atoms: C_18  and  C_19
REMARK                            x       y       z     vdW  Elec       q    Type
REMARK                         _______ _______ _______ _____ _____    ______ ____
ROOT
ATOM      1  C   UNL     1      45.755   7.132  12.963  0.00  0.00    +0.000 C 
ENDROOT
BRANCH   1   6
ATOM      2  C   UNL     1      44.715   4.398  10.453  0.00  0.00    +0.000 A 
ATOM      3  C   UNL     1      43.439   4.087  10.939  0.00  0.00    +0.000 A 
ATOM      4  C   UNL     1      42.904   4.761  12.030  0.00  0.00    +0.000 A 
ATOM      5  C   UNL     1      43.637   5.752  12.675  0.00  0.00    +0.000 A 
ATOM      6  C   UNL     1      44.924   6.094  12.231  0.00  0.00    +0.000 A 
ATOM      7  C   UNL     1      45.424   5.421  11.101  0.00  0.00    +0.000 A 
BRANCH   2  11
ATOM      8  C   UNL     1      46.485   2.379   7.269  0.00  0.00    +0.000 A 
ATOM      9  C   UNL     1      45.938   1.704   8.354  0.00  0.00    +0.000 A 
ATOM     10  N   UNL     1      45.339   2.332   9.390  0.00  0.00    +0.000 NA
ATOM     11  C   UNL     1      45.293   3.688   9.315  0.00  0.00    +0.000 A 
ATOM     12  C   UNL     1      45.817   4.351   8.205  0.00  0.00    +0.000 A 
ATOM     13  N   UNL     1      46.416   3.725   7.170  0.00  0.00    +0.000 NA
BRANCH   8  15
ATOM     14  C   UNL     1      47.134   2.363   4.852  0.00  0.00    +0.000 C 
ATOM     15  C   UNL     1      47.229   1.647   6.192  0.00  0.00    +0.000 C 
ENDBRANCH   8  15
ENDBRANCH   2  11
ENDBRANCH   1   6
BRANCH   1  16
ATOM     16  C   UNL     1      47.264   6.908  12.833  0.00  0.00    +0.000 C 
BRANCH  16  17
ATOM     17  O   UNL     1      47.660   5.607  13.267  0.00  0.00    +0.000 OA
BRANCH  17  18
ATOM     18  C   UNL     1      47.844   5.508  14.623  0.00  0.00    +0.000 A 
ATOM     19  C   UNL     1      48.587   6.400  15.404  0.00  0.00    +0.000 A 
ATOM     20  C   UNL     1      48.707   6.212  16.785  0.00  0.00    +0.000 A 
ATOM     21  C   UNL     1      48.080   5.132  17.403  0.00  0.00    +0.000 A 
ATOM     22  C   UNL     1      47.333   4.249  16.620  0.00  0.00    +0.000 A 
ATOM     23  F   UNL     1      46.695   3.203  17.173  0.00  0.00    +0.000 F 
ATOM     24  C   UNL     1      47.218   4.426  15.240  0.00  0.00    +0.000 A 
BRANCH  21  25
ATOM     25  C   UNL     1      48.239   4.985  18.873  0.00  0.00    +0.000 C 
ATOM     26  N   UNL     1      49.046   3.994  19.341  0.00  0.00    +0.000 N 
ATOM     27  O   UNL     1      47.661   5.738  19.656  0.00  0.00    +0.000 OA
ATOM     28  H   UNL     1      49.539   3.349  18.732  0.00  0.00    +0.000 HD
ATOM     29  H   UNL     1      49.155   3.900  20.342  0.00  0.00    +0.000 HD
ENDBRANCH  21  25
ENDBRANCH  17  18
ENDBRANCH  16  17
ENDBRANCH   1  16
TORSDOF 7
ENDMDL
MODEL 6
REMARK VINA RESULT:    -6.704      2.787      4.636
REMARK INTER + INTRA:         -10.435
REMARK INTER:                  -9.617
REMARK INTRA:                  -0.818
REMARK UNBOUND:                -0.988
REMARK  Name = 
REMARK  8 active torsions:
REMARK  status: ('A' for Active; 'I' for Inactive)
REMARK    1  A    between atoms: C_1  and  C_2
REMARK    2  A    between atoms: C_2  and  C_3
REMARK    3  A    between atoms: C_6  and  C_7
REMARK    4  A    between atoms: C_11  and  C_12
REMARK    5  A    between atoms: C_12  and  C_13
REMARK    6  A    between atoms: C_13  and  O_14
REMARK    7  A    between atoms: O_14  and  C_15
REMARK    8  A    between atoms: C_18  and  C_19
REMARK                            x       y       z     vdW  Elec       q    Type
REMARK                         _______ _______ _______ _____ _____    ______ ____
ROOT
ATOM      1  C   UNL     1      45.207   3.941  12.497  0.00  0.00    +0.000 C 
ENDROOT
BRANCH   1   6
ATOM      2  C   UNL     1      47.926   6.494  13.466  0.00  0.00    +0.000 A 
ATOM      3  C   UNL     1      48.199   6.082  14.776  0.00  0.00    +0.000 A 
ATOM      4  C   UNL     1      47.551   4.985  15.331  0.00  0.00    +0.000 A 
ATOM      5  C   UNL     1      46.599   4.282  14.599  0.00  0.00    +0.000 A 
ATOM      6  C   UNL     1      46.284   4.663  13.284  0.00  0.00    +0.000 A 
ATOM      7  C   UNL     1      46.984   5.753  12.736  0.00  0.00    +0.000 A 
BRANCH   2  11
ATOM      8  C   UNL     1      49.770   9.875  11.880  0.00  0.00    +0.000 A 
ATOM      9  C   UNL     1      50.401   9.066  12.818  0.00  0.00    +0.000 A 
ATOM     10  N   UNL     1      49.835   7.952  13.334  0.00  0.00    +0.000 NA
ATOM     11  C   UNL     1      48.591   7.653  12.876  0.00  0.00    +0.000 A 
ATOM     12  C   UNL     1      47.984   8.455  11.910  0.00  0.00    +0.000 A 
ATOM     13  N   UNL     1      48.548   9.567  11.394  0.00  0.00    +0.000 NA
BRANCH   8  15
ATOM     14  C   UNL     1      49.540  11.853  10.364  0.00  0.00    +0.000 C 
ATOM     15  C   UNL     1      50.395  11.156  11.412  0.00  0.00    +0.000 C 
ENDBRANCH   8  15
ENDBRANCH   2  11
ENDBRANCH   1   6
BRANCH   1  16
ATOM     16  C   UNL     1      44.579   4.797  11.394  0.00  0.00    +0.000 C 
BRANCH  16  17
ATOM     17  O   UNL     1      43.909   4.010  10.409  0.00  0.00    +0.000 OA
BRANCH  17  18
ATOM     18  C   UNL     1      44.754   3.419   9.504  0.00  0.00    +0.000 A 
ATOM     19  C   UNL     1      44.960   2.041   9.373  0.00  0.00    +0.000 A 
ATOM     20  C   UNL     1      45.841   1.538   8.411  0.00  0.00    +0.000 A 
ATOM     21  C   UNL     1      46.522   2.408   7.561  0.00  0.00    +0.000 A 
ATOM     22  C   UNL     1      46.307   3.782   7.690  0.00  0.00    +0.000 A 
ATOM     23  F   UNL     1      46.926   4.659   6.882  0.00  0.00    +0.000 F 
ATOM     24  C   UNL     1      45.437   4.290   8.656  0.00  0.00    +0.000 A 
BRANCH  21  25
ATOM     25  C   UNL     1      47.442   1.817   6.554  0.00  0.00    +0.000 C 
ATOM     26  N   UNL     1      48.700   2.327   6.448  0.00  0.00    +0.000 N 
ATOM     27  O   UNL     1      47.084   0.887   5.831  0.00  0.00    +0.000 OA
ATOM     28  H   UNL     1      49.035   3.094   7.021  0.00  0.00    +0.000 HD
ATOM     29  H   UNL     1      49.324   1.919   5.765  0.00  0.00    +0.000 HD
ENDBRANCH  21  25
ENDBRANCH  17  18
ENDBRANCH  16  17
ENDBRANCH   1  16
TORSDOF 7
ENDMDL
MODEL 7
REMARK VINA RESULT:    -6.666      4.393      8.133
REMARK INTER + INTRA:         -10.381
REMARK INTER:                  -8.950
REMARK INTRA:                  -1.431
REMARK UNBOUND:                -0.988
REMARK  Name = 
REMARK  8 active torsions:
REMARK  status: ('A' for Active; 'I' for Inactive)
REMARK    1  A    between atoms: C_1  and  C_2
REMARK    2  A    between atoms: C_2  and  C_3
REMARK    3  A    between atoms: C_6  and  C_7
REMARK    4  A    between atoms: C_11  and  C_12
REMARK    5  A    between atoms: C_12  and  C_13
REMARK    6  A    between atoms: C_13  and  O_14
REMARK    7  A    between atoms: O_14  and  C_15
REMARK    8  A    between atoms: C_18  and  C_19
REMARK                            x       y       z     vdW  Elec       q    Type
REMARK                         _______ _______ _______ _____ _____    ______ ____
ROOT
ATOM      1  C   UNL     1      49.961   8.787  15.853  0.00  0.00    +0.000 C 
ENDROOT
BRANCH   1   6
ATOM      2  C   UNL     1      48.164   6.875  13.029  0.00  0.00    +0.000 A 
ATOM      3  C   UNL     1      48.934   7.274  11.930  0.00  0.00    +0.000 A 
ATOM      4  C   UNL     1      50.031   8.112  12.090  0.00  0.00    +0.000 A 
ATOM      5  C   UNL     1      50.376   8.590  13.350  0.00  0.00    +0.000 A 
ATOM      6  C   UNL     1      49.629   8.226  14.482  0.00  0.00    +0.000 A 
ATOM      7  C   UNL     1      48.548   7.346  14.294  0.00  0.00    +0.000 A 
BRANCH   2  11
ATOM      8  C   UNL     1      44.777   4.482  12.651  0.00  0.00    +0.000 A 
ATOM      9  C   UNL     1      45.108   5.441  11.701  0.00  0.00    +0.000 A 
ATOM     10  N   UNL     1      46.211   6.217  11.787  0.00  0.00    +0.000 NA
ATOM     11  C   UNL     1      47.002   6.004  12.872  0.00  0.00    +0.000 A 
ATOM     12  C   UNL     1      46.675   5.016  13.800  0.00  0.00    +0.000 A 
ATOM     13  N   UNL     1      45.573   4.241  13.716  0.00  0.00    +0.000 NA
BRANCH   8  15
ATOM     14  C   UNL     1      43.519   2.682  11.449  0.00  0.00    +0.000 C 
ATOM     15  C   UNL     1      43.490   3.715  12.567  0.00  0.00    +0.000 C 
ENDBRANCH   8  15
ENDBRANCH   2  11
ENDBRANCH   1   6
BRANCH   1  16
ATOM     16  C   UNL     1      48.922   8.439  16.923  0.00  0.00    +0.000 C 
BRANCH  16  17
ATOM     17  O   UNL     1      49.485   7.704  18.008  0.00  0.00    +0.000 OA
BRANCH  17  18
ATOM     18  C   UNL     1      49.665   6.370  17.740  0.00  0.00    +0.000 A 
ATOM     19  C   UNL     1      50.900   5.713  17.706  0.00  0.00    +0.000 A 
ATOM     20  C   UNL     1      50.974   4.345  17.428  0.00  0.00    +0.000 A 
ATOM     21  C   UNL     1      49.812   3.614  17.189  0.00  0.00    +0.000 A 
ATOM     22  C   UNL     1      48.581   4.272  17.232  0.00  0.00    +0.000 A 
ATOM     23  F   UNL     1      47.432   3.607  17.025  0.00  0.00    +0.000 F 
ATOM     24  C   UNL     1      48.502   5.640  17.498  0.00  0.00    +0.000 A 
BRANCH  21  25
ATOM     25  C   UNL     1      49.951   2.161  16.903  0.00  0.00    +0.000 C 
ATOM     26  N   UNL     1      50.699   1.404  17.751  0.00  0.00    +0.000 N 
ATOM     27  O   UNL     1      49.405   1.648  15.926  0.00  0.00    +0.000 OA
ATOM     28  H   UNL     1      51.169   1.786  18.565  0.00  0.00    +0.000 HD
ATOM     29  H   UNL     1      50.788   0.416  17.556  0.00  0.00    +0.000 HD
ENDBRANCH  21  25
ENDBRANCH  17  18
ENDBRANCH  16  17
ENDBRANCH   1  16
TORSDOF 7
ENDMDL
MODEL 8
REMARK VINA RESULT:    -6.510      4.184      8.346
REMARK INTER + INTRA:         -10.162
REMARK INTER:                  -9.384
REMARK INTRA:                  -0.778
REMARK UNBOUND:                -0.988
REMARK  Name = 
REMARK  8 active torsions:
REMARK  status: ('A' for Active; 'I' for Inactive)
REMARK    1  A    between atoms: C_1  and  C_2
REMARK    2  A    between atoms: C_2  and  C_3
REMARK    3  A    between atoms: C_6  and  C_7
REMARK    4  A    between atoms: C_11  and  C_12
REMARK    5  A    between atoms: C_12  and  C_13
REMARK    6  A    between atoms: C_13  and  O_14
REMARK    7  A    between atoms: O_14  and  C_15
REMARK    8  A    between atoms: C_18  and  C_19
REMARK                            x       y       z     vdW  Elec       q    Type
REMARK                         _______ _______ _______ _____ _____    ______ ____
ROOT
ATOM      1  C   UNL     1      46.206   4.119  14.032  0.00  0.00    +0.000 C 
ENDROOT
BRANCH   1   6
ATOM      2  C   UNL     1      44.947   3.720  10.411  0.00  0.00    +0.000 A 
ATOM      3  C   UNL     1      43.589   4.008  10.587  0.00  0.00    +0.000 A 
ATOM      4  C   UNL     1      43.086   4.357  11.835  0.00  0.00    +0.000 A 
ATOM      5  C   UNL     1      43.925   4.410  12.944  0.00  0.00    +0.000 A 
ATOM      6  C   UNL     1      45.293   4.121  12.820  0.00  0.00    +0.000 A 
ATOM      7  C   UNL     1      45.780   3.808  11.538  0.00  0.00    +0.000 A 
BRANCH   2  11
ATOM      8  C   UNL     1      46.607   2.649   6.745  0.00  0.00    +0.000 A 
ATOM      9  C   UNL     1      46.290   1.702   7.712  0.00  0.00    +0.000 A 
ATOM     10  N   UNL     1      45.732   2.019   8.902  0.00  0.00    +0.000 NA
ATOM     11  C   UNL     1      45.486   3.340   9.108  0.00  0.00    +0.000 A 
ATOM     12  C   UNL     1      45.778   4.275   8.116  0.00  0.00    +0.000 A 
ATOM     13  N   UNL     1      46.336   3.960   6.927  0.00  0.00    +0.000 NA
BRANCH   8  15
ATOM     14  C   UNL     1      47.230   0.766   5.218  0.00  0.00    +0.000 C 
ATOM     15  C   UNL     1      47.319   2.263   5.482  0.00  0.00    +0.000 C 
ENDBRANCH   8  15
ENDBRANCH   2  11
ENDBRANCH   1   6
BRANCH   1  16
ATOM     16  C   UNL     1      46.971   5.431  14.223  0.00  0.00    +0.000 C 
BRANCH  16  17
ATOM     17  O   UNL     1      47.550   5.904  13.008  0.00  0.00    +0.000 OA
BRANCH  17  18
ATOM     18  C   UNL     1      47.174   7.182  12.675  0.00  0.00    +0.000 A 
ATOM     19  C   UNL     1      45.873   7.688  12.761  0.00  0.00    +0.000 A 
ATOM     20  C   UNL     1      45.596   9.011  12.403  0.00  0.00    +0.000 A 
ATOM     21  C   UNL     1      46.619   9.847  11.961  0.00  0.00    +0.000 A 
ATOM     22  C   UNL     1      47.918   9.339  11.885  0.00  0.00    +0.000 A 
ATOM     23  F   UNL     1      48.941  10.112  11.482  0.00  0.00    +0.000 F 
ATOM     24  C   UNL     1      48.199   8.017  12.231  0.00  0.00    +0.000 A 
BRANCH  21  25
ATOM     25  C   UNL     1      46.266  11.245  11.598  0.00  0.00    +0.000 C 
ATOM     26  N   UNL     1      45.140  11.789  12.135  0.00  0.00    +0.000 N 
ATOM     27  O   UNL     1      46.972  11.903  10.833  0.00  0.00    +0.000 OA
ATOM     28  H   UNL     1      44.529  11.282  12.767  0.00  0.00    +0.000 HD
ATOM     29  H   UNL     1      44.906  12.741  11.889  0.00  0.00    +0.000 HD
ENDBRANCH  21  25
ENDBRANCH  17  18
ENDBRANCH  16  17
ENDBRANCH   1  16
TORSDOF 7
ENDMDL
MODEL 9
REMARK VINA RESULT:    -6.491      3.683      5.998
REMARK INTER + INTRA:         -10.136
REMARK INTER:                  -9.251
REMARK INTRA:                  -0.885
REMARK UNBOUND:                -0.988
REMARK  Name = 
REMARK  8 active torsions:
REMARK  status: ('A' for Active; 'I' for Inactive)
REMARK    1  A    between atoms: C_1  and  C_2
REMARK    2  A    between atoms: C_2  and  C_3
REMARK    3  A    between atoms: C_6  and  C_7
REMARK    4  A    between atoms: C_11  and  C_12
REMARK    5  A    between atoms: C_12  and  C_13
REMARK    6  A    between atoms: C_13  and  O_14
REMARK    7  A    between atoms: O_14  and  C_15
REMARK    8  A    between atoms: C_18  and  C_19
REMARK                            x       y       z     vdW  Elec       q    Type
REMARK                         _______ _______ _______ _____ _____    ______ ____
ROOT
ATOM      1  C   UNL     1      48.475   6.759  16.377  0.00  0.00    +0.000 C 
ENDROOT
BRANCH   1   6
ATOM      2  C   UNL     1      49.823   3.293  17.388  0.00  0.00    +0.000 A 
ATOM      3  C   UNL     1      48.620   2.619  17.632  0.00  0.00    +0.000 A 
ATOM      4  C   UNL     1      47.396   3.250  17.444  0.00  0.00    +0.000 A 
ATOM      5  C   UNL     1      47.342   4.575  17.026  0.00  0.00    +0.000 A 
ATOM      6  C   UNL     1      48.521   5.296  16.777  0.00  0.00    +0.000 A 
ATOM      7  C   UNL     1      49.744   4.620  16.939  0.00  0.00    +0.000 A 
BRANCH   2  11
ATOM      8  C   UNL     1      53.470   1.410  18.097  0.00  0.00    +0.000 A 
ATOM      9  C   UNL     1      52.398   0.740  17.519  0.00  0.00    +0.000 A 
ATOM     10  N   UNL     1      51.210   1.331  17.258  0.00  0.00    +0.000 NA
ATOM     11  C   UNL     1      51.116   2.645  17.594  0.00  0.00    +0.000 A 
ATOM     12  C   UNL     1      52.210   3.313  18.143  0.00  0.00    +0.000 A 
ATOM     13  N   UNL     1      53.397   2.724  18.404  0.00  0.00    +0.000 NA
BRANCH   8  15
ATOM     14  C   UNL     1      54.473  -0.774  18.797  0.00  0.00    +0.000 C 
ATOM     15  C   UNL     1      54.734   0.687  18.461  0.00  0.00    +0.000 C 
ENDBRANCH   8  15
ENDBRANCH   2  11
ENDBRANCH   1   6
BRANCH   1  16
ATOM     16  C   UNL     1      48.442   6.977  14.861  0.00  0.00    +0.000 C 
BRANCH  16  17
ATOM     17  O   UNL     1      48.371   5.749  14.137  0.00  0.00    +0.000 OA
BRANCH  17  18
ATOM     18  C   UNL     1      47.319   5.685  13.258  0.00  0.00    +0.000 A 
ATOM     19  C   UNL     1      47.097   6.571  12.198  0.00  0.00    +0.000 A 
ATOM     20  C   UNL     1      45.995   6.412  11.353  0.00  0.00    +0.000 A 
ATOM     21  C   UNL     1      45.103   5.359  11.552  0.00  0.00    +0.000 A 
ATOM     22  C   UNL     1      45.333   4.473  12.607  0.00  0.00    +0.000 A 
ATOM     23  F   UNL     1      44.512   3.433  12.829  0.00  0.00    +0.000 F 
ATOM     24  C   UNL     1      46.426   4.632  13.460  0.00  0.00    +0.000 A 
BRANCH  21  25
ATOM     25  C   UNL     1      43.952   5.238  10.620  0.00  0.00    +0.000 C 
ATOM     26  N   UNL     1      44.158   4.653   9.409  0.00  0.00    +0.000 N 
ATOM     27  O   UNL     1      42.834   5.653  10.929  0.00  0.00    +0.000 OA
ATOM     28  H   UNL     1      45.062   4.300   9.112  0.00  0.00    +0.000 HD
ATOM     29  H   UNL     1      43.371   4.568   8.780  0.00  0.00    +0.000 HD
ENDBRANCH  21  25
ENDBRANCH  17  18
ENDBRANCH  16  17
ENDBRANCH   1  16
TORSDOF 7
ENDMDL
