MODEL 1
REMARK VINA RESULT:    -6.656      0.000      0.000
REMARK INTER + INTRA:          -9.275
REMARK INTER:                  -8.796
REMARK INTRA:                  -0.480
REMARK UNBOUND:                -0.480
REMARK  Name = 
REMARK  6 active torsions:
REMARK  status: ('A' for Active; 'I' for Inactive)
REMARK    1  A    between atoms: N_1  and  C_2
REMARK    2  A    between atoms: C_2  and  C_3
REMARK    3  A    between atoms: C_7  and  O_8
REMARK    4  A    between atoms: O_8  and  C_9
REMARK    5  A    between atoms: C_9  and  C_10
REMARK    6  A    between atoms: C_10  and  C_11
REMARK                            x       y       z     vdW  Elec       q    Type
REMARK                         _______ _______ _______ _____ _____    ______ ____
ROOT
ATOM      1  C   UNL     1      46.557   2.475   7.675  0.00  0.00    +0.000 A 
ATOM      2  C   UNL     1      46.550   3.844   7.455  0.00  0.00    +0.000 A 
ATOM      3  N   UNL     1      45.730   4.708   8.094  0.00  0.00    +0.000 NA
ATOM      4  C   UNL     1      44.876   4.175   9.004  0.00  0.00    +0.000 A 
ATOM      5  C   UNL     1      44.793   2.821   9.307  0.00  0.00    +0.000 A 
ATOM      6  C   UNL     1      45.653   1.968   8.620  0.00  0.00    +0.000 A 
ENDROOT
BRANCH   1   7
ATOM      7  C   UNL     1      47.513   1.560   6.965  0.00  0.00    +0.000 C 
BRANCH   7   8
ATOM      8  N   UNL     1      48.521   2.308   6.224  0.00  0.00    +0.000 NA
ATOM      9  H   UNL     1      48.436   3.298   6.446  0.00  0.00    +0.000 HD
ATOM     10  H   UNL     1      48.334   2.222   5.225  0.00  0.00    +0.000 HD
ENDBRANCH   7   8
ENDBRANCH   1   7
BRANCH   5  11
ATOM     11  O   UNL     1      43.879   2.441  10.254  0.00  0.00    +0.000 OA
BRANCH  11  12
ATOM     12  C   UNL     1      43.373   3.501  11.075  0.00  0.00    +0.000 C 
BRANCH  12  13
ATOM     13  C   UNL     1      43.953   3.391  12.484  0.00  0.00    +0.000 C 
BRANCH  13  14
ATOM     14  C   UNL     1      44.907   4.520  12.786  0.00  0.00    +0.000 A 
ATOM     15  C   UNL     1      44.537   5.847  12.547  0.00  0.00    +0.000 A 
ATOM     16  C   UNL     1      45.448   6.856  12.826  0.00  0.00    +0.000 A 
ATOM     17  N   UNL     1      46.687   6.635  13.312  0.00  0.00    +0.000 NA
ATOM     18  C   UNL     1      47.030   5.348  13.529  0.00  0.00    +0.000 A 
ATOM     19  C   UNL     1      46.190   4.271  13.281  0.00  0.00    +0.000 A 
ENDBRANCH  13  14
ENDBRANCH  12  13
ENDBRANCH  11  12
ENDBRANCH   5  11
TORSDOF 6
ENDMDL
MODEL 2
REMARK VINA RESULT:    -6.623      1.523      5.893
REMARK INTER + INTRA:          -9.232
REMARK INTER:                  -8.860
REMARK INTRA:                  -0.372
REMARK UNBOUND:                -0.480
REMARK  Name = 
REMARK  6 active torsions:
REMARK  status: ('A' for Active; 'I' for Inactive)
REMARK    1  A    between atoms: N_1  and  C_2
REMARK    2  A    between atoms: C_2  and  C_3
REMARK    3  A    between atoms: C_7  and  O_8
REMARK    4  A    between atoms: O_8  and  C_9
REMARK    5  A    between atoms: C_9  and  C_10
REMARK    6  A    between atoms: C_10  and  C_11
REMARK                            x       y       z     vdW  Elec       q    Type
REMARK                         _______ _______ _______ _____ _____    ______ ____
ROOT
ATOM      1  C   UNL     1      45.950   4.991  13.237  0.00  0.00    +0.000 A 
ATOM      2  C   UNL     1      45.795   6.325  12.888  0.00  0.00    +0.000 A 
ATOM      3  N   UNL     1      45.001   6.755  11.882  0.00  0.00    +0.000 NA
ATOM      4  C   UNL     1      44.324   5.802  11.193  0.00  0.00    +0.000 A 
ATOM      5  C   UNL     1      44.401   4.439  11.451  0.00  0.00    +0.000 A 
ATOM      6  C   UNL     1      45.235   4.042  12.493  0.00  0.00    +0.000 A 
ENDROOT
BRANCH   1   7
ATOM      7  C   UNL     1      46.817   4.566  14.386  0.00  0.00    +0.000 C 
BRANCH   7   8
ATOM      8  N   UNL     1      47.322   3.210  14.204  0.00  0.00    +0.000 NA
ATOM      9  H   UNL     1      46.735   2.560  14.725  0.00  0.00    +0.000 HD
ATOM     10  H   UNL     1      48.254   3.142  14.612  0.00  0.00    +0.000 HD
ENDBRANCH   7   8
ENDBRANCH   1   7
BRANCH   5  11
ATOM     11  O   UNL     1      43.651   3.605  10.665  0.00  0.00    +0.000 OA
BRANCH  11  12
ATOM     12  C   UNL     1      44.399   2.734   9.809  0.00  0.00    +0.000 C 
BRANCH  12  13
ATOM     13  C   UNL     1      44.826   3.483   8.547  0.00  0.00    +0.000 C 
BRANCH  13  14
ATOM     14  C   UNL     1      45.912   2.748   7.801  0.00  0.00    +0.000 A 
ATOM     15  C   UNL     1      46.594   3.366   6.749  0.00  0.00    +0.000 A 
ATOM     16  C   UNL     1      47.577   2.652   6.078  0.00  0.00    +0.000 A 
ATOM     17  N   UNL     1      47.916   1.380   6.376  0.00  0.00    +0.000 NA
ATOM     18  C   UNL     1      47.241   0.797   7.388  0.00  0.00    +0.000 A 
ATOM     19  C   UNL     1      46.242   1.428   8.118  0.00  0.00    +0.000 A 
ENDBRANCH  13  14
ENDBRANCH  12  13
ENDBRANCH  11  12
ENDBRANCH   5  11
TORSDOF 6
ENDMDL
MODEL 3
REMARK VINA RESULT:    -6.413      1.601      2.051
REMARK INTER + INTRA:          -8.955
REMARK INTER:                  -8.478
REMARK INTRA:                  -0.477
REMARK UNBOUND:                -0.480
REMARK  Name = 
REMARK  6 active torsions:
REMARK  status: ('A' for Active; 'I' for Inactive)
REMARK    1  A    between atoms: N_1  and  C_2
REMARK    2  A    between atoms: C_2  and  C_3
REMARK    3  A    between atoms: C_7  and  O_8
REMARK    4  A    between atoms: O_8  and  C_9
REMARK    5  A    between atoms: C_9  and  C_10
REMARK    6  A    between atoms: C_10  and  C_11
REMARK                            x       y       z     vdW  Elec       q    Type
REMARK                         _______ _______ _______ _____ _____    ______ ____
ROOT
ATOM      1  C   UNL     1      46.595   2.539   6.857  0.00  0.00    +0.000 A 
ATOM      2  C   UNL     1      46.610   1.375   7.611  0.00  0.00    +0.000 A 
ATOM      3  N   UNL     1      45.854   1.179   8.715  0.00  0.00    +0.000 NA
ATOM      4  C   UNL     1      45.038   2.199   9.081  0.00  0.00    +0.000 A 
ATOM      5  C   UNL     1      44.939   3.410   8.406  0.00  0.00    +0.000 A 
ATOM      6  C   UNL     1      45.740   3.569   7.278  0.00  0.00    +0.000 A 
ENDROOT
BRANCH   1   7
ATOM      7  C   UNL     1      47.427   2.696   5.618  0.00  0.00    +0.000 C 
BRANCH   7   8
ATOM      8  N   UNL     1      48.497   1.707   5.562  0.00  0.00    +0.000 NA
ATOM      9  H   UNL     1      48.474   1.139   6.407  0.00  0.00    +0.000 HD
ATOM     10  H   UNL     1      49.397   2.187   5.566  0.00  0.00    +0.000 HD
ENDBRANCH   7   8
ENDBRANCH   1   7
BRANCH   5  11
ATOM     11  O   UNL     1      44.064   4.339   8.902  0.00  0.00    +0.000 OA
BRANCH  11  12
ATOM     12  C   UNL     1      44.127   4.544  10.319  0.00  0.00    +0.000 C 
BRANCH  12  13
ATOM     13  C   UNL     1      45.050   5.720  10.635  0.00  0.00    +0.000 C 
BRANCH  13  14
ATOM     14  C   UNL     1      45.897   5.455  11.855  0.00  0.00    +0.000 A 
ATOM     15  C   UNL     1      46.855   6.383  12.270  0.00  0.00    +0.000 A 
ATOM     16  C   UNL     1      47.624   6.097  13.390  0.00  0.00    +0.000 A 
ATOM     17  N   UNL     1      47.509   4.959  14.107  0.00  0.00    +0.000 NA
ATOM     18  C   UNL     1      46.585   4.071  13.686  0.00  0.00    +0.000 A 
ATOM     19  C   UNL     1      45.770   4.267  12.580  0.00  0.00    +0.000 A 
ENDBRANCH  13  14
ENDBRANCH  12  13
ENDBRANCH  11  12
ENDBRANCH   5  11
TORSDOF 6
ENDMDL
MODEL 4
REMARK VINA RESULT:    -6.403      1.633      6.349
REMARK INTER + INTRA:          -8.942
REMARK INTER:                  -8.554
REMARK INTRA:                  -0.389
REMARK UNBOUND:                -0.480
REMARK  Name = 
REMARK  6 active torsions:
REMARK  status: ('A' for Active; 'I' for Inactive)
REMARK    1  A    between atoms: N_1  and  C_2
REMARK    2  A    between atoms: C_2  and  C_3
REMARK    3  A    between atoms: C_7  and  O_8
REMARK    4  A    between atoms: O_8  and  C_9
REMARK    5  A    between atoms: C_9  and  C_10
REMARK    6  A    between atoms: C_10  and  C_11
REMARK                            x       y       z     vdW  Elec       q    Type
REMARK                         _______ _______ _______ _____ _____    ______ ____
ROOT
ATOM      1  C   UNL     1      46.229   5.838  12.495  0.00  0.00    +0.000 A 
ATOM      2  C   UNL     1      46.354   4.731  13.322  0.00  0.00    +0.000 A 
ATOM      3  N   UNL     1      45.745   3.546  13.095  0.00  0.00    +0.000 NA
ATOM      4  C   UNL     1      44.975   3.461  11.981  0.00  0.00    +0.000 A 
ATOM      5  C   UNL     1      44.775   4.502  11.081  0.00  0.00    +0.000 A 
ATOM      6  C   UNL     1      45.418   5.705  11.358  0.00  0.00    +0.000 A 
ENDROOT
BRANCH   1   7
ATOM      7  C   UNL     1      46.954   7.123  12.770  0.00  0.00    +0.000 C 
BRANCH   7   8
ATOM      8  N   UNL     1      47.369   7.216  14.165  0.00  0.00    +0.000 NA
ATOM      9  H   UNL     1      47.053   6.388  14.665  0.00  0.00    +0.000 HD
ATOM     10  H   UNL     1      46.900   8.010  14.601  0.00  0.00    +0.000 HD
ENDBRANCH   7   8
ENDBRANCH   1   7
BRANCH   5  11
ATOM     11  O   UNL     1      43.969   4.255  10.002  0.00  0.00    +0.000 OA
BRANCH  11  12
ATOM     12  C   UNL     1      44.479   3.300   9.063  0.00  0.00    +0.000 C 
BRANCH  12  13
ATOM     13  C   UNL     1      45.479   3.972   8.125  0.00  0.00    +0.000 C 
BRANCH  13  14
ATOM     14  C   UNL     1      46.256   2.961   7.318  0.00  0.00    +0.000 A 
ATOM     15  C   UNL     1      46.546   1.700   7.846  0.00  0.00    +0.000 A 
ATOM     16  C   UNL     1      47.274   0.804   7.077  0.00  0.00    +0.000 A 
ATOM     17  N   UNL     1      47.735   1.078   5.839  0.00  0.00    +0.000 NA
ATOM     18  C   UNL     1      47.453   2.303   5.348  0.00  0.00    +0.000 A 
ATOM     19  C   UNL     1      46.733   3.268   6.040  0.00  0.00    +0.000 A 
ENDBRANCH  13  14
ENDBRANCH  12  13
ENDBRANCH  11  12
ENDBRANCH   5  11
TORSDOF 6
ENDMDL
MODEL 5
REMARK VINA RESULT:    -5.760      1.998      3.019
REMARK INTER + INTRA:          -8.092
REMARK INTER:                  -7.674
REMARK INTRA:                  -0.418
REMARK UNBOUND:                -0.480
REMARK  Name = 
REMARK  6 active torsions:
REMARK  status: ('A' for Active; 'I' for Inactive)
REMARK    1  A    between atoms: N_1  and  C_2
REMARK    2  A    between atoms: C_2  and  C_3
REMARK    3  A    between atoms: C_7  and  O_8
REMARK    4  A    between atoms: O_8  and  C_9
REMARK    5  A    between atoms: C_9  and  C_10
REMARK    6  A    between atoms: C_10  and  C_11
REMARK                            x       y       z     vdW  Elec       q    Type
REMARK                         _______ _______ _______ _____ _____    ______ ____
ROOT
ATOM      1  C   UNL     1      45.321   3.391   8.530  0.00  0.00    +0.000 A 
ATOM      2  C   UNL     1      44.591   2.400   9.170  0.00  0.00    +0.000 A 
ATOM      3  N   UNL     1      43.900   2.592  10.316  0.00  0.00    +0.000 NA
ATOM      4  C   UNL     1      43.938   3.841  10.847  0.00  0.00    +0.000 A 
ATOM      5  C   UNL     1      44.635   4.910  10.296  0.00  0.00    +0.000 A 
ATOM      6  C   UNL     1      45.336   4.664   9.118  0.00  0.00    +0.000 A 
ENDROOT
BRANCH   1   7
ATOM      7  C   UNL     1      46.043   3.138   7.238  0.00  0.00    +0.000 C 
BRANCH   7   8
ATOM      8  N   UNL     1      46.972   4.217   6.923  0.00  0.00    +0.000 NA
ATOM      9  H   UNL     1      47.488   4.472   7.763  0.00  0.00    +0.000 HD
ATOM     10  H   UNL     1      46.442   5.044   6.650  0.00  0.00    +0.000 HD
ENDBRANCH   7   8
ENDBRANCH   1   7
BRANCH   5  11
ATOM     11  O   UNL     1      44.571   6.110  10.953  0.00  0.00    +0.000 OA
BRANCH  11  12
ATOM     12  C   UNL     1      45.053   6.096  12.302  0.00  0.00    +0.000 C 
BRANCH  12  13
ATOM     13  C   UNL     1      46.576   6.212  12.312  0.00  0.00    +0.000 C 
BRANCH  13  14
ATOM     14  C   UNL     1      47.158   5.826  13.650  0.00  0.00    +0.000 A 
ATOM     15  C   UNL     1      48.144   6.613  14.250  0.00  0.00    +0.000 A 
ATOM     16  C   UNL     1      48.663   6.217  15.475  0.00  0.00    +0.000 A 
ATOM     17  N   UNL     1      48.277   5.100  16.128  0.00  0.00    +0.000 NA
ATOM     18  C   UNL     1      47.331   4.348  15.529  0.00  0.00    +0.000 A 
ATOM     19  C   UNL     1      46.752   4.660  14.306  0.00  0.00    +0.000 A 
ENDBRANCH  13  14
ENDBRANCH  12  13
ENDBRANCH  11  12
ENDBRANCH   5  11
TORSDOF 6
ENDMDL
MODEL 6
REMARK VINA RESULT:    -5.730      2.302      3.205
REMARK INTER + INTRA:          -8.052
REMARK INTER:                  -7.776
REMARK INTRA:                  -0.276
REMARK UNBOUND:                -0.480
REMARK  Name = 
REMARK  6 active torsions:
REMARK  status: ('A' for Active; 'I' for Inactive)
REMARK    1  A    between atoms: N_1  and  C_2
REMARK    2  A    between atoms: C_2  and  C_3
REMARK    3  A    between atoms: C_7  and  O_8
REMARK    4  A    between atoms: O_8  and  C_9
REMARK    5  A    between atoms: C_9  and  C_10
REMARK    6  A    between atoms: C_10  and  C_11
REMARK                            x       y       z     vdW  Elec       q    Type
REMARK                         _______ _______ _______ _____ _____    ______ ____
ROOT
ATOM      1  C   UNL     1      46.997   1.519   5.370  0.00  0.00    +0.000 A 
ATOM      2  C   UNL     1      47.076   0.533   6.342  0.00  0.00    +0.000 A 
ATOM      3  N   UNL     1      46.863   0.752   7.659  0.00  0.00    +0.000 NA
ATOM      4  C   UNL     1      46.549   2.022   8.021  0.00  0.00    +0.000 A 
ATOM      5  C   UNL     1      46.443   3.090   7.137  0.00  0.00    +0.000 A 
ATOM      6  C   UNL     1      46.676   2.818   5.792  0.00  0.00    +0.000 A 
ENDROOT
BRANCH   1   7
ATOM      7  C   UNL     1      47.208   1.219   3.914  0.00  0.00    +0.000 C 
BRANCH   7   8
ATOM      8  N   UNL     1      47.329  -0.214   3.673  0.00  0.00    +0.000 NA
ATOM      9  H   UNL     1      46.736  -0.474   2.887  0.00  0.00    +0.000 HD
ATOM     10  H   UNL     1      46.970  -0.720   4.482  0.00  0.00    +0.000 HD
ENDBRANCH   7   8
ENDBRANCH   1   7
BRANCH   5  11
ATOM     11  O   UNL     1      46.115   4.311   7.661  0.00  0.00    +0.000 OA
BRANCH  11  12
ATOM     12  C   UNL     1      45.096   4.293   8.667  0.00  0.00    +0.000 C 
BRANCH  12  13
ATOM     13  C   UNL     1      45.469   5.241   9.806  0.00  0.00    +0.000 C 
BRANCH  13  14
ATOM     14  C   UNL     1      44.522   5.114  10.973  0.00  0.00    +0.000 A 
ATOM     15  C   UNL     1      43.224   5.626  10.894  0.00  0.00    +0.000 A 
ATOM     16  C   UNL     1      42.387   5.501  11.994  0.00  0.00    +0.000 A 
ATOM     17  N   UNL     1      42.754   4.917  13.154  0.00  0.00    +0.000 NA
ATOM     18  C   UNL     1      44.013   4.436  13.215  0.00  0.00    +0.000 A 
ATOM     19  C   UNL     1      44.923   4.513  12.170  0.00  0.00    +0.000 A 
ENDBRANCH  13  14
ENDBRANCH  12  13
ENDBRANCH  11  12
ENDBRANCH   5  11
TORSDOF 6
ENDMDL
MODEL 7
REMARK VINA RESULT:    -5.478      2.260      3.332
REMARK INTER + INTRA:          -7.719
REMARK INTER:                  -7.198
REMARK INTRA:                  -0.521
REMARK UNBOUND:                -0.480
REMARK  Name = 
REMARK  6 active torsions:
REMARK  status: ('A' for Active; 'I' for Inactive)
REMARK    1  A    between atoms: N_1  and  C_2
REMARK    2  A    between atoms: C_2  and  C_3
REMARK    3  A    between atoms: C_7  and  O_8
REMARK    4  A    between atoms: O_8  and  C_9
REMARK    5  A    between atoms: C_9  and  C_10
REMARK    6  A    between atoms: C_10  and  C_11
REMARK                            x       y       z     vdW  Elec       q    Type
REMARK                         _______ _______ _______ _____ _____    ______ ____
ROOT
ATOM      1  C   UNL     1      45.231   3.473   8.828  0.00  0.00    +0.000 A 
ATOM      2  C   UNL     1      44.498   2.448   9.408  0.00  0.00    +0.000 A 
ATOM      3  N   UNL     1      43.740   2.595  10.519  0.00  0.00    +0.000 NA
ATOM      4  C   UNL     1      43.711   3.833  11.074  0.00  0.00    +0.000 A 
ATOM      5  C   UNL     1      44.404   4.934  10.583  0.00  0.00    +0.000 A 
ATOM      6  C   UNL     1      45.174   4.733   9.441  0.00  0.00    +0.000 A 
ENDROOT
BRANCH   1   7
ATOM      7  C   UNL     1      46.029   3.269   7.574  0.00  0.00    +0.000 C 
BRANCH   7   8
ATOM      8  N   UNL     1      46.860   4.429   7.271  0.00  0.00    +0.000 NA
ATOM      9  H   UNL     1      46.301   5.122   6.776  0.00  0.00    +0.000 HD
ATOM     10  H   UNL     1      47.602   4.150   6.631  0.00  0.00    +0.000 HD
ENDBRANCH   7   8
ENDBRANCH   1   7
BRANCH   5  11
ATOM     11  O   UNL     1      44.267   6.117  11.258  0.00  0.00    +0.000 OA
BRANCH  11  12
ATOM     12  C   UNL     1      44.550   6.057  12.662  0.00  0.00    +0.000 C 
BRANCH  12  13
ATOM     13  C   UNL     1      46.057   5.947  12.886  0.00  0.00    +0.000 C 
BRANCH  13  14
ATOM     14  C   UNL     1      46.770   7.230  12.536  0.00  0.00    +0.000 A 
ATOM     15  C   UNL     1      48.053   7.201  11.981  0.00  0.00    +0.000 A 
ATOM     16  C   UNL     1      48.681   8.403  11.685  0.00  0.00    +0.000 A 
ATOM     17  N   UNL     1      48.128   9.614  11.909  0.00  0.00    +0.000 NA
ATOM     18  C   UNL     1      46.893   9.621  12.453  0.00  0.00    +0.000 A 
ATOM     19  C   UNL     1      46.185   8.474  12.783  0.00  0.00    +0.000 A 
ENDBRANCH  13  14
ENDBRANCH  12  13
ENDBRANCH  11  12
ENDBRANCH   5  11
TORSDOF 6
ENDMDL
MODEL 8
REMARK VINA RESULT:    -5.199      1.996      5.922
REMARK INTER + INTRA:          -7.351
REMARK INTER:                  -6.870
REMARK INTRA:                  -0.481
REMARK UNBOUND:                -0.480
REMARK  Name = 
REMARK  6 active torsions:
REMARK  status: ('A' for Active; 'I' for Inactive)
REMARK    1  A    between atoms: N_1  and  C_2
REMARK    2  A    between atoms: C_2  and  C_3
REMARK    3  A    between atoms: C_7  and  O_8
REMARK    4  A    between atoms: O_8  and  C_9
REMARK    5  A    between atoms: C_9  and  C_10
REMARK    6  A    between atoms: C_10  and  C_11
REMARK                            x       y       z     vdW  Elec       q    Type
REMARK                         _______ _______ _______ _____ _____    ______ ____
ROOT
ATOM      1  C   UNL     1      47.514   7.906  12.399  0.00  0.00    +0.000 A 
ATOM      2  C   UNL     1      48.467   7.029  12.896  0.00  0.00    +0.000 A 
ATOM      3  N   UNL     1      48.205   5.754  13.260  0.00  0.00    +0.000 NA
ATOM      4  C   UNL     1      46.923   5.332  13.114  0.00  0.00    +0.000 A 
ATOM      5  C   UNL     1      45.885   6.119  12.628  0.00  0.00    +0.000 A 
ATOM      6  C   UNL     1      46.202   7.427  12.271  0.00  0.00    +0.000 A 
ENDROOT
BRANCH   1   7
ATOM      7  C   UNL     1      47.862   9.303  11.975  0.00  0.00    +0.000 C 
BRANCH   7   8
ATOM      8  N   UNL     1      47.081  10.295  12.705  0.00  0.00    +0.000 NA
ATOM      9  H   UNL     1      46.831  11.055  12.074  0.00  0.00    +0.000 HD
ATOM     10  H   UNL     1      47.662  10.708  13.434  0.00  0.00    +0.000 HD
ENDBRANCH   7   8
ENDBRANCH   1   7
BRANCH   5  11
ATOM     11  O   UNL     1      44.646   5.544  12.539  0.00  0.00    +0.000 OA
BRANCH  11  12
ATOM     12  C   UNL     1      43.976   5.724  11.285  0.00  0.00    +0.000 C 
BRANCH  12  13
ATOM     13  C   UNL     1      43.468   4.380  10.767  0.00  0.00    +0.000 C 
BRANCH  13  14
ATOM     14  C   UNL     1      44.430   3.757   9.785  0.00  0.00    +0.000 A 
ATOM     15  C   UNL     1      45.205   4.560   8.944  0.00  0.00    +0.000 A 
ATOM     16  C   UNL     1      46.069   3.950   8.046  0.00  0.00    +0.000 A 
ATOM     17  N   UNL     1      46.203   2.612   7.924  0.00  0.00    +0.000 NA
ATOM     18  C   UNL     1      45.440   1.853   8.738  0.00  0.00    +0.000 A 
ATOM     19  C   UNL     1      44.548   2.370   9.668  0.00  0.00    +0.000 A 
ENDBRANCH  13  14
ENDBRANCH  12  13
ENDBRANCH  11  12
ENDBRANCH   5  11
TORSDOF 6
ENDMDL
MODEL 9
REMARK VINA RESULT:    -5.100      2.844      6.894
REMARK INTER + INTRA:          -7.220
REMARK INTER:                  -6.884
REMARK INTRA:                  -0.337
REMARK UNBOUND:                -0.480
REMARK  Name = 
REMARK  6 active torsions:
REMARK  status: ('A' for Active; 'I' for Inactive)
REMARK    1  A    between atoms: N_1  and  C_2
REMARK    2  A    between atoms: C_2  and  C_3
REMARK    3  A    between atoms: C_7  and  O_8
REMARK    4  A    between atoms: O_8  and  C_9
REMARK    5  A    between atoms: C_9  and  C_10
REMARK    6  A    between atoms: C_10  and  C_11
REMARK                            x       y       z     vdW  Elec       q    Type
REMARK                         _______ _______ _______ _____ _____    ______ ____
ROOT
ATOM      1  C   UNL     1      47.633   4.216  16.354  0.00  0.00    +0.000 A 
ATOM      2  C   UNL     1      48.498   5.260  16.646  0.00  0.00    +0.000 A 
ATOM      3  N   UNL     1      48.808   6.250  15.778  0.00  0.00    +0.000 NA
ATOM      4  C   UNL     1      48.216   6.195  14.558  0.00  0.00    +0.000 A 
ATOM      5  C   UNL     1      47.334   5.199  14.154  0.00  0.00    +0.000 A 
ATOM      6  C   UNL     1      47.050   4.198  15.078  0.00  0.00    +0.000 A 
ENDROOT
BRANCH   1   7
ATOM      7  C   UNL     1      47.293   3.158  17.364  0.00  0.00    +0.000 C 
BRANCH   7   8
ATOM      8  N   UNL     1      47.905   3.436  18.658  0.00  0.00    +0.000 NA
ATOM      9  H   UNL     1      48.158   4.422  18.705  0.00  0.00    +0.000 HD
ATOM     10  H   UNL     1      48.776   2.913  18.735  0.00  0.00    +0.000 HD
ENDBRANCH   7   8
ENDBRANCH   1   7
BRANCH   5  11
ATOM     11  O   UNL     1      46.820   5.289  12.888  0.00  0.00    +0.000 OA
BRANCH  11  12
ATOM     12  C   UNL     1      45.481   5.793  12.806  0.00  0.00    +0.000 C 
BRANCH  12  13
ATOM     13  C   UNL     1      45.161   6.191  11.366  0.00  0.00    +0.000 C 
BRANCH  13  14
ATOM     14  C   UNL     1      45.027   4.985  10.469  0.00  0.00    +0.000 A 
ATOM     15  C   UNL     1      45.563   4.996   9.178  0.00  0.00    +0.000 A 
ATOM     16  C   UNL     1      45.407   3.872   8.379  0.00  0.00    +0.000 A 
ATOM     17  N   UNL     1      44.754   2.758   8.771  0.00  0.00    +0.000 NA
ATOM     18  C   UNL     1      44.235   2.769  10.017  0.00  0.00    +0.000 A 
ATOM     19  C   UNL     1      44.339   3.844  10.889  0.00  0.00    +0.000 A 
ENDBRANCH  13  14
ENDBRANCH  12  13
ENDBRANCH  11  12
ENDBRANCH   5  11
TORSDOF 6
ENDMDL
