MODEL 1
REMARK VINA RESULT:    -7.372      0.000      0.000
REMARK INTER + INTRA:         -10.452
REMARK INTER:                  -9.527
REMARK INTRA:                  -0.925
REMARK UNBOUND:                -0.925
REMARK  Name = 
REMARK  5 active torsions:
REMARK  status: ('A' for Active; 'I' for Inactive)
REMARK    1  A    between atoms: C_2  and  C_3
REMARK    2  A    between atoms: C_7  and  C_8
REMARK    3  A    between atoms: C_8  and  C_9
REMARK    4  A    between atoms: C_9  and  C_10
REMARK    5  A    between atoms: C_14  and  C_15
REMARK                            x       y       z     vdW  Elec       q    Type
REMARK                         _______ _______ _______ _____ _____    ______ ____
ROOT
ATOM      1  C   UNL     1      45.199   4.525  11.678  0.00  0.00    +0.000 A 
ATOM      2  C   UNL     1      45.377   3.938  12.929  0.00  0.00    +0.000 A 
ATOM      3  C   UNL     1      46.236   4.548  13.825  0.00  0.00    +0.000 A 
ATOM      4  N   UNL     1      46.918   5.684  13.563  0.00  0.00    +0.000 NA
ATOM      5  C   UNL     1      46.712   6.292  12.374  0.00  0.00    +0.000 A 
ATOM      6  C   UNL     1      45.870   5.721  11.412  0.00  0.00    +0.000 A 
ENDROOT
BRANCH   5   7
ATOM      7  C   UNL     1      47.385   7.592  12.142  0.00  0.00    +0.000 A 
ATOM      8  C   UNL     1      48.735   7.601  11.714  0.00  0.00    +0.000 A 
ATOM      9  C   UNL     1      49.406   8.780  11.379  0.00  0.00    +0.000 A 
ATOM     10  C   UNL     1      48.752   9.998  11.485  0.00  0.00    +0.000 A 
ATOM     11  C   UNL     1      47.436  10.034  11.937  0.00  0.00    +0.000 A 
ATOM     12  C   UNL     1      46.754   8.850  12.265  0.00  0.00    +0.000 A 
ATOM     13 CL   UNL     1      45.104   9.064  12.756  0.00  0.00    +0.000 Cl
ENDBRANCH   5   7
BRANCH   1  14
ATOM     14  C   UNL     1      44.260   3.925  10.661  0.00  0.00    +0.000 C 
BRANCH  14  15
ATOM     15  C   UNL     1      44.441   4.514   9.255  0.00  0.00    +0.000 C 
BRANCH  15  20
ATOM     16  C   UNL     1      46.555   1.783   7.706  0.00  0.00    +0.000 A 
ATOM     17  C   UNL     1      47.398   2.537   6.896  0.00  0.00    +0.000 A 
ATOM     18  C   UNL     1      47.235   3.908   6.898  0.00  0.00    +0.000 A 
ATOM     19  N   UNL     1      46.305   4.549   7.638  0.00  0.00    +0.000 NA
ATOM     20  C   UNL     1      45.487   3.807   8.420  0.00  0.00    +0.000 A 
ATOM     21  C   UNL     1      45.586   2.421   8.481  0.00  0.00    +0.000 A 
BRANCH  16  23
ATOM     22  N   UNL     1      46.779  -0.799   7.778  0.00  0.00    +0.000 NA
ATOM     23  C   UNL     1      46.679   0.358   7.746  0.00  0.00    +0.000 C 
ENDBRANCH  16  23
ENDBRANCH  15  20
ENDBRANCH  14  15
ENDBRANCH   1  14
TORSDOF 5
ENDMDL
MODEL 2
REMARK VINA RESULT:    -6.748      1.544      2.361
REMARK INTER + INTRA:          -9.646
REMARK INTER:                  -8.957
REMARK INTRA:                  -0.688
REMARK UNBOUND:                -0.925
REMARK  Name = 
REMARK  5 active torsions:
REMARK  status: ('A' for Active; 'I' for Inactive)
REMARK    1  A    between atoms: C_2  and  C_3
REMARK    2  A    between atoms: C_7  and  C_8
REMARK    3  A    between atoms: C_8  and  C_9
REMARK    4  A    between atoms: C_9  and  C_10
REMARK    5  A    between atoms: C_14  and  C_15
REMARK                            x       y       z     vdW  Elec       q    Type
REMARK                         _______ _______ _______ _____ _____    ______ ____
ROOT
ATOM      1  C   UNL     1      45.112   5.489  12.882  0.00  0.00    +0.000 A 
ATOM      2  C   UNL     1      45.709   4.540  13.707  0.00  0.00    +0.000 A 
ATOM      3  C   UNL     1      47.059   4.665  13.985  0.00  0.00    +0.000 A 
ATOM      4  N   UNL     1      47.839   5.657  13.504  0.00  0.00    +0.000 NA
ATOM      5  C   UNL     1      47.259   6.616  12.748  0.00  0.00    +0.000 A 
ATOM      6  C   UNL     1      45.902   6.542  12.412  0.00  0.00    +0.000 A 
ENDROOT
BRANCH   5   7
ATOM      7  C   UNL     1      48.105   7.754  12.316  0.00  0.00    +0.000 A 
ATOM      8  C   UNL     1      49.456   7.514  11.968  0.00  0.00    +0.000 A 
ATOM      9  C   UNL     1      50.286   8.515  11.456  0.00  0.00    +0.000 A 
ATOM     10  C   UNL     1      49.795   9.802  11.298  0.00  0.00    +0.000 A 
ATOM     11  C   UNL     1      48.483  10.086  11.664  0.00  0.00    +0.000 A 
ATOM     12  C   UNL     1      47.641   9.080  12.168  0.00  0.00    +0.000 A 
ATOM     13 CL   UNL     1      46.019   9.586  12.520  0.00  0.00    +0.000 Cl
ENDBRANCH   5   7
BRANCH   1  14
ATOM     14  C   UNL     1      43.640   5.426  12.556  0.00  0.00    +0.000 C 
BRANCH  14  15
ATOM     15  C   UNL     1      43.355   5.459  11.048  0.00  0.00    +0.000 C 
BRANCH  15  20
ATOM     16  C   UNL     1      45.258   3.436   8.477  0.00  0.00    +0.000 A 
ATOM     17  C   UNL     1      44.978   2.143   8.908  0.00  0.00    +0.000 A 
ATOM     18  C   UNL     1      44.175   1.995  10.021  0.00  0.00    +0.000 A 
ATOM     19  N   UNL     1      43.653   3.033  10.710  0.00  0.00    +0.000 NA
ATOM     20  C   UNL     1      43.934   4.288  10.286  0.00  0.00    +0.000 A 
ATOM     21  C   UNL     1      44.731   4.526   9.171  0.00  0.00    +0.000 A 
BRANCH  16  23
ATOM     22  N   UNL     1      46.754   3.824   6.396  0.00  0.00    +0.000 NA
ATOM     23  C   UNL     1      46.083   3.650   7.329  0.00  0.00    +0.000 C 
ENDBRANCH  16  23
ENDBRANCH  15  20
ENDBRANCH  14  15
ENDBRANCH   1  14
TORSDOF 5
ENDMDL
MODEL 3
REMARK VINA RESULT:    -6.657      3.094      7.333
REMARK INTER + INTRA:          -9.527
REMARK INTER:                  -8.612
REMARK INTRA:                  -0.915
REMARK UNBOUND:                -0.925
REMARK  Name = 
REMARK  5 active torsions:
REMARK  status: ('A' for Active; 'I' for Inactive)
REMARK    1  A    between atoms: C_2  and  C_3
REMARK    2  A    between atoms: C_7  and  C_8
REMARK    3  A    between atoms: C_8  and  C_9
REMARK    4  A    between atoms: C_9  and  C_10
REMARK    5  A    between atoms: C_14  and  C_15
REMARK                            x       y       z     vdW  Elec       q    Type
REMARK                         _______ _______ _______ _____ _____    ______ ____
ROOT
ATOM      1  C   UNL     1      47.471   7.362  12.645  0.00  0.00    +0.000 A 
ATOM      2  C   UNL     1      46.530   8.327  12.992  0.00  0.00    +0.000 A 
ATOM      3  C   UNL     1      45.247   8.206  12.488  0.00  0.00    +0.000 A 
ATOM      4  N   UNL     1      44.848   7.205  11.674  0.00  0.00    +0.000 NA
ATOM      5  C   UNL     1      45.737   6.232  11.376  0.00  0.00    +0.000 A 
ATOM      6  C   UNL     1      47.057   6.300  11.836  0.00  0.00    +0.000 A 
ENDROOT
BRANCH   5   7
ATOM      7  C   UNL     1      45.255   5.085  10.569  0.00  0.00    +0.000 A 
ATOM      8  C   UNL     1      45.614   5.006   9.201  0.00  0.00    +0.000 A 
ATOM      9  C   UNL     1      45.284   3.908   8.404  0.00  0.00    +0.000 A 
ATOM     10  C   UNL     1      44.558   2.858   8.945  0.00  0.00    +0.000 A 
ATOM     11  C   UNL     1      44.155   2.916  10.275  0.00  0.00    +0.000 A 
ATOM     12  C   UNL     1      44.495   4.012  11.085  0.00  0.00    +0.000 A 
ATOM     13 CL   UNL     1      43.966   3.902  12.733  0.00  0.00    +0.000 Cl
ENDBRANCH   5   7
BRANCH   1  14
ATOM     14  C   UNL     1      48.882   7.420  13.178  0.00  0.00    +0.000 C 
BRANCH  14  15
ATOM     15  C   UNL     1      48.954   7.884  14.640  0.00  0.00    +0.000 C 
BRANCH  15  20
ATOM     16  C   UNL     1      48.481   4.828  16.821  0.00  0.00    +0.000 A 
ATOM     17  C   UNL     1      49.730   4.749  17.429  0.00  0.00    +0.000 A 
ATOM     18  C   UNL     1      50.669   5.705  17.097  0.00  0.00    +0.000 A 
ATOM     19  N   UNL     1      50.440   6.704  16.217  0.00  0.00    +0.000 NA
ATOM     20  C   UNL     1      49.224   6.770  15.627  0.00  0.00    +0.000 A 
ATOM     21  C   UNL     1      48.219   5.850  15.908  0.00  0.00    +0.000 A 
BRANCH  16  23
ATOM     22  N   UNL     1      46.647   3.083  17.377  0.00  0.00    +0.000 NA
ATOM     23  C   UNL     1      47.469   3.865  17.128  0.00  0.00    +0.000 C 
ENDBRANCH  16  23
ENDBRANCH  15  20
ENDBRANCH  14  15
ENDBRANCH   1  14
TORSDOF 5
ENDMDL
MODEL 4
REMARK VINA RESULT:    -6.524      2.860      7.034
REMARK INTER + INTRA:          -9.355
REMARK INTER:                  -8.556
REMARK INTRA:                  -0.799
REMARK UNBOUND:                -0.925
REMARK  Name = 
REMARK  5 active torsions:
REMARK  status: ('A' for Active; 'I' for Inactive)
REMARK    1  A    between atoms: C_2  and  C_3
REMARK    2  A    between atoms: C_7  and  C_8
REMARK    3  A    between atoms: C_8  and  C_9
REMARK    4  A    between atoms: C_9  and  C_10
REMARK    5  A    between atoms: C_14  and  C_15
REMARK                            x       y       z     vdW  Elec       q    Type
REMARK                         _______ _______ _______ _____ _____    ______ ____
ROOT
ATOM      1  C   UNL     1      45.317   6.784  11.709  0.00  0.00    +0.000 A 
ATOM      2  C   UNL     1      43.948   6.856  11.954  0.00  0.00    +0.000 A 
ATOM      3  C   UNL     1      43.107   6.023  11.239  0.00  0.00    +0.000 A 
ATOM      4  N   UNL     1      43.532   5.138  10.311  0.00  0.00    +0.000 NA
ATOM      5  C   UNL     1      44.862   5.019  10.105  0.00  0.00    +0.000 A 
ATOM      6  C   UNL     1      45.770   5.843  10.780  0.00  0.00    +0.000 A 
ENDROOT
BRANCH   5   7
ATOM      7  C   UNL     1      45.320   3.970   9.162  0.00  0.00    +0.000 A 
ATOM      8  C   UNL     1      46.160   4.335   8.082  0.00  0.00    +0.000 A 
ATOM      9  C   UNL     1      46.712   3.391   7.213  0.00  0.00    +0.000 A 
ATOM     10  C   UNL     1      46.421   2.046   7.381  0.00  0.00    +0.000 A 
ATOM     11  C   UNL     1      45.569   1.652   8.409  0.00  0.00    +0.000 A 
ATOM     12  C   UNL     1      45.021   2.596   9.293  0.00  0.00    +0.000 A 
ATOM     13 CL   UNL     1      44.028   1.935  10.553  0.00  0.00    +0.000 Cl
ENDBRANCH   5   7
BRANCH   1  14
ATOM     14  C   UNL     1      46.293   7.648  12.470  0.00  0.00    +0.000 C 
BRANCH  14  15
ATOM     15  C   UNL     1      47.710   7.059  12.514  0.00  0.00    +0.000 C 
BRANCH  15  20
ATOM     16  C   UNL     1      47.924   5.243  15.828  0.00  0.00    +0.000 A 
ATOM     17  C   UNL     1      48.999   5.903  16.415  0.00  0.00    +0.000 A 
ATOM     18  C   UNL     1      49.603   6.915  15.696  0.00  0.00    +0.000 A 
ATOM     19  N   UNL     1      49.207   7.294  14.461  0.00  0.00    +0.000 NA
ATOM     20  C   UNL     1      48.163   6.644  13.897  0.00  0.00    +0.000 A 
ATOM     21  C   UNL     1      47.496   5.615  14.553  0.00  0.00    +0.000 A 
BRANCH  16  23
ATOM     22  N   UNL     1      46.718   3.328  17.093  0.00  0.00    +0.000 NA
ATOM     23  C   UNL     1      47.259   4.187  16.526  0.00  0.00    +0.000 C 
ENDBRANCH  16  23
ENDBRANCH  15  20
ENDBRANCH  14  15
ENDBRANCH   1  14
TORSDOF 5
ENDMDL
MODEL 5
REMARK VINA RESULT:    -6.293      4.722      7.750
REMARK INTER + INTRA:          -9.057
REMARK INTER:                  -8.213
REMARK INTRA:                  -0.844
REMARK UNBOUND:                -0.925
REMARK  Name = 
REMARK  5 active torsions:
REMARK  status: ('A' for Active; 'I' for Inactive)
REMARK    1  A    between atoms: C_2  and  C_3
REMARK    2  A    between atoms: C_7  and  C_8
REMARK    3  A    between atoms: C_8  and  C_9
REMARK    4  A    between atoms: C_9  and  C_10
REMARK    5  A    between atoms: C_14  and  C_15
REMARK                            x       y       z     vdW  Elec       q    Type
REMARK                         _______ _______ _______ _____ _____    ______ ____
ROOT
ATOM      1  C   UNL     1      45.109   8.840  11.999  0.00  0.00    +0.000 A 
ATOM      2  C   UNL     1      46.241   8.768  12.806  0.00  0.00    +0.000 A 
ATOM      3  C   UNL     1      46.866   7.542  12.956  0.00  0.00    +0.000 A 
ATOM      4  N   UNL     1      46.443   6.404  12.366  0.00  0.00    +0.000 NA
ATOM      5  C   UNL     1      45.378   6.471  11.537  0.00  0.00    +0.000 A 
ATOM      6  C   UNL     1      44.687   7.675  11.353  0.00  0.00    +0.000 A 
ENDROOT
BRANCH   5   7
ATOM      7  C   UNL     1      44.991   5.236  10.814  0.00  0.00    +0.000 A 
ATOM      8  C   UNL     1      45.470   5.030   9.497  0.00  0.00    +0.000 A 
ATOM      9  C   UNL     1      45.232   3.848   8.792  0.00  0.00    +0.000 A 
ATOM     10  C   UNL     1      44.481   2.838   9.374  0.00  0.00    +0.000 A 
ATOM     11  C   UNL     1      43.962   3.018  10.652  0.00  0.00    +0.000 A 
ATOM     12  C   UNL     1      44.209   4.200  11.371  0.00  0.00    +0.000 A 
ATOM     13 CL   UNL     1      43.539   4.241  12.971  0.00  0.00    +0.000 Cl
ENDBRANCH   5   7
BRANCH   1  14
ATOM     14  C   UNL     1      44.393  10.149  11.773  0.00  0.00    +0.000 C 
BRANCH  14  15
ATOM     15  C   UNL     1      43.979  10.364  10.311  0.00  0.00    +0.000 C 
BRANCH  15  20
ATOM     16  C   UNL     1      40.221  10.688  10.622  0.00  0.00    +0.000 A 
ATOM     17  C   UNL     1      39.989  11.795   9.812  0.00  0.00    +0.000 A 
ATOM     18  C   UNL     1      41.078  12.382   9.199  0.00  0.00    +0.000 A 
ATOM     19  N   UNL     1      42.346  11.942   9.345  0.00  0.00    +0.000 NA
ATOM     20  C   UNL     1      42.562  10.867  10.138  0.00  0.00    +0.000 A 
ATOM     21  C   UNL     1      41.522  10.213  10.791  0.00  0.00    +0.000 A 
BRANCH  16  23
ATOM     22  N   UNL     1      38.246   9.509  11.818  0.00  0.00    +0.000 NA
ATOM     23  C   UNL     1      39.131  10.038  11.282  0.00  0.00    +0.000 C 
ENDBRANCH  16  23
ENDBRANCH  15  20
ENDBRANCH  14  15
ENDBRANCH   1  14
TORSDOF 5
ENDMDL
MODEL 6
REMARK VINA RESULT:    -6.283      2.576      4.621
REMARK INTER + INTRA:          -9.044
REMARK INTER:                  -8.251
REMARK INTRA:                  -0.793
REMARK UNBOUND:                -0.925
REMARK  Name = 
REMARK  5 active torsions:
REMARK  status: ('A' for Active; 'I' for Inactive)
REMARK    1  A    between atoms: C_2  and  C_3
REMARK    2  A    between atoms: C_7  and  C_8
REMARK    3  A    between atoms: C_8  and  C_9
REMARK    4  A    between atoms: C_9  and  C_10
REMARK    5  A    between atoms: C_14  and  C_15
REMARK                            x       y       z     vdW  Elec       q    Type
REMARK                         _______ _______ _______ _____ _____    ______ ____
ROOT
ATOM      1  C   UNL     1      46.411   6.877  12.159  0.00  0.00    +0.000 A 
ATOM      2  C   UNL     1      47.598   7.255  11.536  0.00  0.00    +0.000 A 
ATOM      3  C   UNL     1      48.788   7.057  12.214  0.00  0.00    +0.000 A 
ATOM      4  N   UNL     1      48.871   6.518  13.449  0.00  0.00    +0.000 NA
ATOM      5  C   UNL     1      47.731   6.096  14.040  0.00  0.00    +0.000 A 
ATOM      6  C   UNL     1      46.490   6.282  13.420  0.00  0.00    +0.000 A 
ENDROOT
BRANCH   5   7
ATOM      7  C   UNL     1      47.850   5.410  15.350  0.00  0.00    +0.000 A 
ATOM      8  C   UNL     1      47.352   4.091  15.483  0.00  0.00    +0.000 A 
ATOM      9  C   UNL     1      47.516   3.345  16.652  0.00  0.00    +0.000 A 
ATOM     10  C   UNL     1      48.167   3.905  17.741  0.00  0.00    +0.000 A 
ATOM     11  C   UNL     1      48.638   5.212  17.661  0.00  0.00    +0.000 A 
ATOM     12  C   UNL     1      48.485   5.963  16.484  0.00  0.00    +0.000 A 
ATOM     13 CL   UNL     1      49.179   7.552  16.529  0.00  0.00    +0.000 Cl
ENDBRANCH   5   7
BRANCH   1  14
ATOM     14  C   UNL     1      45.080   7.043  11.468  0.00  0.00    +0.000 C 
BRANCH  14  15
ATOM     15  C   UNL     1      44.105   5.892  11.753  0.00  0.00    +0.000 C 
BRANCH  15  20
ATOM     16  C   UNL     1      45.203   3.681   8.884  0.00  0.00    +0.000 A 
ATOM     17  C   UNL     1      44.674   2.457   9.285  0.00  0.00    +0.000 A 
ATOM     18  C   UNL     1      43.979   2.416  10.477  0.00  0.00    +0.000 A 
ATOM     19  N   UNL     1      43.790   3.493  11.270  0.00  0.00    +0.000 NA
ATOM     20  C   UNL     1      44.311   4.678  10.874  0.00  0.00    +0.000 A 
ATOM     21  C   UNL     1      45.021   4.809   9.685  0.00  0.00    +0.000 A 
BRANCH  16  23
ATOM     22  N   UNL     1      46.522   3.868   6.661  0.00  0.00    +0.000 NA
ATOM     23  C   UNL     1      45.931   3.784   7.658  0.00  0.00    +0.000 C 
ENDBRANCH  16  23
ENDBRANCH  15  20
ENDBRANCH  14  15
ENDBRANCH   1  14
TORSDOF 5
ENDMDL
MODEL 7
REMARK VINA RESULT:    -5.973      3.245      8.071
REMARK INTER + INTRA:          -8.644
REMARK INTER:                  -7.725
REMARK INTRA:                  -0.919
REMARK UNBOUND:                -0.925
REMARK  Name = 
REMARK  5 active torsions:
REMARK  status: ('A' for Active; 'I' for Inactive)
REMARK    1  A    between atoms: C_2  and  C_3
REMARK    2  A    between atoms: C_7  and  C_8
REMARK    3  A    between atoms: C_8  and  C_9
REMARK    4  A    between atoms: C_9  and  C_10
REMARK    5  A    between atoms: C_14  and  C_15
REMARK                            x       y       z     vdW  Elec       q    Type
REMARK                         _______ _______ _______ _____ _____    ______ ____
ROOT
ATOM      1  C   UNL     1      47.249   7.867  12.227  0.00  0.00    +0.000 A 
ATOM      2  C   UNL     1      46.220   8.762  12.503  0.00  0.00    +0.000 A 
ATOM      3  C   UNL     1      44.947   8.461  12.051  0.00  0.00    +0.000 A 
ATOM      4  N   UNL     1      44.638   7.346  11.355  0.00  0.00    +0.000 NA
ATOM      5  C   UNL     1      45.617   6.443  11.129  0.00  0.00    +0.000 A 
ATOM      6  C   UNL     1      46.932   6.691  11.541  0.00  0.00    +0.000 A 
ENDROOT
BRANCH   5   7
ATOM      7  C   UNL     1      45.241   5.176  10.456  0.00  0.00    +0.000 A 
ATOM      8  C   UNL     1      45.596   4.986   9.098  0.00  0.00    +0.000 A 
ATOM      9  C   UNL     1      45.366   3.783   8.427  0.00  0.00    +0.000 A 
ATOM     10  C   UNL     1      44.748   2.733   9.088  0.00  0.00    +0.000 A 
ATOM     11  C   UNL     1      44.351   2.894  10.412  0.00  0.00    +0.000 A 
ATOM     12  C   UNL     1      44.591   4.098  11.095  0.00  0.00    +0.000 A 
ATOM     13 CL   UNL     1      44.087   4.114  12.755  0.00  0.00    +0.000 Cl
ENDBRANCH   5   7
BRANCH   1  14
ATOM     14  C   UNL     1      48.656   8.122  12.709  0.00  0.00    +0.000 C 
BRANCH  14  15
ATOM     15  C   UNL     1      49.224   6.967  13.547  0.00  0.00    +0.000 C 
BRANCH  15  20
ATOM     16  C   UNL     1      48.448   8.507  16.916  0.00  0.00    +0.000 A 
ATOM     17  C   UNL     1      48.682   7.422  17.756  0.00  0.00    +0.000 A 
ATOM     18  C   UNL     1      49.087   6.236  17.176  0.00  0.00    +0.000 A 
ATOM     19  N   UNL     1      49.264   6.075  15.847  0.00  0.00    +0.000 NA
ATOM     20  C   UNL     1      49.030   7.134  15.038  0.00  0.00    +0.000 A 
ATOM     21  C   UNL     1      48.622   8.367  15.539  0.00  0.00    +0.000 A 
BRANCH  16  23
ATOM     22  N   UNL     1      47.686  10.780  17.902  0.00  0.00    +0.000 NA
ATOM     23  C   UNL     1      48.028   9.761  17.460  0.00  0.00    +0.000 C 
ENDBRANCH  16  23
ENDBRANCH  15  20
ENDBRANCH  14  15
ENDBRANCH   1  14
TORSDOF 5
ENDMDL
MODEL 8
REMARK VINA RESULT:    -5.832      2.339      3.888
REMARK INTER + INTRA:          -8.461
REMARK INTER:                  -7.579
REMARK INTRA:                  -0.882
REMARK UNBOUND:                -0.925
REMARK  Name = 
REMARK  5 active torsions:
REMARK  status: ('A' for Active; 'I' for Inactive)
REMARK    1  A    between atoms: C_2  and  C_3
REMARK    2  A    between atoms: C_7  and  C_8
REMARK    3  A    between atoms: C_8  and  C_9
REMARK    4  A    between atoms: C_9  and  C_10
REMARK    5  A    between atoms: C_14  and  C_15
REMARK                            x       y       z     vdW  Elec       q    Type
REMARK                         _______ _______ _______ _____ _____    ______ ____
ROOT
ATOM      1  C   UNL     1      47.024   7.226  12.350  0.00  0.00    +0.000 A 
ATOM      2  C   UNL     1      47.236   6.748  13.640  0.00  0.00    +0.000 A 
ATOM      3  C   UNL     1      48.531   6.712  14.124  0.00  0.00    +0.000 A 
ATOM      4  N   UNL     1      49.611   7.114  13.419  0.00  0.00    +0.000 NA
ATOM      5  C   UNL     1      49.412   7.633  12.188  0.00  0.00    +0.000 A 
ATOM      6  C   UNL     1      48.130   7.682  11.628  0.00  0.00    +0.000 A 
ENDROOT
BRANCH   5   7
ATOM      7  C   UNL     1      50.594   8.167  11.469  0.00  0.00    +0.000 A 
ATOM      8  C   UNL     1      51.335   7.304  10.626  0.00  0.00    +0.000 A 
ATOM      9  C   UNL     1      52.397   7.757   9.839  0.00  0.00    +0.000 A 
ATOM     10  C   UNL     1      52.771   9.091   9.890  0.00  0.00    +0.000 A 
ATOM     11  C   UNL     1      52.090   9.963  10.735  0.00  0.00    +0.000 A 
ATOM     12  C   UNL     1      51.014   9.515  11.518  0.00  0.00    +0.000 A 
ATOM     13 CL   UNL     1      50.237  10.739  12.471  0.00  0.00    +0.000 Cl
ENDBRANCH   5   7
BRANCH   1  14
ATOM     14  C   UNL     1      45.634   7.314  11.768  0.00  0.00    +0.000 C 
BRANCH  14  15
ATOM     15  C   UNL     1      44.691   6.225  12.296  0.00  0.00    +0.000 C 
BRANCH  15  20
ATOM     16  C   UNL     1      45.082   3.918   9.321  0.00  0.00    +0.000 A 
ATOM     17  C   UNL     1      44.321   2.830   9.736  0.00  0.00    +0.000 A 
ATOM     18  C   UNL     1      43.712   2.905  10.973  0.00  0.00    +0.000 A 
ATOM     19  N   UNL     1      43.818   3.972  11.795  0.00  0.00    +0.000 NA
ATOM     20  C   UNL     1      44.564   5.024  11.384  0.00  0.00    +0.000 A 
ATOM     21  C   UNL     1      45.208   5.032  10.151  0.00  0.00    +0.000 A 
BRANCH  16  23
ATOM     22  N   UNL     1      46.265   3.880   7.015  0.00  0.00    +0.000 NA
ATOM     23  C   UNL     1      45.735   3.897   8.048  0.00  0.00    +0.000 C 
ENDBRANCH  16  23
ENDBRANCH  15  20
ENDBRANCH  14  15
ENDBRANCH   1  14
TORSDOF 5
ENDMDL
MODEL 9
REMARK VINA RESULT:    -5.823      3.277      5.750
REMARK INTER + INTRA:          -8.449
REMARK INTER:                  -8.184
REMARK INTRA:                  -0.265
REMARK UNBOUND:                -0.925
REMARK  Name = 
REMARK  5 active torsions:
REMARK  status: ('A' for Active; 'I' for Inactive)
REMARK    1  A    between atoms: C_2  and  C_3
REMARK    2  A    between atoms: C_7  and  C_8
REMARK    3  A    between atoms: C_8  and  C_9
REMARK    4  A    between atoms: C_9  and  C_10
REMARK    5  A    between atoms: C_14  and  C_15
REMARK                            x       y       z     vdW  Elec       q    Type
REMARK                         _______ _______ _______ _____ _____    ______ ____
ROOT
ATOM      1  C   UNL     1      47.978   6.974  12.977  0.00  0.00    +0.000 A 
ATOM      2  C   UNL     1      49.135   7.747  12.953  0.00  0.00    +0.000 A 
ATOM      3  C   UNL     1      49.995   7.678  14.035  0.00  0.00    +0.000 A 
ATOM      4  N   UNL     1      49.781   6.902  15.120  0.00  0.00    +0.000 NA
ATOM      5  C   UNL     1      48.690   6.105  15.129  0.00  0.00    +0.000 A 
ATOM      6  C   UNL     1      47.768   6.138  14.077  0.00  0.00    +0.000 A 
ENDROOT
BRANCH   5   7
ATOM      7  C   UNL     1      48.524   5.182  16.278  0.00  0.00    +0.000 A 
ATOM      8  C   UNL     1      47.477   4.229  16.249  0.00  0.00    +0.000 A 
ATOM      9  C   UNL     1      47.319   3.261  17.244  0.00  0.00    +0.000 A 
ATOM     10  C   UNL     1      48.193   3.232  18.320  0.00  0.00    +0.000 A 
ATOM     11  C   UNL     1      49.213   4.175  18.403  0.00  0.00    +0.000 A 
ATOM     12  C   UNL     1      49.383   5.142  17.399  0.00  0.00    +0.000 A 
ATOM     13 CL   UNL     1      50.735   6.206  17.623  0.00  0.00    +0.000 Cl
ENDBRANCH   5   7
BRANCH   1  14
ATOM     14  C   UNL     1      47.009   6.984  11.820  0.00  0.00    +0.000 C 
BRANCH  14  15
ATOM     15  C   UNL     1      45.542   7.065  12.266  0.00  0.00    +0.000 C 
BRANCH  15  20
ATOM     16  C   UNL     1      44.363   3.684  11.040  0.00  0.00    +0.000 A 
ATOM     17  C   UNL     1      43.426   3.366  12.020  0.00  0.00    +0.000 A 
ATOM     18  C   UNL     1      43.224   4.279  13.036  0.00  0.00    +0.000 A 
ATOM     19  N   UNL     1      43.884   5.454  13.128  0.00  0.00    +0.000 NA
ATOM     20  C   UNL     1      44.795   5.752  12.173  0.00  0.00    +0.000 A 
ATOM     21  C   UNL     1      45.059   4.891  11.113  0.00  0.00    +0.000 A 
BRANCH  16  23
ATOM     22  N   UNL     1      44.818   2.040   9.088  0.00  0.00    +0.000 NA
ATOM     23  C   UNL     1      44.614   2.777   9.963  0.00  0.00    +0.000 C 
ENDBRANCH  16  23
ENDBRANCH  15  20
ENDBRANCH  14  15
ENDBRANCH   1  14
TORSDOF 5
ENDMDL
