MODEL 1
REMARK VINA RESULT:    -8.022      0.000      0.000
REMARK INTER + INTRA:         -12.583
REMARK INTER:                 -11.304
REMARK INTRA:                  -1.278
REMARK UNBOUND:                -1.278
REMARK  Name = 
REMARK  8 active torsions:
REMARK  status: ('A' for Active; 'I' for Inactive)
REMARK    1  A    between atoms: C_1  and  N_2
REMARK    2  A    between atoms: C_4  and  C_5
REMARK    3  A    between atoms: N_7  and  C_8
REMARK    4  A    between atoms: C_8  and  C_9
REMARK    5  A    between atoms: C_12  and  C_13
REMARK    6  A    between atoms: C_13  and  N_14
REMARK    7  A    between atoms: N_14  and  C_15
REMARK    8  A    between atoms: C_15  and  C_16
REMARK                            x       y       z     vdW  Elec       q    Type
REMARK                         _______ _______ _______ _____ _____    ______ ____
ROOT
ATOM      1  C   UNL     1      46.903   7.757  13.038  0.00  0.00    +0.000 C 
ENDROOT
BRANCH   1   2
ATOM      2  C   UNL     1      46.034   6.674  12.459  0.00  0.00    +0.000 A 
ATOM      3  C   UNL     1      46.050   6.409  11.083  0.00  0.00    +0.000 A 
ATOM      4  C   UNL     1      45.263   5.387  10.547  0.00  0.00    +0.000 A 
ATOM      5  C   UNL     1      44.439   4.609  11.374  0.00  0.00    +0.000 A 
ATOM      6  C   UNL     1      44.408   4.890  12.746  0.00  0.00    +0.000 A 
ATOM      7  C   UNL     1      45.194   5.915  13.282  0.00  0.00    +0.000 A 
BRANCH   5   8
ATOM      8  C   UNL     1      43.596   3.492  10.798  0.00  0.00    +0.000 C 
BRANCH   8   9
ATOM      9  N   UNL     1      43.948   3.232   9.405  0.00  0.00    +0.000 NA
ATOM     10  H   UNL     1      44.540   3.993   9.068  0.00  0.00    +0.000 HD
BRANCH   9  11
ATOM     11  C   UNL     1      44.706   1.980   9.278  0.00  0.00    +0.000 C 
BRANCH  11  12
ATOM     12  C   UNL     1      45.779   2.072   8.210  0.00  0.00    +0.000 A 
ATOM     13  C   UNL     1      45.942   3.248   7.479  0.00  0.00    +0.000 A 
ATOM     14  C   UNL     1      46.947   3.312   6.518  0.00  0.00    +0.000 A 
ATOM     15  C   UNL     1      47.757   2.204   6.308  0.00  0.00    +0.000 A 
ATOM     16  C   UNL     1      47.527   1.072   7.073  0.00  0.00    +0.000 A 
ATOM     17  N   UNL     1      46.563   0.980   8.015  0.00  0.00    +0.000 NA
ENDBRANCH  11  12
ENDBRANCH   9  11
ENDBRANCH   8   9
ENDBRANCH   5   8
ENDBRANCH   1   2
BRANCH   1  20
ATOM     18  C   UNL     1      48.703   6.969  14.489  0.00  0.00    +0.000 C 
ATOM     19  O   UNL     1      49.439   6.789  13.528  0.00  0.00    +0.000 OA
ATOM     20  N   UNL     1      47.405   7.409  14.346  0.00  0.00    +0.000 N 
ATOM     21  H   UNL     1      46.853   7.642  15.159  0.00  0.00    +0.000 HD
BRANCH  18  25
ATOM     22  C   UNL     1      50.817   7.664  18.953  0.00  0.00    +0.000 C 
ATOM     23  N   UNL     1      50.075   7.062  17.869  0.00  0.00    +0.000 N 
ATOM     24  C   UNL     1      49.933   7.581  16.611  0.00  0.00    +0.000 A 
ATOM     25  C   UNL     1      49.126   6.726  15.866  0.00  0.00    +0.000 A 
ATOM     26  C   UNL     1      48.782   5.627  16.737  0.00  0.00    +0.000 A 
ATOM     27  C   UNL     1      48.063   4.434  16.708  0.00  0.00    +0.000 A 
ATOM     28 CL   UNL     1      47.312   3.883  15.293  0.00  0.00    +0.000 Cl
ATOM     29  N   UNL     1      47.980   3.617  17.775  0.00  0.00    +0.000 NA
ATOM     30  C   UNL     1      48.619   4.003  18.886  0.00  0.00    +0.000 A 
ATOM     31  N   UNL     1      49.348   5.112  19.065  0.00  0.00    +0.000 NA
ATOM     32  C   UNL     1      49.395   5.881  17.962  0.00  0.00    +0.000 A 
ENDBRANCH  18  25
ENDBRANCH   1  20
TORSDOF 7
ENDMDL
MODEL 2
REMARK VINA RESULT:    -7.761      1.541      1.693
REMARK INTER + INTRA:         -12.215
REMARK INTER:                 -11.244
REMARK INTRA:                  -0.971
REMARK UNBOUND:                -1.278
REMARK  Name = 
REMARK  8 active torsions:
REMARK  status: ('A' for Active; 'I' for Inactive)
REMARK    1  A    between atoms: C_1  and  N_2
REMARK    2  A    between atoms: C_4  and  C_5
REMARK    3  A    between atoms: N_7  and  C_8
REMARK    4  A    between atoms: C_8  and  C_9
REMARK    5  A    between atoms: C_12  and  C_13
REMARK    6  A    between atoms: C_13  and  N_14
REMARK    7  A    between atoms: N_14  and  C_15
REMARK    8  A    between atoms: C_15  and  C_16
REMARK                            x       y       z     vdW  Elec       q    Type
REMARK                         _______ _______ _______ _____ _____    ______ ____
ROOT
ATOM      1  C   UNL     1      48.177   6.703  13.536  0.00  0.00    +0.000 C 
ENDROOT
BRANCH   1   2
ATOM      2  C   UNL     1      46.975   6.092  12.870  0.00  0.00    +0.000 A 
ATOM      3  C   UNL     1      46.605   6.479  11.575  0.00  0.00    +0.000 A 
ATOM      4  C   UNL     1      45.504   5.893  10.945  0.00  0.00    +0.000 A 
ATOM      5  C   UNL     1      44.745   4.909  11.597  0.00  0.00    +0.000 A 
ATOM      6  C   UNL     1      45.103   4.540  12.900  0.00  0.00    +0.000 A 
ATOM      7  C   UNL     1      46.204   5.128  13.531  0.00  0.00    +0.000 A 
BRANCH   5   8
ATOM      8  C   UNL     1      43.561   4.264  10.913  0.00  0.00    +0.000 C 
BRANCH   8   9
ATOM      9  N   UNL     1      43.893   3.872   9.545  0.00  0.00    +0.000 NA
ATOM     10  H   UNL     1      44.580   4.529   9.173  0.00  0.00    +0.000 HD
BRANCH   9  11
ATOM     11  C   UNL     1      44.489   2.530   9.513  0.00  0.00    +0.000 C 
BRANCH  11  12
ATOM     12  C   UNL     1      45.545   2.404   8.431  0.00  0.00    +0.000 A 
ATOM     13  C   UNL     1      45.862   3.499   7.630  0.00  0.00    +0.000 A 
ATOM     14  C   UNL     1      46.848   3.362   6.657  0.00  0.00    +0.000 A 
ATOM     15  C   UNL     1      47.488   2.139   6.506  0.00  0.00    +0.000 A 
ATOM     16  C   UNL     1      47.112   1.098   7.340  0.00  0.00    +0.000 A 
ATOM     17  N   UNL     1      46.162   1.201   8.295  0.00  0.00    +0.000 NA
ENDBRANCH  11  12
ENDBRANCH   9  11
ENDBRANCH   8   9
ENDBRANCH   5   8
ENDBRANCH   1   2
BRANCH   1  20
ATOM     18  C   UNL     1      49.047   6.860  15.813  0.00  0.00    +0.000 C 
ATOM     19  O   UNL     1      50.179   6.590  15.431  0.00  0.00    +0.000 OA
ATOM     20  N   UNL     1      47.972   6.899  14.951  0.00  0.00    +0.000 N 
ATOM     21  H   UNL     1      47.071   7.219  15.275  0.00  0.00    +0.000 HD
BRANCH  18  25
ATOM     22  C   UNL     1      47.571   9.339  19.881  0.00  0.00    +0.000 C 
ATOM     23  N   UNL     1      48.055   8.282  19.023  0.00  0.00    +0.000 N 
ATOM     24  C   UNL     1      48.309   8.392  17.683  0.00  0.00    +0.000 A 
ATOM     25  C   UNL     1      48.732   7.153  17.209  0.00  0.00    +0.000 A 
ATOM     26  C   UNL     1      48.740   6.262  18.344  0.00  0.00    +0.000 A 
ATOM     27  C   UNL     1      49.048   4.938  18.654  0.00  0.00    +0.000 A 
ATOM     28 CL   UNL     1      49.669   3.876  17.489  0.00  0.00    +0.000 Cl
ATOM     29  N   UNL     1      48.940   4.446  19.901  0.00  0.00    +0.000 NA
ATOM     30  C   UNL     1      48.510   5.288  20.850  0.00  0.00    +0.000 A 
ATOM     31  N   UNL     1      48.181   6.578  20.709  0.00  0.00    +0.000 NA
ATOM     32  C   UNL     1      48.317   7.008  19.441  0.00  0.00    +0.000 A 
ENDBRANCH  18  25
ENDBRANCH   1  20
TORSDOF 7
ENDMDL
MODEL 3
REMARK VINA RESULT:    -7.642      1.984      2.708
REMARK INTER + INTRA:         -12.048
REMARK INTER:                 -11.123
REMARK INTRA:                  -0.925
REMARK UNBOUND:                -1.278
REMARK  Name = 
REMARK  8 active torsions:
REMARK  status: ('A' for Active; 'I' for Inactive)
REMARK    1  A    between atoms: C_1  and  N_2
REMARK    2  A    between atoms: C_4  and  C_5
REMARK    3  A    between atoms: N_7  and  C_8
REMARK    4  A    between atoms: C_8  and  C_9
REMARK    5  A    between atoms: C_12  and  C_13
REMARK    6  A    between atoms: C_13  and  N_14
REMARK    7  A    between atoms: N_14  and  C_15
REMARK    8  A    between atoms: C_15  and  C_16
REMARK                            x       y       z     vdW  Elec       q    Type
REMARK                         _______ _______ _______ _____ _____    ______ ____
ROOT
ATOM      1  C   UNL     1      48.198   6.557  13.652  0.00  0.00    +0.000 C 
ENDROOT
BRANCH   1   2
ATOM      2  C   UNL     1      47.022   6.065  12.854  0.00  0.00    +0.000 A 
ATOM      3  C   UNL     1      46.242   4.997  13.319  0.00  0.00    +0.000 A 
ATOM      4  C   UNL     1      45.134   4.556  12.591  0.00  0.00    +0.000 A 
ATOM      5  C   UNL     1      44.782   5.170  11.380  0.00  0.00    +0.000 A 
ATOM      6  C   UNL     1      45.575   6.222  10.905  0.00  0.00    +0.000 A 
ATOM      7  C   UNL     1      46.686   6.662  11.632  0.00  0.00    +0.000 A 
BRANCH   5   8
ATOM      8  C   UNL     1      43.575   4.704  10.597  0.00  0.00    +0.000 C 
BRANCH   8   9
ATOM      9  N   UNL     1      43.966   4.181   9.290  0.00  0.00    +0.000 NA
ATOM     10  H   UNL     1      44.760   4.723   8.944  0.00  0.00    +0.000 HD
BRANCH   9  11
ATOM     11  C   UNL     1      44.386   2.777   9.389  0.00  0.00    +0.000 C 
BRANCH  11  12
ATOM     12  C   UNL     1      45.528   2.458   8.442  0.00  0.00    +0.000 A 
ATOM     13  C   UNL     1      46.071   3.458   7.637  0.00  0.00    +0.000 A 
ATOM     14  C   UNL     1      47.130   3.143   6.791  0.00  0.00    +0.000 A 
ATOM     15  C   UNL     1      47.616   1.842   6.766  0.00  0.00    +0.000 A 
ATOM     16  C   UNL     1      47.019   0.906   7.595  0.00  0.00    +0.000 A 
ATOM     17  N   UNL     1      45.992   1.182   8.428  0.00  0.00    +0.000 NA
ENDBRANCH  11  12
ENDBRANCH   9  11
ENDBRANCH   8   9
ENDBRANCH   5   8
ENDBRANCH   1   2
BRANCH   1  20
ATOM     18  C   UNL     1      48.981   6.758  15.956  0.00  0.00    +0.000 C 
ATOM     19  O   UNL     1      49.965   7.393  15.598  0.00  0.00    +0.000 OA
ATOM     20  N   UNL     1      48.063   6.260  15.057  0.00  0.00    +0.000 N 
ATOM     21  H   UNL     1      47.213   5.826  15.385  0.00  0.00    +0.000 HD
BRANCH  18  25
ATOM     22  C   UNL     1      48.602   4.249  20.251  0.00  0.00    +0.000 C 
ATOM     23  N   UNL     1      48.545   5.319  19.281  0.00  0.00    +0.000 N 
ATOM     24  C   UNL     1      48.845   5.210  17.951  0.00  0.00    +0.000 A 
ATOM     25  C   UNL     1      48.698   6.462  17.359  0.00  0.00    +0.000 A 
ATOM     26  C   UNL     1      48.271   7.360  18.404  0.00  0.00    +0.000 A 
ATOM     27  C   UNL     1      47.919   8.698  18.577  0.00  0.00    +0.000 A 
ATOM     28 CL   UNL     1      47.860   9.777  17.272  0.00  0.00    +0.000 Cl
ATOM     29  N   UNL     1      47.538   9.194  19.769  0.00  0.00    +0.000 NA
ATOM     30  C   UNL     1      47.517   8.342  20.802  0.00  0.00    +0.000 A 
ATOM     31  N   UNL     1      47.823   7.039  20.792  0.00  0.00    +0.000 NA
ATOM     32  C   UNL     1      48.190   6.605  19.572  0.00  0.00    +0.000 A 
ENDBRANCH  18  25
ENDBRANCH   1  20
TORSDOF 7
ENDMDL
MODEL 4
REMARK VINA RESULT:    -6.963      1.835      2.535
REMARK INTER + INTRA:         -11.091
REMARK INTER:                 -10.063
REMARK INTRA:                  -1.028
REMARK UNBOUND:                -1.278
REMARK  Name = 
REMARK  8 active torsions:
REMARK  status: ('A' for Active; 'I' for Inactive)
REMARK    1  A    between atoms: C_1  and  N_2
REMARK    2  A    between atoms: C_4  and  C_5
REMARK    3  A    between atoms: N_7  and  C_8
REMARK    4  A    between atoms: C_8  and  C_9
REMARK    5  A    between atoms: C_12  and  C_13
REMARK    6  A    between atoms: C_13  and  N_14
REMARK    7  A    between atoms: N_14  and  C_15
REMARK    8  A    between atoms: C_15  and  C_16
REMARK                            x       y       z     vdW  Elec       q    Type
REMARK                         _______ _______ _______ _____ _____    ______ ____
ROOT
ATOM      1  C   UNL     1      48.391   7.329  13.263  0.00  0.00    +0.000 C 
ENDROOT
BRANCH   1   2
ATOM      2  C   UNL     1      47.198   6.633  12.667  0.00  0.00    +0.000 A 
ATOM      3  C   UNL     1      46.348   5.864  13.473  0.00  0.00    +0.000 A 
ATOM      4  C   UNL     1      45.225   5.237  12.926  0.00  0.00    +0.000 A 
ATOM      5  C   UNL     1      44.929   5.362  11.560  0.00  0.00    +0.000 A 
ATOM      6  C   UNL     1      45.793   6.113  10.752  0.00  0.00    +0.000 A 
ATOM      7  C   UNL     1      46.918   6.737  11.300  0.00  0.00    +0.000 A 
BRANCH   5   8
ATOM      8  C   UNL     1      43.707   4.696  10.968  0.00  0.00    +0.000 C 
BRANCH   8   9
ATOM      9  N   UNL     1      43.954   4.274   9.591  0.00  0.00    +0.000 NA
ATOM     10  H   UNL     1      44.744   4.805   9.222  0.00  0.00    +0.000 HD
BRANCH   9  11
ATOM     11  C   UNL     1      44.301   2.848   9.532  0.00  0.00    +0.000 C 
BRANCH  11  12
ATOM     12  C   UNL     1      45.419   2.576   8.543  0.00  0.00    +0.000 A 
ATOM     13  C   UNL     1      45.904   3.602   7.733  0.00  0.00    +0.000 A 
ATOM     14  C   UNL     1      46.942   3.331   6.848  0.00  0.00    +0.000 A 
ATOM     15  C   UNL     1      47.466   2.046   6.789  0.00  0.00    +0.000 A 
ATOM     16  C   UNL     1      46.925   1.081   7.624  0.00  0.00    +0.000 A 
ATOM     17  N   UNL     1      45.921   1.315   8.496  0.00  0.00    +0.000 NA
ENDBRANCH  11  12
ENDBRANCH   9  11
ENDBRANCH   8   9
ENDBRANCH   5   8
ENDBRANCH   1   2
BRANCH   1  20
ATOM     18  C   UNL     1      48.816   7.245  15.666  0.00  0.00    +0.000 C 
ATOM     19  O   UNL     1      48.396   8.386  15.811  0.00  0.00    +0.000 OA
ATOM     20  N   UNL     1      48.894   6.644  14.429  0.00  0.00    +0.000 N 
ATOM     21  H   UNL     1      49.152   5.671  14.350  0.00  0.00    +0.000 HD
BRANCH  18  25
ATOM     22  C   UNL     1      48.736   4.290  19.684  0.00  0.00    +0.000 C 
ATOM     23  N   UNL     1      49.221   5.089  18.582  0.00  0.00    +0.000 N 
ATOM     24  C   UNL     1      48.448   5.820  17.722  0.00  0.00    +0.000 A 
ATOM     25  C   UNL     1      49.280   6.425  16.783  0.00  0.00    +0.000 A 
ATOM     26  C   UNL     1      50.628   6.036  17.121  0.00  0.00    +0.000 A 
ATOM     27  C   UNL     1      51.935   6.245  16.684  0.00  0.00    +0.000 A 
ATOM     28 CL   UNL     1      52.284   7.285  15.393  0.00  0.00    +0.000 Cl
ATOM     29  N   UNL     1      52.997   5.695  17.301  0.00  0.00    +0.000 NA
ATOM     30  C   UNL     1      52.747   4.919  18.363  0.00  0.00    +0.000 A 
ATOM     31  N   UNL     1      51.556   4.629  18.900  0.00  0.00    +0.000 NA
ATOM     32  C   UNL     1      50.538   5.214  18.241  0.00  0.00    +0.000 A 
ENDBRANCH  18  25
ENDBRANCH   1  20
TORSDOF 7
ENDMDL
MODEL 5
REMARK VINA RESULT:    -6.943      1.479      1.622
REMARK INTER + INTRA:         -11.062
REMARK INTER:                 -10.069
REMARK INTRA:                  -0.993
REMARK UNBOUND:                -1.278
REMARK  Name = 
REMARK  8 active torsions:
REMARK  status: ('A' for Active; 'I' for Inactive)
REMARK    1  A    between atoms: C_1  and  N_2
REMARK    2  A    between atoms: C_4  and  C_5
REMARK    3  A    between atoms: N_7  and  C_8
REMARK    4  A    between atoms: C_8  and  C_9
REMARK    5  A    between atoms: C_12  and  C_13
REMARK    6  A    between atoms: C_13  and  N_14
REMARK    7  A    between atoms: N_14  and  C_15
REMARK    8  A    between atoms: C_15  and  C_16
REMARK                            x       y       z     vdW  Elec       q    Type
REMARK                         _______ _______ _______ _____ _____    ______ ____
ROOT
ATOM      1  C   UNL     1      47.710   7.973  13.387  0.00  0.00    +0.000 C 
ENDROOT
BRANCH   1   2
ATOM      2  C   UNL     1      46.661   7.142  12.700  0.00  0.00    +0.000 A 
ATOM      3  C   UNL     1      46.777   5.746  12.652  0.00  0.00    +0.000 A 
ATOM      4  C   UNL     1      45.790   4.972  12.036  0.00  0.00    +0.000 A 
ATOM      5  C   UNL     1      44.667   5.576  11.450  0.00  0.00    +0.000 A 
ATOM      6  C   UNL     1      44.565   6.973  11.479  0.00  0.00    +0.000 A 
ATOM      7  C   UNL     1      45.554   7.748  12.093  0.00  0.00    +0.000 A 
BRANCH   5   8
ATOM      8  C   UNL     1      43.591   4.740  10.794  0.00  0.00    +0.000 C 
BRANCH   8   9
ATOM      9  N   UNL     1      44.174   3.672   9.986  0.00  0.00    +0.000 NA
ATOM     10  H   UNL     1      43.443   2.996   9.759  0.00  0.00    +0.000 HD
BRANCH   9  11
ATOM     11  C   UNL     1      44.708   4.200   8.723  0.00  0.00    +0.000 C 
BRANCH  11  12
ATOM     12  C   UNL     1      45.633   3.210   8.040  0.00  0.00    +0.000 A 
ATOM     13  C   UNL     1      46.381   3.601   6.930  0.00  0.00    +0.000 A 
ATOM     14  C   UNL     1      47.237   2.679   6.334  0.00  0.00    +0.000 A 
ATOM     15  C   UNL     1      47.321   1.394   6.855  0.00  0.00    +0.000 A 
ATOM     16  C   UNL     1      46.541   1.085   7.957  0.00  0.00    +0.000 A 
ATOM     17  N   UNL     1      45.705   1.958   8.560  0.00  0.00    +0.000 NA
ENDBRANCH  11  12
ENDBRANCH   9  11
ENDBRANCH   8   9
ENDBRANCH   5   8
ENDBRANCH   1   2
BRANCH   1  20
ATOM     18  C   UNL     1      48.849   7.456  15.485  0.00  0.00    +0.000 C 
ATOM     19  O   UNL     1      48.352   8.434  16.030  0.00  0.00    +0.000 OA
ATOM     20  N   UNL     1      48.624   7.164  14.157  0.00  0.00    +0.000 N 
ATOM     21  H   UNL     1      48.966   6.301  13.761  0.00  0.00    +0.000 HD
BRANCH  18  25
ATOM     22  C   UNL     1      52.844   5.625  17.844  0.00  0.00    +0.000 C 
ATOM     23  N   UNL     1      51.529   5.722  17.251  0.00  0.00    +0.000 N 
ATOM     24  C   UNL     1      51.034   6.804  16.576  0.00  0.00    +0.000 A 
ATOM     25  C   UNL     1      49.728   6.522  16.185  0.00  0.00    +0.000 A 
ATOM     26  C   UNL     1      49.442   5.185  16.647  0.00  0.00    +0.000 A 
ATOM     27  C   UNL     1      48.408   4.250  16.622  0.00  0.00    +0.000 A 
ATOM     28 CL   UNL     1      46.956   4.554  15.805  0.00  0.00    +0.000 Cl
ATOM     29  N   UNL     1      48.526   3.031  17.180  0.00  0.00    +0.000 NA
ATOM     30  C   UNL     1      49.690   2.747  17.777  0.00  0.00    +0.000 A 
ATOM     31  N   UNL     1      50.769   3.534  17.880  0.00  0.00    +0.000 NA
ATOM     32  C   UNL     1      50.588   4.734  17.298  0.00  0.00    +0.000 A 
ENDBRANCH  18  25
ENDBRANCH   1  20
TORSDOF 7
ENDMDL
MODEL 6
REMARK VINA RESULT:    -6.500      4.386      9.330
REMARK INTER + INTRA:         -10.438
REMARK INTER:                  -9.572
REMARK INTRA:                  -0.867
REMARK UNBOUND:                -1.278
REMARK  Name = 
REMARK  8 active torsions:
REMARK  status: ('A' for Active; 'I' for Inactive)
REMARK    1  A    between atoms: C_1  and  N_2
REMARK    2  A    between atoms: C_4  and  C_5
REMARK    3  A    between atoms: N_7  and  C_8
REMARK    4  A    between atoms: C_8  and  C_9
REMARK    5  A    between atoms: C_12  and  C_13
REMARK    6  A    between atoms: C_13  and  N_14
REMARK    7  A    between atoms: N_14  and  C_15
REMARK    8  A    between atoms: C_15  and  C_16
REMARK                            x       y       z     vdW  Elec       q    Type
REMARK                         _______ _______ _______ _____ _____    ______ ____
ROOT
ATOM      1  C   UNL     1      47.300   3.345  16.705  0.00  0.00    +0.000 C 
ENDROOT
BRANCH   1   2
ATOM      2  C   UNL     1      48.730   3.405  17.167  0.00  0.00    +0.000 A 
ATOM      3  C   UNL     1      49.588   2.315  16.968  0.00  0.00    +0.000 A 
ATOM      4  C   UNL     1      50.924   2.379  17.374  0.00  0.00    +0.000 A 
ATOM      5  C   UNL     1      51.430   3.533  17.991  0.00  0.00    +0.000 A 
ATOM      6  C   UNL     1      50.565   4.612  18.210  0.00  0.00    +0.000 A 
ATOM      7  C   UNL     1      49.228   4.547  17.806  0.00  0.00    +0.000 A 
BRANCH   5   8
ATOM      8  C   UNL     1      52.879   3.610  18.420  0.00  0.00    +0.000 C 
BRANCH   8   9
ATOM      9  N   UNL     1      53.246   2.459  19.242  0.00  0.00    +0.000 NA
ATOM     10  H   UNL     1      52.622   1.683  19.018  0.00  0.00    +0.000 HD
BRANCH   9  11
ATOM     11  C   UNL     1      54.621   2.028  18.959  0.00  0.00    +0.000 C 
BRANCH  11  12
ATOM     12  C   UNL     1      54.672   0.614  18.411  0.00  0.00    +0.000 A 
ATOM     13  C   UNL     1      54.828   0.397  17.043  0.00  0.00    +0.000 A 
ATOM     14  C   UNL     1      54.889  -0.910  16.569  0.00  0.00    +0.000 A 
ATOM     15  C   UNL     1      54.790  -1.964  17.468  0.00  0.00    +0.000 A 
ATOM     16  C   UNL     1      54.632  -1.664  18.811  0.00  0.00    +0.000 A 
ATOM     17  N   UNL     1      54.572  -0.407  19.302  0.00  0.00    +0.000 NA
ENDBRANCH  11  12
ENDBRANCH   9  11
ENDBRANCH   8   9
ENDBRANCH   5   8
ENDBRANCH   1   2
BRANCH   1  20
ATOM     18  C   UNL     1      46.916   4.230  14.461  0.00  0.00    +0.000 C 
ATOM     19  O   UNL     1      47.214   3.155  13.954  0.00  0.00    +0.000 OA
ATOM     20  N   UNL     1      46.968   4.438  15.822  0.00  0.00    +0.000 N 
ATOM     21  H   UNL     1      46.624   5.300  16.219  0.00  0.00    +0.000 HD
BRANCH  18  25
ATOM     22  C   UNL     1      46.978   8.710  12.270  0.00  0.00    +0.000 C 
ATOM     23  N   UNL     1      46.543   7.398  12.689  0.00  0.00    +0.000 N 
ATOM     24  C   UNL     1      47.216   6.565  13.540  0.00  0.00    +0.000 A 
ATOM     25  C   UNL     1      46.490   5.385  13.673  0.00  0.00    +0.000 A 
ATOM     26  C   UNL     1      45.308   5.538  12.861  0.00  0.00    +0.000 A 
ATOM     27  C   UNL     1      44.155   4.834  12.516  0.00  0.00    +0.000 A 
ATOM     28 CL   UNL     1      43.811   3.315  13.184  0.00  0.00    +0.000 Cl
ATOM     29  N   UNL     1      43.219   5.341  11.694  0.00  0.00    +0.000 NA
ATOM     30  C   UNL     1      43.442   6.567  11.205  0.00  0.00    +0.000 A 
ATOM     31  N   UNL     1      44.492   7.364  11.443  0.00  0.00    +0.000 NA
ATOM     32  C   UNL     1      45.386   6.800  12.275  0.00  0.00    +0.000 A 
ENDBRANCH  18  25
ENDBRANCH   1  20
TORSDOF 7
ENDMDL
MODEL 7
REMARK VINA RESULT:    -6.446      4.043      5.483
REMARK INTER + INTRA:         -10.363
REMARK INTER:                  -9.279
REMARK INTRA:                  -1.084
REMARK UNBOUND:                -1.278
REMARK  Name = 
REMARK  8 active torsions:
REMARK  status: ('A' for Active; 'I' for Inactive)
REMARK    1  A    between atoms: C_1  and  N_2
REMARK    2  A    between atoms: C_4  and  C_5
REMARK    3  A    between atoms: N_7  and  C_8
REMARK    4  A    between atoms: C_8  and  C_9
REMARK    5  A    between atoms: C_12  and  C_13
REMARK    6  A    between atoms: C_13  and  N_14
REMARK    7  A    between atoms: N_14  and  C_15
REMARK    8  A    between atoms: C_15  and  C_16
REMARK                            x       y       z     vdW  Elec       q    Type
REMARK                         _______ _______ _______ _____ _____    ______ ____
ROOT
ATOM      1  C   UNL     1      46.375   9.306  12.661  0.00  0.00    +0.000 C 
ENDROOT
BRANCH   1   2
ATOM      2  C   UNL     1      45.993   7.875  12.398  0.00  0.00    +0.000 A 
ATOM      3  C   UNL     1      44.830   7.570  11.679  0.00  0.00    +0.000 A 
ATOM      4  C   UNL     1      44.488   6.241  11.412  0.00  0.00    +0.000 A 
ATOM      5  C   UNL     1      45.299   5.188  11.862  0.00  0.00    +0.000 A 
ATOM      6  C   UNL     1      46.449   5.495  12.600  0.00  0.00    +0.000 A 
ATOM      7  C   UNL     1      46.790   6.824  12.870  0.00  0.00    +0.000 A 
BRANCH   5   8
ATOM      8  C   UNL     1      44.938   3.750  11.563  0.00  0.00    +0.000 C 
BRANCH   8   9
ATOM      9  N   UNL     1      44.164   3.647  10.328  0.00  0.00    +0.000 NA
ATOM     10  H   UNL     1      44.488   4.365   9.677  0.00  0.00    +0.000 HD
BRANCH   9  11
ATOM     11  C   UNL     1      44.362   2.338   9.691  0.00  0.00    +0.000 C 
BRANCH  11  12
ATOM     12  C   UNL     1      45.424   2.388   8.609  0.00  0.00    +0.000 A 
ATOM     13  C   UNL     1      45.668   3.575   7.920  0.00  0.00    +0.000 A 
ATOM     14  C   UNL     1      46.660   3.599   6.945  0.00  0.00    +0.000 A 
ATOM     15  C   UNL     1      47.379   2.441   6.679  0.00  0.00    +0.000 A 
ATOM     16  C   UNL     1      47.073   1.301   7.406  0.00  0.00    +0.000 A 
ATOM     17  N   UNL     1      46.119   1.248   8.360  0.00  0.00    +0.000 NA
ENDBRANCH  11  12
ENDBRANCH   9  11
ENDBRANCH   8   9
ENDBRANCH   5   8
ENDBRANCH   1   2
BRANCH   1  20
ATOM     18  C   UNL     1      48.584  10.333  12.483  0.00  0.00    +0.000 C 
ATOM     19  O   UNL     1      48.582  10.615  13.674  0.00  0.00    +0.000 OA
ATOM     20  N   UNL     1      47.512   9.718  11.873  0.00  0.00    +0.000 N 
ATOM     21  H   UNL     1      47.579   9.410  10.914  0.00  0.00    +0.000 HD
BRANCH  18  25
ATOM     22  C   UNL     1      51.818  12.904   9.689  0.00  0.00    +0.000 C 
ATOM     23  N   UNL     1      51.159  11.807  10.359  0.00  0.00    +0.000 N 
ATOM     24  C   UNL     1      50.010  11.894  11.097  0.00  0.00    +0.000 A 
ATOM     25  C   UNL     1      49.710  10.631  11.601  0.00  0.00    +0.000 A 
ATOM     26  C   UNL     1      50.740   9.743  11.119  0.00  0.00    +0.000 A 
ATOM     27  C   UNL     1      51.096   8.396  11.178  0.00  0.00    +0.000 A 
ATOM     28 CL   UNL     1      50.130   7.257  11.978  0.00  0.00    +0.000 Cl
ATOM     29  N   UNL     1      52.181   7.910  10.548  0.00  0.00    +0.000 NA
ATOM     30  C   UNL     1      52.924   8.783   9.857  0.00  0.00    +0.000 A 
ATOM     31  N   UNL     1      52.711  10.096   9.705  0.00  0.00    +0.000 NA
ATOM     32  C   UNL     1      51.609  10.517  10.354  0.00  0.00    +0.000 A 
ENDBRANCH  18  25
ENDBRANCH   1  20
TORSDOF 7
ENDMDL
MODEL 8
REMARK VINA RESULT:    -6.403      1.526      2.116
REMARK INTER + INTRA:         -10.302
REMARK INTER:                  -9.269
REMARK INTRA:                  -1.034
REMARK UNBOUND:                -1.278
REMARK  Name = 
REMARK  8 active torsions:
REMARK  status: ('A' for Active; 'I' for Inactive)
REMARK    1  A    between atoms: C_1  and  N_2
REMARK    2  A    between atoms: C_4  and  C_5
REMARK    3  A    between atoms: N_7  and  C_8
REMARK    4  A    between atoms: C_8  and  C_9
REMARK    5  A    between atoms: C_12  and  C_13
REMARK    6  A    between atoms: C_13  and  N_14
REMARK    7  A    between atoms: N_14  and  C_15
REMARK    8  A    between atoms: C_15  and  C_16
REMARK                            x       y       z     vdW  Elec       q    Type
REMARK                         _______ _______ _______ _____ _____    ______ ____
ROOT
ATOM      1  C   UNL     1      45.695   8.440  12.626  0.00  0.00    +0.000 C 
ENDROOT
BRANCH   1   2
ATOM      2  C   UNL     1      45.207   7.050  12.324  0.00  0.00    +0.000 A 
ATOM      3  C   UNL     1      43.871   6.697  12.559  0.00  0.00    +0.000 A 
ATOM      4  C   UNL     1      43.411   5.413  12.255  0.00  0.00    +0.000 A 
ATOM      5  C   UNL     1      44.277   4.452  11.713  0.00  0.00    +0.000 A 
ATOM      6  C   UNL     1      45.617   4.799  11.500  0.00  0.00    +0.000 A 
ATOM      7  C   UNL     1      46.078   6.083  11.807  0.00  0.00    +0.000 A 
BRANCH   5   8
ATOM      8  C   UNL     1      43.778   3.065  11.371  0.00  0.00    +0.000 C 
BRANCH   8   9
ATOM      9  N   UNL     1      44.692   2.390  10.452  0.00  0.00    +0.000 NA
ATOM     10  H   UNL     1      44.580   1.380  10.562  0.00  0.00    +0.000 HD
BRANCH   9  11
ATOM     11  C   UNL     1      44.382   2.730   9.057  0.00  0.00    +0.000 C 
BRANCH  11  12
ATOM     12  C   UNL     1      45.604   2.631   8.164  0.00  0.00    +0.000 A 
ATOM     13  C   UNL     1      46.298   1.427   8.055  0.00  0.00    +0.000 A 
ATOM     14  C   UNL     1      47.404   1.358   7.214  0.00  0.00    +0.000 A 
ATOM     15  C   UNL     1      47.792   2.490   6.509  0.00  0.00    +0.000 A 
ATOM     16  C   UNL     1      47.051   3.649   6.675  0.00  0.00    +0.000 A 
ATOM     17  N   UNL     1      45.972   3.746   7.480  0.00  0.00    +0.000 NA
ENDBRANCH  11  12
ENDBRANCH   9  11
ENDBRANCH   8   9
ENDBRANCH   5   8
ENDBRANCH   1   2
BRANCH   1  20
ATOM     18  C   UNL     1      47.912   8.599  13.639  0.00  0.00    +0.000 C 
ATOM     19  O   UNL     1      48.447   8.607  12.537  0.00  0.00    +0.000 OA
ATOM     20  N   UNL     1      46.547   8.476  13.790  0.00  0.00    +0.000 N 
ATOM     21  H   UNL     1      46.125   8.571  14.702  0.00  0.00    +0.000 HD
BRANCH  18  25
ATOM     22  C   UNL     1      50.553  10.571  17.382  0.00  0.00    +0.000 C 
ATOM     23  N   UNL     1      49.843   9.616  16.563  0.00  0.00    +0.000 N 
ATOM     24  C   UNL     1      49.282   9.870  15.341  0.00  0.00    +0.000 A 
ATOM     25  C   UNL     1      48.666   8.708  14.885  0.00  0.00    +0.000 A 
ATOM     26  C   UNL     1      48.890   7.703  15.896  0.00  0.00    +0.000 A 
ATOM     27  C   UNL     1      48.614   6.358  16.138  0.00  0.00    +0.000 A 
ATOM     28 CL   UNL     1      47.811   5.397  14.996  0.00  0.00    +0.000 Cl
ATOM     29  N   UNL     1      49.026   5.727  17.253  0.00  0.00    +0.000 NA
ATOM     30  C   UNL     1      49.717   6.453  18.140  0.00  0.00    +0.000 A 
ATOM     31  N   UNL     1      50.061   7.744  18.049  0.00  0.00    +0.000 NA
ATOM     32  C   UNL     1      49.624   8.313  16.911  0.00  0.00    +0.000 A 
ENDBRANCH  18  25
ENDBRANCH   1  20
TORSDOF 7
ENDMDL
MODEL 9
REMARK VINA RESULT:    -6.401      3.749      9.806
REMARK INTER + INTRA:         -10.299
REMARK INTER:                  -9.097
REMARK INTRA:                  -1.202
REMARK UNBOUND:                -1.278
REMARK  Name = 
REMARK  8 active torsions:
REMARK  status: ('A' for Active; 'I' for Inactive)
REMARK    1  A    between atoms: C_1  and  N_2
REMARK    2  A    between atoms: C_4  and  C_5
REMARK    3  A    between atoms: N_7  and  C_8
REMARK    4  A    between atoms: C_8  and  C_9
REMARK    5  A    between atoms: C_12  and  C_13
REMARK    6  A    between atoms: C_13  and  N_14
REMARK    7  A    between atoms: N_14  and  C_15
REMARK    8  A    between atoms: C_15  and  C_16
REMARK                            x       y       z     vdW  Elec       q    Type
REMARK                         _______ _______ _______ _____ _____    ______ ____
ROOT
ATOM      1  C   UNL     1      47.311   3.329  16.658  0.00  0.00    +0.000 C 
ENDROOT
BRANCH   1   2
ATOM      2  C   UNL     1      48.777   3.278  16.990  0.00  0.00    +0.000 A 
ATOM      3  C   UNL     1      49.449   4.431  17.420  0.00  0.00    +0.000 A 
ATOM      4  C   UNL     1      50.806   4.378  17.753  0.00  0.00    +0.000 A 
ATOM      5  C   UNL     1      51.520   3.175  17.661  0.00  0.00    +0.000 A 
ATOM      6  C   UNL     1      50.852   2.030  17.210  0.00  0.00    +0.000 A 
ATOM      7  C   UNL     1      49.495   2.082  16.874  0.00  0.00    +0.000 A 
BRANCH   5   8
ATOM      8  C   UNL     1      52.985   3.113  18.035  0.00  0.00    +0.000 C 
BRANCH   8   9
ATOM      9  N   UNL     1      53.155   2.748  19.439  0.00  0.00    +0.000 NA
ATOM     10  H   UNL     1      53.742   1.913  19.492  0.00  0.00    +0.000 HD
BRANCH   9  11
ATOM     11  C   UNL     1      53.829   3.821  20.183  0.00  0.00    +0.000 C 
BRANCH  11  12
ATOM     12  C   UNL     1      52.867   4.921  20.589  0.00  0.00    +0.000 A 
ATOM     13  C   UNL     1      53.080   6.232  20.163  0.00  0.00    +0.000 A 
ATOM     14  C   UNL     1      52.172   7.218  20.534  0.00  0.00    +0.000 A 
ATOM     15  C   UNL     1      51.080   6.876  21.321  0.00  0.00    +0.000 A 
ATOM     16  C   UNL     1      50.942   5.552  21.705  0.00  0.00    +0.000 A 
ATOM     17  N   UNL     1      51.804   4.572  21.359  0.00  0.00    +0.000 NA
ENDBRANCH  11  12
ENDBRANCH   9  11
ENDBRANCH   8   9
ENDBRANCH   5   8
ENDBRANCH   1   2
BRANCH   1  20
ATOM     18  C   UNL     1      46.919   4.234  14.423  0.00  0.00    +0.000 C 
ATOM     19  O   UNL     1      47.193   3.158  13.907  0.00  0.00    +0.000 OA
ATOM     20  N   UNL     1      46.990   4.433  15.785  0.00  0.00    +0.000 N 
ATOM     21  H   UNL     1      46.665   5.298  16.191  0.00  0.00    +0.000 HD
BRANCH  18  25
ATOM     22  C   UNL     1      47.034   8.732  12.270  0.00  0.00    +0.000 C 
ATOM     23  N   UNL     1      46.583   7.422  12.680  0.00  0.00    +0.000 N 
ATOM     24  C   UNL     1      47.248   6.572  13.522  0.00  0.00    +0.000 A 
ATOM     25  C   UNL     1      46.506   5.401  13.647  0.00  0.00    +0.000 A 
ATOM     26  C   UNL     1      45.323   5.578  12.840  0.00  0.00    +0.000 A 
ATOM     27  C   UNL     1      44.161   4.892  12.494  0.00  0.00    +0.000 A 
ATOM     28 CL   UNL     1      43.798   3.372  13.150  0.00  0.00    +0.000 Cl
ATOM     29  N   UNL     1      43.228   5.419  11.680  0.00  0.00    +0.000 NA
ATOM     30  C   UNL     1      43.465   6.646  11.200  0.00  0.00    +0.000 A 
ATOM     31  N   UNL     1      44.527   7.426  11.441  0.00  0.00    +0.000 NA
ATOM     32  C   UNL     1      45.417   6.843  12.266  0.00  0.00    +0.000 A 
ENDBRANCH  18  25
ENDBRANCH   1  20
TORSDOF 7
ENDMDL
