MODEL 1
REMARK VINA RESULT:    -8.487      0.000      0.000
REMARK INTER + INTRA:         -11.102
REMARK INTER:                 -10.968
REMARK INTRA:                  -0.134
REMARK UNBOUND:                -0.134
REMARK  Name = 
REMARK  5 active torsions:
REMARK  status: ('A' for Active; 'I' for Inactive)
REMARK    1  A    between atoms: C_2  and  C_4
REMARK    2  A    between atoms: C_7  and  O_8
REMARK    3  A    between atoms: O_8  and  C_9
REMARK    4  A    between atoms: C_9  and  C_10
REMARK    5  A    between atoms: C_15  and  C_16
REMARK                            x       y       z     vdW  Elec       q    Type
REMARK                         _______ _______ _______ _____ _____    ______ ____
ROOT
ATOM      1  C   UNL     1      44.965   4.414  11.882  0.00  0.00    +0.000 A 
ATOM      2  C   UNL     1      45.610   3.630  12.843  0.00  0.00    +0.000 A 
ATOM      3  C   UNL     1      46.685   4.155  13.551  0.00  0.00    +0.000 A 
ATOM      4  F   UNL     1      47.300   3.397  14.469  0.00  0.00    +0.000 F 
ATOM      5  C   UNL     1      47.138   5.454  13.326  0.00  0.00    +0.000 A 
ATOM      6  C   UNL     1      46.516   6.264  12.365  0.00  0.00    +0.000 A 
ATOM      7  C   UNL     1      45.426   5.725  11.661  0.00  0.00    +0.000 A 
ENDROOT
BRANCH   6   8
ATOM      8  C   UNL     1      47.029   7.682  12.132  0.00  0.00    +0.000 C 
ATOM      9  C   UNL     1      48.565   7.749  12.117  0.00  0.00    +0.000 C 
ATOM     10  C   UNL     1      49.161   7.780  13.524  0.00  0.00    +0.000 C 
ATOM     11  C   UNL     1      48.503   8.841  14.407  0.00  0.00    +0.000 C 
ATOM     12  N   UNL     1      47.047   8.723  14.437  0.00  0.00    +0.000 NA
ATOM     13  C   UNL     1      46.463   8.755  13.092  0.00  0.00    +0.000 C 
ATOM     14  H   UNL     1      46.650   9.474  15.001  0.00  0.00    +0.000 HD
ENDBRANCH   6   8
BRANCH   1  15
ATOM     15  C   UNL     1      43.785   3.890  11.096  0.00  0.00    +0.000 C 
BRANCH  15  16
ATOM     16  O   UNL     1      43.863   4.427   9.774  0.00  0.00    +0.000 OA
BRANCH  16  20
ATOM     17  C   UNL     1      46.578   2.438   7.506  0.00  0.00    +0.000 A 
ATOM     18  C   UNL     1      46.469   3.819   7.408  0.00  0.00    +0.000 A 
ATOM     19  N   UNL     1      45.579   4.539   8.143  0.00  0.00    +0.000 NA
ATOM     20  C   UNL     1      44.808   3.813   8.986  0.00  0.00    +0.000 A 
ATOM     21  C   UNL     1      44.923   2.429   9.086  0.00  0.00    +0.000 A 
ATOM     22  N   UNL     1      45.804   1.700   8.351  0.00  0.00    +0.000 NA
BRANCH  17  24
ATOM     23  N   UNL     1      48.692   2.406   6.325  0.00  0.00    +0.000 N 
ATOM     24  C   UNL     1      47.564   1.709   6.661  0.00  0.00    +0.000 C 
ATOM     25  O   UNL     1      47.381   0.555   6.294  0.00  0.00    +0.000 OA
ATOM     26  H   UNL     1      49.405   1.964   5.766  0.00  0.00    +0.000 HD
ATOM     27  H   UNL     1      48.822   3.355   6.662  0.00  0.00    +0.000 HD
ENDBRANCH  17  24
ENDBRANCH  16  20
ENDBRANCH  15  16
ENDBRANCH   1  15
TORSDOF 5
ENDMDL
MODEL 2
REMARK VINA RESULT:    -7.806      2.015      2.644
REMARK INTER + INTRA:         -10.222
REMARK INTER:                  -9.754
REMARK INTRA:                  -0.468
REMARK UNBOUND:                -0.134
REMARK  Name = 
REMARK  5 active torsions:
REMARK  status: ('A' for Active; 'I' for Inactive)
REMARK    1  A    between atoms: C_2  and  C_4
REMARK    2  A    between atoms: C_7  and  O_8
REMARK    3  A    between atoms: O_8  and  C_9
REMARK    4  A    between atoms: C_9  and  C_10
REMARK    5  A    between atoms: C_15  and  C_16
REMARK                            x       y       z     vdW  Elec       q    Type
REMARK                         _______ _______ _______ _____ _____    ______ ____
ROOT
ATOM      1  C   UNL     1      44.824   4.812  11.727  0.00  0.00    +0.000 A 
ATOM      2  C   UNL     1      43.867   5.720  11.268  0.00  0.00    +0.000 A 
ATOM      3  C   UNL     1      44.050   7.082  11.484  0.00  0.00    +0.000 A 
ATOM      4  F   UNL     1      43.127   7.946  11.044  0.00  0.00    +0.000 F 
ATOM      5  C   UNL     1      45.175   7.566  12.150  0.00  0.00    +0.000 A 
ATOM      6  C   UNL     1      46.152   6.679  12.628  0.00  0.00    +0.000 A 
ATOM      7  C   UNL     1      45.958   5.307  12.397  0.00  0.00    +0.000 A 
ENDROOT
BRANCH   6   8
ATOM      8  C   UNL     1      47.374   7.230  13.356  0.00  0.00    +0.000 C 
ATOM      9  C   UNL     1      47.292   8.752  13.561  0.00  0.00    +0.000 C 
ATOM     10  C   UNL     1      47.704   9.530  12.312  0.00  0.00    +0.000 C 
ATOM     11  C   UNL     1      49.042   9.052  11.748  0.00  0.00    +0.000 C 
ATOM     12  N   UNL     1      49.073   7.609  11.521  0.00  0.00    +0.000 NA
ATOM     13  C   UNL     1      48.739   6.853  12.734  0.00  0.00    +0.000 C 
ATOM     14  H   UNL     1      49.995   7.331  11.187  0.00  0.00    +0.000 HD
ENDBRANCH   6   8
BRANCH   1  15
ATOM     15  C   UNL     1      44.673   3.324  11.505  0.00  0.00    +0.000 C 
BRANCH  15  16
ATOM     16  O   UNL     1      44.004   3.130  10.257  0.00  0.00    +0.000 OA
BRANCH  16  20
ATOM     17  C   UNL     1      46.516   2.641   7.106  0.00  0.00    +0.000 A 
ATOM     18  C   UNL     1      46.314   1.599   8.002  0.00  0.00    +0.000 A 
ATOM     19  N   UNL     1      45.484   1.705   9.075  0.00  0.00    +0.000 NA
ATOM     20  C   UNL     1      44.860   2.899   9.204  0.00  0.00    +0.000 A 
ATOM     21  C   UNL     1      45.060   3.940   8.302  0.00  0.00    +0.000 A 
ATOM     22  N   UNL     1      45.892   3.847   7.231  0.00  0.00    +0.000 NA
BRANCH  17  24
ATOM     23  N   UNL     1      48.783   2.519   6.263  0.00  0.00    +0.000 N 
ATOM     24  C   UNL     1      47.449   2.465   5.959  0.00  0.00    +0.000 C 
ATOM     25  O   UNL     1      47.052   2.277   4.816  0.00  0.00    +0.000 OA
ATOM     26  H   UNL     1      49.466   2.393   5.533  0.00  0.00    +0.000 HD
ATOM     27  H   UNL     1      49.079   2.656   7.224  0.00  0.00    +0.000 HD
ENDBRANCH  17  24
ENDBRANCH  16  20
ENDBRANCH  15  16
ENDBRANCH   1  15
TORSDOF 5
ENDMDL
MODEL 3
REMARK VINA RESULT:    -7.738      2.435      3.279
REMARK INTER + INTRA:         -10.134
REMARK INTER:                  -9.330
REMARK INTRA:                  -0.804
REMARK UNBOUND:                -0.134
REMARK  Name = 
REMARK  5 active torsions:
REMARK  status: ('A' for Active; 'I' for Inactive)
REMARK    1  A    between atoms: C_2  and  C_4
REMARK    2  A    between atoms: C_7  and  O_8
REMARK    3  A    between atoms: O_8  and  C_9
REMARK    4  A    between atoms: C_9  and  C_10
REMARK    5  A    between atoms: C_15  and  C_16
REMARK                            x       y       z     vdW  Elec       q    Type
REMARK                         _______ _______ _______ _____ _____    ______ ____
ROOT
ATOM      1  C   UNL     1      45.157   6.180  11.497  0.00  0.00    +0.000 A 
ATOM      2  C   UNL     1      46.533   6.177  11.739  0.00  0.00    +0.000 A 
ATOM      3  C   UNL     1      47.184   7.372  12.027  0.00  0.00    +0.000 A 
ATOM      4  F   UNL     1      48.503   7.363  12.256  0.00  0.00    +0.000 F 
ATOM      5  C   UNL     1      46.491   8.581  12.082  0.00  0.00    +0.000 A 
ATOM      6  C   UNL     1      45.111   8.618  11.837  0.00  0.00    +0.000 A 
ATOM      7  C   UNL     1      44.464   7.403  11.555  0.00  0.00    +0.000 A 
ENDROOT
BRANCH   6   8
ATOM      8  C   UNL     1      44.372   9.951  11.899  0.00  0.00    +0.000 C 
ATOM      9  C   UNL     1      43.183  10.003  10.925  0.00  0.00    +0.000 C 
ATOM     10  C   UNL     1      43.616  10.326   9.495  0.00  0.00    +0.000 C 
ATOM     11  C   UNL     1      44.524  11.553   9.429  0.00  0.00    +0.000 C 
ATOM     12  N   UNL     1      45.669  11.454  10.332  0.00  0.00    +0.000 NA
ATOM     13  C   UNL     1      45.258  11.206  11.718  0.00  0.00    +0.000 C 
ATOM     14  H   UNL     1      46.221  12.309  10.286  0.00  0.00    +0.000 HD
ENDBRANCH   6   8
BRANCH   1  15
ATOM     15  C   UNL     1      44.405   4.904  11.192  0.00  0.00    +0.000 C 
BRANCH  15  16
ATOM     16  O   UNL     1      44.111   4.889   9.794  0.00  0.00    +0.000 OA
BRANCH  16  20
ATOM     17  C   UNL     1      46.491   2.334   7.723  0.00  0.00    +0.000 A 
ATOM     18  C   UNL     1      46.528   3.695   7.449  0.00  0.00    +0.000 A 
ATOM     19  N   UNL     1      45.756   4.599   8.112  0.00  0.00    +0.000 NA
ATOM     20  C   UNL     1      44.949   4.077   9.064  0.00  0.00    +0.000 A 
ATOM     21  C   UNL     1      44.916   2.712   9.340  0.00  0.00    +0.000 A 
ATOM     22  N   UNL     1      45.678   1.802   8.680  0.00  0.00    +0.000 NA
BRANCH  17  24
ATOM     23  N   UNL     1      48.466   1.947   6.376  0.00  0.00    +0.000 N 
ATOM     24  C   UNL     1      47.352   1.397   6.951  0.00  0.00    +0.000 C 
ATOM     25  O   UNL     1      47.087   0.206   6.841  0.00  0.00    +0.000 OA
ATOM     26  H   UNL     1      49.097   1.362   5.852  0.00  0.00    +0.000 HD
ATOM     27  H   UNL     1      48.668   2.933   6.503  0.00  0.00    +0.000 HD
ENDBRANCH  17  24
ENDBRANCH  16  20
ENDBRANCH  15  16
ENDBRANCH   1  15
TORSDOF 5
ENDMDL
MODEL 4
REMARK VINA RESULT:    -7.464      1.844      2.635
REMARK INTER + INTRA:          -9.780
REMARK INTER:                  -8.916
REMARK INTRA:                  -0.863
REMARK UNBOUND:                -0.134
REMARK  Name = 
REMARK  5 active torsions:
REMARK  status: ('A' for Active; 'I' for Inactive)
REMARK    1  A    between atoms: C_2  and  C_4
REMARK    2  A    between atoms: C_7  and  O_8
REMARK    3  A    between atoms: O_8  and  C_9
REMARK    4  A    between atoms: C_9  and  C_10
REMARK    5  A    between atoms: C_15  and  C_16
REMARK                            x       y       z     vdW  Elec       q    Type
REMARK                         _______ _______ _______ _____ _____    ______ ____
ROOT
ATOM      1  C   UNL     1      44.516   5.375  11.705  0.00  0.00    +0.000 A 
ATOM      2  C   UNL     1      44.280   6.749  11.626  0.00  0.00    +0.000 A 
ATOM      3  C   UNL     1      45.207   7.640  12.156  0.00  0.00    +0.000 A 
ATOM      4  F   UNL     1      44.972   8.956  12.079  0.00  0.00    +0.000 F 
ATOM      5  C   UNL     1      46.376   7.191  12.768  0.00  0.00    +0.000 A 
ATOM      6  C   UNL     1      46.640   5.817  12.869  0.00  0.00    +0.000 A 
ATOM      7  C   UNL     1      45.699   4.928  12.323  0.00  0.00    +0.000 A 
ENDROOT
BRANCH   6   8
ATOM      8  C   UNL     1      47.925   5.346  13.545  0.00  0.00    +0.000 C 
ATOM      9  C   UNL     1      47.736   4.012  14.286  0.00  0.00    +0.000 C 
ATOM     10  C   UNL     1      47.097   4.197  15.663  0.00  0.00    +0.000 C 
ATOM     11  C   UNL     1      47.804   5.271  16.489  0.00  0.00    +0.000 C 
ATOM     12  N   UNL     1      47.927   6.539  15.775  0.00  0.00    +0.000 NA
ATOM     13  C   UNL     1      48.597   6.380  14.480  0.00  0.00    +0.000 C 
ATOM     14  H   UNL     1      48.441   7.210  16.346  0.00  0.00    +0.000 HD
ENDBRANCH   6   8
BRANCH   1  15
ATOM     15  C   UNL     1      43.543   4.370  11.132  0.00  0.00    +0.000 C 
BRANCH  15  16
ATOM     16  O   UNL     1      43.508   4.549   9.715  0.00  0.00    +0.000 OA
BRANCH  16  20
ATOM     17  C   UNL     1      46.526   2.594   7.832  0.00  0.00    +0.000 A 
ATOM     18  C   UNL     1      46.381   3.966   7.673  0.00  0.00    +0.000 A 
ATOM     19  N   UNL     1      45.390   4.674   8.281  0.00  0.00    +0.000 NA
ATOM     20  C   UNL     1      44.556   3.946   9.058  0.00  0.00    +0.000 A 
ATOM     21  C   UNL     1      44.706   2.571   9.220  0.00  0.00    +0.000 A 
ATOM     22  N   UNL     1      45.687   1.854   8.613  0.00  0.00    +0.000 NA
BRANCH  17  24
ATOM     23  N   UNL     1      48.462   2.656   6.379  0.00  0.00    +0.000 N 
ATOM     24  C   UNL     1      47.624   1.876   7.128  0.00  0.00    +0.000 C 
ATOM     25  O   UNL     1      47.773   0.664   7.217  0.00  0.00    +0.000 OA
ATOM     26  H   UNL     1      49.234   2.233   5.889  0.00  0.00    +0.000 HD
ATOM     27  H   UNL     1      48.323   3.661   6.343  0.00  0.00    +0.000 HD
ENDBRANCH  17  24
ENDBRANCH  16  20
ENDBRANCH  15  16
ENDBRANCH   1  15
TORSDOF 5
ENDMDL
MODEL 5
REMARK VINA RESULT:    -7.401      2.384      3.298
REMARK INTER + INTRA:          -9.698
REMARK INTER:                  -9.245
REMARK INTRA:                  -0.453
REMARK UNBOUND:                -0.134
REMARK  Name = 
REMARK  5 active torsions:
REMARK  status: ('A' for Active; 'I' for Inactive)
REMARK    1  A    between atoms: C_2  and  C_4
REMARK    2  A    between atoms: C_7  and  O_8
REMARK    3  A    between atoms: O_8  and  C_9
REMARK    4  A    between atoms: C_9  and  C_10
REMARK    5  A    between atoms: C_15  and  C_16
REMARK                            x       y       z     vdW  Elec       q    Type
REMARK                         _______ _______ _______ _____ _____    ______ ____
ROOT
ATOM      1  C   UNL     1      45.147   4.121   9.470  0.00  0.00    +0.000 A 
ATOM      2  C   UNL     1      44.281   3.097   9.864  0.00  0.00    +0.000 A 
ATOM      3  C   UNL     1      43.845   3.033  11.182  0.00  0.00    +0.000 A 
ATOM      4  F   UNL     1      43.017   2.047  11.553  0.00  0.00    +0.000 F 
ATOM      5  C   UNL     1      44.252   3.973  12.128  0.00  0.00    +0.000 A 
ATOM      6  C   UNL     1      45.126   5.009  11.767  0.00  0.00    +0.000 A 
ATOM      7  C   UNL     1      45.553   5.067  10.429  0.00  0.00    +0.000 A 
ENDROOT
BRANCH   6   8
ATOM      8  C   UNL     1      45.561   6.026  12.817  0.00  0.00    +0.000 C 
ATOM      9  C   UNL     1      46.115   7.314  12.185  0.00  0.00    +0.000 C 
ATOM     10  C   UNL     1      47.571   7.167  11.745  0.00  0.00    +0.000 C 
ATOM     11  C   UNL     1      48.454   6.591  12.851  0.00  0.00    +0.000 C 
ATOM     12  N   UNL     1      47.926   5.344  13.400  0.00  0.00    +0.000 NA
ATOM     13  C   UNL     1      46.549   5.493  13.882  0.00  0.00    +0.000 C 
ATOM     14  H   UNL     1      48.523   5.020  14.160  0.00  0.00    +0.000 HD
ENDBRANCH   6   8
BRANCH   1  15
ATOM     15  C   UNL     1      45.637   4.238   8.045  0.00  0.00    +0.000 C 
BRANCH  15  16
ATOM     16  O   UNL     1      46.873   3.527   7.944  0.00  0.00    +0.000 OA
BRANCH  16  20
ATOM     17  C   UNL     1      47.027   0.839   4.907  0.00  0.00    +0.000 A 
ATOM     18  C   UNL     1      46.856   2.190   4.632  0.00  0.00    +0.000 A 
ATOM     19  N   UNL     1      46.799   3.136   5.608  0.00  0.00    +0.000 NA
ATOM     20  C   UNL     1      46.926   2.667   6.871  0.00  0.00    +0.000 A 
ATOM     21  C   UNL     1      47.102   1.313   7.144  0.00  0.00    +0.000 A 
ATOM     22  N   UNL     1      47.154   0.360   6.177  0.00  0.00    +0.000 NA
BRANCH  17  24
ATOM     23  N   UNL     1      46.722  -1.431   4.119  0.00  0.00    +0.000 N 
ATOM     24  C   UNL     1      47.067  -0.147   3.792  0.00  0.00    +0.000 C 
ATOM     25  O   UNL     1      47.384   0.169   2.652  0.00  0.00    +0.000 OA
ATOM     26  H   UNL     1      46.716  -2.143   3.406  0.00  0.00    +0.000 HD
ATOM     27  H   UNL     1      46.445  -1.655   5.069  0.00  0.00    +0.000 HD
ENDBRANCH  17  24
ENDBRANCH  16  20
ENDBRANCH  15  16
ENDBRANCH   1  15
TORSDOF 5
ENDMDL
MODEL 6
REMARK VINA RESULT:    -7.281      5.134      7.759
REMARK INTER + INTRA:          -9.543
REMARK INTER:                  -9.182
REMARK INTRA:                  -0.361
REMARK UNBOUND:                -0.134
REMARK  Name = 
REMARK  5 active torsions:
REMARK  status: ('A' for Active; 'I' for Inactive)
REMARK    1  A    between atoms: C_2  and  C_4
REMARK    2  A    between atoms: C_7  and  O_8
REMARK    3  A    between atoms: O_8  and  C_9
REMARK    4  A    between atoms: C_9  and  C_10
REMARK    5  A    between atoms: C_15  and  C_16
REMARK                            x       y       z     vdW  Elec       q    Type
REMARK                         _______ _______ _______ _____ _____    ______ ____
ROOT
ATOM      1  C   UNL     1      47.021   5.063  14.225  0.00  0.00    +0.000 A 
ATOM      2  C   UNL     1      47.935   6.105  14.051  0.00  0.00    +0.000 A 
ATOM      3  C   UNL     1      47.886   6.879  12.896  0.00  0.00    +0.000 A 
ATOM      4  F   UNL     1      48.767   7.875  12.735  0.00  0.00    +0.000 F 
ATOM      5  C   UNL     1      46.938   6.640  11.903  0.00  0.00    +0.000 A 
ATOM      6  C   UNL     1      46.010   5.598  12.044  0.00  0.00    +0.000 A 
ATOM      7  C   UNL     1      46.066   4.828  13.218  0.00  0.00    +0.000 A 
ENDROOT
BRANCH   6   8
ATOM      8  C   UNL     1      44.983   5.351  10.944  0.00  0.00    +0.000 C 
ATOM      9  C   UNL     1      43.539   5.434  11.467  0.00  0.00    +0.000 C 
ATOM     10  C   UNL     1      43.093   4.143  12.152  0.00  0.00    +0.000 C 
ATOM     11  C   UNL     1      43.371   2.908  11.296  0.00  0.00    +0.000 C 
ATOM     12  N   UNL     1      44.761   2.833  10.852  0.00  0.00    +0.000 NA
ATOM     13  C   UNL     1      45.178   4.045  10.138  0.00  0.00    +0.000 C 
ATOM     14  H   UNL     1      44.890   2.020  10.251  0.00  0.00    +0.000 HD
ENDBRANCH   6   8
BRANCH   1  15
ATOM     15  C   UNL     1      47.029   4.203  15.468  0.00  0.00    +0.000 C 
BRANCH  15  16
ATOM     16  O   UNL     1      47.920   4.801  16.412  0.00  0.00    +0.000 OA
BRANCH  16  20
ATOM     17  C   UNL     1      50.947   2.263  17.348  0.00  0.00    +0.000 A 
ATOM     18  C   UNL     1      51.114   3.633  17.506  0.00  0.00    +0.000 A 
ATOM     19  N   UNL     1      50.135   4.531  17.211  0.00  0.00    +0.000 NA
ATOM     20  C   UNL     1      48.980   3.993  16.755  0.00  0.00    +0.000 A 
ATOM     21  C   UNL     1      48.813   2.619  16.602  0.00  0.00    +0.000 A 
ATOM     22  N   UNL     1      49.786   1.715  16.888  0.00  0.00    +0.000 NA
BRANCH  17  24
ATOM     23  N   UNL     1      51.697   0.106  18.153  0.00  0.00    +0.000 N 
ATOM     24  C   UNL     1      52.064   1.336  17.677  0.00  0.00    +0.000 C 
ATOM     25  O   UNL     1      53.239   1.648  17.527  0.00  0.00    +0.000 OA
ATOM     26  H   UNL     1      52.406  -0.573  18.382  0.00  0.00    +0.000 HD
ATOM     27  H   UNL     1      50.714  -0.129  18.248  0.00  0.00    +0.000 HD
ENDBRANCH  17  24
ENDBRANCH  16  20
ENDBRANCH  15  16
ENDBRANCH   1  15
TORSDOF 5
ENDMDL
MODEL 7
REMARK VINA RESULT:    -7.211      4.036      7.454
REMARK INTER + INTRA:          -9.454
REMARK INTER:                  -9.086
REMARK INTRA:                  -0.367
REMARK UNBOUND:                -0.134
REMARK  Name = 
REMARK  5 active torsions:
REMARK  status: ('A' for Active; 'I' for Inactive)
REMARK    1  A    between atoms: C_2  and  C_4
REMARK    2  A    between atoms: C_7  and  O_8
REMARK    3  A    between atoms: O_8  and  C_9
REMARK    4  A    between atoms: C_9  and  C_10
REMARK    5  A    between atoms: C_15  and  C_16
REMARK                            x       y       z     vdW  Elec       q    Type
REMARK                         _______ _______ _______ _____ _____    ______ ____
ROOT
ATOM      1  C   UNL     1      47.232   7.190  12.316  0.00  0.00    +0.000 A 
ATOM      2  C   UNL     1      46.753   8.501  12.399  0.00  0.00    +0.000 A 
ATOM      3  C   UNL     1      45.469   8.795  11.954  0.00  0.00    +0.000 A 
ATOM      4  F   UNL     1      45.019  10.053  12.034  0.00  0.00    +0.000 F 
ATOM      5  C   UNL     1      44.641   7.807  11.424  0.00  0.00    +0.000 A 
ATOM      6  C   UNL     1      45.093   6.483  11.321  0.00  0.00    +0.000 A 
ATOM      7  C   UNL     1      46.390   6.198  11.782  0.00  0.00    +0.000 A 
ENDROOT
BRANCH   6   8
ATOM      8  C   UNL     1      44.172   5.417  10.736  0.00  0.00    +0.000 C 
ATOM      9  C   UNL     1      42.863   5.281  11.530  0.00  0.00    +0.000 C 
ATOM     10  C   UNL     1      43.030   4.426  12.786  0.00  0.00    +0.000 C 
ATOM     11  C   UNL     1      43.717   3.092  12.489  0.00  0.00    +0.000 C 
ATOM     12  N   UNL     1      44.980   3.257  11.775  0.00  0.00    +0.000 NA
ATOM     13  C   UNL     1      44.816   4.025  10.535  0.00  0.00    +0.000 C 
ATOM     14  H   UNL     1      45.380   2.344  11.562  0.00  0.00    +0.000 HD
ENDBRANCH   6   8
BRANCH   1  15
ATOM     15  C   UNL     1      48.616   6.821  12.799  0.00  0.00    +0.000 C 
BRANCH  15  16
ATOM     16  O   UNL     1      48.717   7.197  14.174  0.00  0.00    +0.000 OA
BRANCH  16  20
ATOM     17  C   UNL     1      47.880   4.299  16.891  0.00  0.00    +0.000 A 
ATOM     18  C   UNL     1      47.325   4.241  15.620  0.00  0.00    +0.000 A 
ATOM     19  N   UNL     1      47.571   5.182  14.668  0.00  0.00    +0.000 NA
ATOM     20  C   UNL     1      48.403   6.180  15.046  0.00  0.00    +0.000 A 
ATOM     21  C   UNL     1      48.962   6.234  16.321  0.00  0.00    +0.000 A 
ATOM     22  N   UNL     1      48.717   5.303  17.280  0.00  0.00    +0.000 NA
BRANCH  17  24
ATOM     23  N   UNL     1      48.386   3.183  18.980  0.00  0.00    +0.000 N 
ATOM     24  C   UNL     1      47.559   3.244  17.892  0.00  0.00    +0.000 C 
ATOM     25  O   UNL     1      46.611   2.481  17.754  0.00  0.00    +0.000 OA
ATOM     26  H   UNL     1      48.214   2.500  19.700  0.00  0.00    +0.000 HD
ATOM     27  H   UNL     1      49.151   3.844  19.074  0.00  0.00    +0.000 HD
ENDBRANCH  17  24
ENDBRANCH  16  20
ENDBRANCH  15  16
ENDBRANCH   1  15
TORSDOF 5
ENDMDL
MODEL 8
REMARK VINA RESULT:    -7.052      3.849      6.097
REMARK INTER + INTRA:          -9.247
REMARK INTER:                  -8.745
REMARK INTRA:                  -0.503
REMARK UNBOUND:                -0.134
REMARK  Name = 
REMARK  5 active torsions:
REMARK  status: ('A' for Active; 'I' for Inactive)
REMARK    1  A    between atoms: C_2  and  C_4
REMARK    2  A    between atoms: C_7  and  O_8
REMARK    3  A    between atoms: O_8  and  C_9
REMARK    4  A    between atoms: C_9  and  C_10
REMARK    5  A    between atoms: C_15  and  C_16
REMARK                            x       y       z     vdW  Elec       q    Type
REMARK                         _______ _______ _______ _____ _____    ______ ____
ROOT
ATOM      1  C   UNL     1      49.041   7.126  15.004  0.00  0.00    +0.000 A 
ATOM      2  C   UNL     1      50.358   7.564  14.842  0.00  0.00    +0.000 A 
ATOM      3  C   UNL     1      51.341   7.132  15.726  0.00  0.00    +0.000 A 
ATOM      4  F   UNL     1      52.601   7.558  15.567  0.00  0.00    +0.000 F 
ATOM      5  C   UNL     1      51.042   6.264  16.775  0.00  0.00    +0.000 A 
ATOM      6  C   UNL     1      49.729   5.811  16.968  0.00  0.00    +0.000 A 
ATOM      7  C   UNL     1      48.747   6.249  16.064  0.00  0.00    +0.000 A 
ENDROOT
BRANCH   6   8
ATOM      8  C   UNL     1      49.423   4.864  18.124  0.00  0.00    +0.000 C 
ATOM      9  C   UNL     1      49.768   3.404  17.786  0.00  0.00    +0.000 C 
ATOM     10  C   UNL     1      48.676   2.724  16.960  0.00  0.00    +0.000 C 
ATOM     11  C   UNL     1      47.288   2.907  17.574  0.00  0.00    +0.000 C 
ATOM     12  N   UNL     1      46.972   4.308  17.841  0.00  0.00    +0.000 NA
ATOM     13  C   UNL     1      47.984   4.951  18.686  0.00  0.00    +0.000 C 
ATOM     14  H   UNL     1      46.058   4.378  18.288  0.00  0.00    +0.000 HD
ENDBRANCH   6   8
BRANCH   1  15
ATOM     15  C   UNL     1      47.942   7.560  14.061  0.00  0.00    +0.000 C 
BRANCH  15  16
ATOM     16  O   UNL     1      48.092   6.829  12.842  0.00  0.00    +0.000 OA
BRANCH  16  20
ATOM     17  C   UNL     1      44.906   4.417  12.130  0.00  0.00    +0.000 A 
ATOM     18  C   UNL     1      45.260   5.393  11.207  0.00  0.00    +0.000 A 
ATOM     19  N   UNL     1      46.318   6.228  11.390  0.00  0.00    +0.000 NA
ATOM     20  C   UNL     1      47.009   6.038  12.538  0.00  0.00    +0.000 A 
ATOM     21  C   UNL     1      46.655   5.056  13.460  0.00  0.00    +0.000 A 
ATOM     22  N   UNL     1      45.597   4.221  13.289  0.00  0.00    +0.000 NA
BRANCH  17  24
ATOM     23  N   UNL     1      43.750   2.319  12.485  0.00  0.00    +0.000 N 
ATOM     24  C   UNL     1      43.728   3.544  11.874  0.00  0.00    +0.000 C 
ATOM     25  O   UNL     1      42.794   3.899  11.166  0.00  0.00    +0.000 OA
ATOM     26  H   UNL     1      42.975   1.687  12.363  0.00  0.00    +0.000 HD
ATOM     27  H   UNL     1      44.530   2.064  13.081  0.00  0.00    +0.000 HD
ENDBRANCH  17  24
ENDBRANCH  16  20
ENDBRANCH  15  16
ENDBRANCH   1  15
TORSDOF 5
ENDMDL
MODEL 9
REMARK VINA RESULT:    -7.012      3.910      5.808
REMARK INTER + INTRA:          -9.196
REMARK INTER:                  -8.543
REMARK INTRA:                  -0.654
REMARK UNBOUND:                -0.134
REMARK  Name = 
REMARK  5 active torsions:
REMARK  status: ('A' for Active; 'I' for Inactive)
REMARK    1  A    between atoms: C_2  and  C_4
REMARK    2  A    between atoms: C_7  and  O_8
REMARK    3  A    between atoms: O_8  and  C_9
REMARK    4  A    between atoms: C_9  and  C_10
REMARK    5  A    between atoms: C_15  and  C_16
REMARK                            x       y       z     vdW  Elec       q    Type
REMARK                         _______ _______ _______ _____ _____    ______ ____
ROOT
ATOM      1  C   UNL     1      48.446   6.701  14.895  0.00  0.00    +0.000 A 
ATOM      2  C   UNL     1      48.857   7.866  15.549  0.00  0.00    +0.000 A 
ATOM      3  C   UNL     1      49.163   7.822  16.905  0.00  0.00    +0.000 A 
ATOM      4  F   UNL     1      49.553   8.942  17.527  0.00  0.00    +0.000 F 
ATOM      5  C   UNL     1      49.071   6.636  17.632  0.00  0.00    +0.000 A 
ATOM      6  C   UNL     1      48.656   5.451  17.006  0.00  0.00    +0.000 A 
ATOM      7  C   UNL     1      48.357   5.507  15.634  0.00  0.00    +0.000 A 
ENDROOT
BRANCH   6   8
ATOM      8  C   UNL     1      48.560   4.165  17.820  0.00  0.00    +0.000 C 
ATOM      9  C   UNL     1      49.859   3.863  18.585  0.00  0.00    +0.000 C 
ATOM     10  C   UNL     1      50.917   3.205  17.699  0.00  0.00    +0.000 C 
ATOM     11  C   UNL     1      50.361   2.010  16.925  0.00  0.00    +0.000 C 
ATOM     12  N   UNL     1      49.153   2.340  16.172  0.00  0.00    +0.000 NA
ATOM     13  C   UNL     1      48.109   2.914  17.028  0.00  0.00    +0.000 C 
ATOM     14  H   UNL     1      48.795   1.506  15.708  0.00  0.00    +0.000 HD
ENDBRANCH   6   8
BRANCH   1  15
ATOM     15  C   UNL     1      48.115   6.698  13.420  0.00  0.00    +0.000 C 
BRANCH  15  16
ATOM     16  O   UNL     1      46.713   6.940  13.283  0.00  0.00    +0.000 OA
BRANCH  16  20
ATOM     17  C   UNL     1      44.684   3.851  11.604  0.00  0.00    +0.000 A 
ATOM     18  C   UNL     1      45.107   4.914  10.817  0.00  0.00    +0.000 A 
ATOM     19  N   UNL     1      45.792   5.975  11.323  0.00  0.00    +0.000 NA
ATOM     20  C   UNL     1      46.039   5.919  12.653  0.00  0.00    +0.000 A 
ATOM     21  C   UNL     1      45.617   4.850  13.439  0.00  0.00    +0.000 A 
ATOM     22  N   UNL     1      44.927   3.790  12.944  0.00  0.00    +0.000 NA
BRANCH  17  24
ATOM     23  N   UNL     1      44.458   2.206   9.841  0.00  0.00    +0.000 N 
ATOM     24  C   UNL     1      43.925   2.727  10.989  0.00  0.00    +0.000 C 
ATOM     25  O   UNL     1      42.892   2.290  11.481  0.00  0.00    +0.000 OA
ATOM     26  H   UNL     1      44.000   1.434   9.384  0.00  0.00    +0.000 HD
ATOM     27  H   UNL     1      45.327   2.578   9.470  0.00  0.00    +0.000 HD
ENDBRANCH  17  24
ENDBRANCH  16  20
ENDBRANCH  15  16
ENDBRANCH   1  15
TORSDOF 5
ENDMDL
