MODEL 1
REMARK VINA RESULT:    -7.325      0.000      0.000
REMARK INTER + INTRA:         -11.377
REMARK INTER:                  -9.894
REMARK INTRA:                  -1.483
REMARK UNBOUND:                -1.483
REMARK  Name = 
REMARK  7 active torsions:
REMARK  status: ('A' for Active; 'I' for Inactive)
REMARK    1  A    between atoms: C_1  and  C_2
REMARK    2  A    between atoms: C_2  and  N_3
REMARK    3  A    between atoms: C_2  and  C_16
REMARK    4  A    between atoms: C_4  and  C_6
REMARK    5  A    between atoms: C_19  and  O_20
REMARK    6  A    between atoms: O_20  and  C_21
REMARK    7  A    between atoms: C_26  and  C_27
REMARK                            x       y       z     vdW  Elec       q    Type
REMARK                         _______ _______ _______ _____ _____    ______ ____
ROOT
ATOM      1  C   UNL     1      48.110   9.317  14.142  0.00  0.00    +0.000 C 
ATOM      2  C   UNL     1      48.361   7.804  14.189  0.00  0.00    +0.000 C 
ENDROOT
BRANCH   2   3
ATOM      3  C   UNL     1      47.411   7.146  13.196  0.00  0.00    +0.000 A 
ATOM      4  C   UNL     1      46.711   7.948  12.281  0.00  0.00    +0.000 A 
ATOM      5  C   UNL     1      45.740   7.393  11.444  0.00  0.00    +0.000 A 
ATOM      6  C   UNL     1      45.501   6.017  11.459  0.00  0.00    +0.000 A 
ATOM      7  C   UNL     1      46.177   5.214  12.376  0.00  0.00    +0.000 A 
ATOM      8  C   UNL     1      47.116   5.774  13.246  0.00  0.00    +0.000 A 
BRANCH   6   9
ATOM      9  O   UNL     1      44.578   5.371  10.668  0.00  0.00    +0.000 OA
BRANCH   9  10
ATOM     10  C   UNL     1      44.992   4.464   9.715  0.00  0.00    +0.000 A 
ATOM     11  C   UNL     1      45.863   4.809   8.670  0.00  0.00    +0.000 A 
ATOM     12  C   UNL     1      46.222   3.865   7.708  0.00  0.00    +0.000 A 
ATOM     13  C   UNL     1      45.768   2.554   7.820  0.00  0.00    +0.000 A 
ATOM     14  C   UNL     1      44.962   2.183   8.900  0.00  0.00    +0.000 A 
ATOM     15  C   UNL     1      44.567   3.134   9.854  0.00  0.00    +0.000 A 
BRANCH  15  16
ATOM     16  C   UNL     1      43.739   2.720  10.956  0.00  0.00    +0.000 C 
ATOM     17  N   UNL     1      43.052   2.418  11.841  0.00  0.00    +0.000 NA
ENDBRANCH  15  16
ENDBRANCH   9  10
ENDBRANCH   6   9
ENDBRANCH   2   3
BRANCH   2  18
ATOM     18  N   UNL     1      48.215   7.244  15.525  0.00  0.00    +0.000 N 
ATOM     19  C   UNL     1      49.243   6.592  16.158  0.00  0.00    +0.000 C 
ATOM     20  O   UNL     1      50.360   6.479  15.665  0.00  0.00    +0.000 OA
ATOM     21  H   UNL     1      47.269   7.015  15.817  0.00  0.00    +0.000 HD
BRANCH  19  22
ATOM     22  C   UNL     1      48.966   6.071  17.501  0.00  0.00    +0.000 A 
ATOM     23  C   UNL     1      49.156   4.720  17.758  0.00  0.00    +0.000 A 
ATOM     24  S   UNL     1      48.750   4.262  19.349  0.00  0.00    +0.000 S 
ATOM     25  C   UNL     1      48.277   5.848  19.739  0.00  0.00    +0.000 A 
ATOM     26  N   UNL     1      47.762   6.143  20.963  0.00  0.00    +0.000 NA
ATOM     27  C   UNL     1      47.420   7.379  21.114  0.00  0.00    +0.000 A 
ATOM     28  N   UNL     1      47.565   8.351  20.159  0.00  0.00    +0.000 N 
ATOM     29  C   UNL     1      48.121   8.109  18.924  0.00  0.00    +0.000 A 
ATOM     30  O   UNL     1      48.316   9.014  18.118  0.00  0.00    +0.000 OA
ATOM     31  C   UNL     1      48.474   6.725  18.687  0.00  0.00    +0.000 A 
ATOM     32  H   UNL     1      47.304   9.308  20.354  0.00  0.00    +0.000 HD
ENDBRANCH  19  22
ENDBRANCH   2  18
TORSDOF 6
ENDMDL
MODEL 2
REMARK VINA RESULT:    -7.238      1.337      2.083
REMARK INTER + INTRA:         -11.259
REMARK INTER:                 -10.224
REMARK INTRA:                  -1.034
REMARK UNBOUND:                -1.483
REMARK  Name = 
REMARK  7 active torsions:
REMARK  status: ('A' for Active; 'I' for Inactive)
REMARK    1  A    between atoms: C_1  and  C_2
REMARK    2  A    between atoms: C_2  and  N_3
REMARK    3  A    between atoms: C_2  and  C_16
REMARK    4  A    between atoms: C_4  and  C_6
REMARK    5  A    between atoms: C_19  and  O_20
REMARK    6  A    between atoms: O_20  and  C_21
REMARK    7  A    between atoms: C_26  and  C_27
REMARK                            x       y       z     vdW  Elec       q    Type
REMARK                         _______ _______ _______ _____ _____    ______ ____
ROOT
ATOM      1  C   UNL     1      49.313   8.623  13.552  0.00  0.00    +0.000 C 
ATOM      2  C   UNL     1      48.850   7.289  14.153  0.00  0.00    +0.000 C 
ENDROOT
BRANCH   2   3
ATOM      3  C   UNL     1      47.667   6.796  13.328  0.00  0.00    +0.000 A 
ATOM      4  C   UNL     1      47.094   5.550  13.628  0.00  0.00    +0.000 A 
ATOM      5  C   UNL     1      46.095   5.011  12.814  0.00  0.00    +0.000 A 
ATOM      6  C   UNL     1      45.603   5.738  11.728  0.00  0.00    +0.000 A 
ATOM      7  C   UNL     1      46.177   6.969  11.411  0.00  0.00    +0.000 A 
ATOM      8  C   UNL     1      47.208   7.489  12.196  0.00  0.00    +0.000 A 
BRANCH   6   9
ATOM      9  O   UNL     1      44.613   5.304  10.875  0.00  0.00    +0.000 OA
BRANCH   9  10
ATOM     10  C   UNL     1      44.891   4.357   9.912  0.00  0.00    +0.000 A 
ATOM     11  C   UNL     1      45.626   4.649   8.752  0.00  0.00    +0.000 A 
ATOM     12  C   UNL     1      45.847   3.666   7.789  0.00  0.00    +0.000 A 
ATOM     13  C   UNL     1      45.397   2.367   8.008  0.00  0.00    +0.000 A 
ATOM     14  C   UNL     1      44.731   2.049   9.195  0.00  0.00    +0.000 A 
ATOM     15  C   UNL     1      44.472   3.040  10.155  0.00  0.00    +0.000 A 
BRANCH  15  16
ATOM     16  C   UNL     1      43.787   2.680  11.368  0.00  0.00    +0.000 C 
ATOM     17  N   UNL     1      43.266   2.397  12.365  0.00  0.00    +0.000 NA
ENDBRANCH  15  16
ENDBRANCH   9  10
ENDBRANCH   6   9
ENDBRANCH   2   3
BRANCH   2  18
ATOM     18  N   UNL     1      48.516   7.388  15.566  0.00  0.00    +0.000 N 
ATOM     19  C   UNL     1      49.250   6.750  16.535  0.00  0.00    +0.000 C 
ATOM     20  O   UNL     1      50.255   6.096  16.281  0.00  0.00    +0.000 OA
ATOM     21  H   UNL     1      47.549   7.612  15.788  0.00  0.00    +0.000 HD
BRANCH  19  22
ATOM     22  C   UNL     1      48.807   6.926  17.922  0.00  0.00    +0.000 A 
ATOM     23  C   UNL     1      48.511   8.201  18.384  0.00  0.00    +0.000 A 
ATOM     24  S   UNL     1      48.053   8.245  20.025  0.00  0.00    +0.000 S 
ATOM     25  C   UNL     1      48.263   6.565  20.182  0.00  0.00    +0.000 A 
ATOM     26  N   UNL     1      48.084   5.947  21.380  0.00  0.00    +0.000 NA
ATOM     27  C   UNL     1      48.302   4.674  21.362  0.00  0.00    +0.000 A 
ATOM     28  N   UNL     1      48.663   3.960  20.248  0.00  0.00    +0.000 N 
ATOM     29  C   UNL     1      48.812   4.535  19.007  0.00  0.00    +0.000 A 
ATOM     30  O   UNL     1      49.053   3.861  18.011  0.00  0.00    +0.000 OA
ATOM     31  C   UNL     1      48.628   5.972  18.986  0.00  0.00    +0.000 A 
ATOM     32  H   UNL     1      48.788   2.959  20.297  0.00  0.00    +0.000 HD
ENDBRANCH  19  22
ENDBRANCH   2  18
TORSDOF 6
ENDMDL
MODEL 3
REMARK VINA RESULT:    -6.964      3.367      8.808
REMARK INTER + INTRA:         -10.889
REMARK INTER:                  -9.503
REMARK INTRA:                  -1.386
REMARK UNBOUND:                -1.483
REMARK  Name = 
REMARK  7 active torsions:
REMARK  status: ('A' for Active; 'I' for Inactive)
REMARK    1  A    between atoms: C_1  and  C_2
REMARK    2  A    between atoms: C_2  and  N_3
REMARK    3  A    between atoms: C_2  and  C_16
REMARK    4  A    between atoms: C_4  and  C_6
REMARK    5  A    between atoms: C_19  and  O_20
REMARK    6  A    between atoms: O_20  and  C_21
REMARK    7  A    between atoms: C_26  and  C_27
REMARK                            x       y       z     vdW  Elec       q    Type
REMARK                         _______ _______ _______ _____ _____    ______ ____
ROOT
ATOM      1  C   UNL     1      49.483   7.928  12.660  0.00  0.00    +0.000 C 
ATOM      2  C   UNL     1      48.255   7.360  13.383  0.00  0.00    +0.000 C 
ENDROOT
BRANCH   2   3
ATOM      3  C   UNL     1      48.731   6.760  14.701  0.00  0.00    +0.000 A 
ATOM      4  C   UNL     1      49.994   7.114  15.200  0.00  0.00    +0.000 A 
ATOM      5  C   UNL     1      50.513   6.487  16.336  0.00  0.00    +0.000 A 
ATOM      6  C   UNL     1      49.750   5.547  17.031  0.00  0.00    +0.000 A 
ATOM      7  C   UNL     1      48.502   5.174  16.534  0.00  0.00    +0.000 A 
ATOM      8  C   UNL     1      48.000   5.766  15.373  0.00  0.00    +0.000 A 
BRANCH   6   9
ATOM      9  O   UNL     1      50.162   4.884  18.165  0.00  0.00    +0.000 OA
BRANCH   9  10
ATOM     10  C   UNL     1      50.981   3.778  18.065  0.00  0.00    +0.000 A 
ATOM     11  C   UNL     1      50.577   2.592  17.434  0.00  0.00    +0.000 A 
ATOM     12  C   UNL     1      51.429   1.488  17.393  0.00  0.00    +0.000 A 
ATOM     13  C   UNL     1      52.713   1.583  17.921  0.00  0.00    +0.000 A 
ATOM     14  C   UNL     1      53.151   2.785  18.483  0.00  0.00    +0.000 A 
ATOM     15  C   UNL     1      52.289   3.891  18.561  0.00  0.00    +0.000 A 
BRANCH  15  16
ATOM     16  C   UNL     1      52.771   5.116  19.143  0.00  0.00    +0.000 C 
ATOM     17  N   UNL     1      53.138   6.123  19.587  0.00  0.00    +0.000 NA
ENDBRANCH  15  16
ENDBRANCH   9  10
ENDBRANCH   6   9
ENDBRANCH   2   3
BRANCH   2  18
ATOM     18  N   UNL     1      47.523   6.389  12.584  0.00  0.00    +0.000 N 
ATOM     19  C   UNL     1      46.424   6.738  11.839  0.00  0.00    +0.000 C 
ATOM     20  O   UNL     1      46.016   7.892  11.761  0.00  0.00    +0.000 OA
ATOM     21  H   UNL     1      47.599   5.417  12.871  0.00  0.00    +0.000 HD
BRANCH  19  22
ATOM     22  C   UNL     1      45.773   5.665  11.080  0.00  0.00    +0.000 A 
ATOM     23  C   UNL     1      45.854   5.666   9.695  0.00  0.00    +0.000 A 
ATOM     24  S   UNL     1      45.011   4.381   8.959  0.00  0.00    +0.000 S 
ATOM     25  C   UNL     1      44.484   3.795  10.466  0.00  0.00    +0.000 A 
ATOM     26  N   UNL     1      43.657   2.719  10.547  0.00  0.00    +0.000 NA
ATOM     27  C   UNL     1      43.315   2.399  11.751  0.00  0.00    +0.000 A 
ATOM     28  N   UNL     1      43.741   3.046  12.882  0.00  0.00    +0.000 N 
ATOM     29  C   UNL     1      44.613   4.111  12.850  0.00  0.00    +0.000 A 
ATOM     30  O   UNL     1      45.045   4.619  13.881  0.00  0.00    +0.000 OA
ATOM     31  C   UNL     1      44.986   4.540  11.518  0.00  0.00    +0.000 A 
ATOM     32  H   UNL     1      43.459   2.724  13.796  0.00  0.00    +0.000 HD
ENDBRANCH  19  22
ENDBRANCH   2  18
TORSDOF 6
ENDMDL
MODEL 4
REMARK VINA RESULT:    -6.738      2.999      9.560
REMARK INTER + INTRA:         -10.583
REMARK INTER:                  -9.483
REMARK INTRA:                  -1.100
REMARK UNBOUND:                -1.483
REMARK  Name = 
REMARK  7 active torsions:
REMARK  status: ('A' for Active; 'I' for Inactive)
REMARK    1  A    between atoms: C_1  and  C_2
REMARK    2  A    between atoms: C_2  and  N_3
REMARK    3  A    between atoms: C_2  and  C_16
REMARK    4  A    between atoms: C_4  and  C_6
REMARK    5  A    between atoms: C_19  and  O_20
REMARK    6  A    between atoms: O_20  and  C_21
REMARK    7  A    between atoms: C_26  and  C_27
REMARK                            x       y       z     vdW  Elec       q    Type
REMARK                         _______ _______ _______ _____ _____    ______ ____
ROOT
ATOM      1  C   UNL     1      47.521   3.206  16.982  0.00  0.00    +0.000 C 
ATOM      2  C   UNL     1      47.921   4.464  16.202  0.00  0.00    +0.000 C 
ENDROOT
BRANCH   2   3
ATOM      3  C   UNL     1      48.106   5.593  17.208  0.00  0.00    +0.000 A 
ATOM      4  C   UNL     1      49.195   6.467  17.066  0.00  0.00    +0.000 A 
ATOM      5  C   UNL     1      49.466   7.432  18.040  0.00  0.00    +0.000 A 
ATOM      6  C   UNL     1      48.614   7.585  19.135  0.00  0.00    +0.000 A 
ATOM      7  C   UNL     1      47.539   6.711  19.296  0.00  0.00    +0.000 A 
ATOM      8  C   UNL     1      47.293   5.716  18.347  0.00  0.00    +0.000 A 
BRANCH   6   9
ATOM      9  O   UNL     1      48.784   8.511  20.140  0.00  0.00    +0.000 OA
BRANCH   9  10
ATOM     10  C   UNL     1      47.705   9.226  20.616  0.00  0.00    +0.000 A 
ATOM     11  C   UNL     1      47.116   8.966  21.864  0.00  0.00    +0.000 A 
ATOM     12  C   UNL     1      46.002   9.691  22.284  0.00  0.00    +0.000 A 
ATOM     13  C   UNL     1      45.509  10.726  21.493  0.00  0.00    +0.000 A 
ATOM     14  C   UNL     1      46.136  11.042  20.285  0.00  0.00    +0.000 A 
ATOM     15  C   UNL     1      47.237  10.295  19.837  0.00  0.00    +0.000 A 
BRANCH  15  16
ATOM     16  C   UNL     1      47.862  10.647  18.589  0.00  0.00    +0.000 C 
ATOM     17  N   UNL     1      48.397  10.944  17.603  0.00  0.00    +0.000 NA
ENDBRANCH  15  16
ENDBRANCH   9  10
ENDBRANCH   6   9
ENDBRANCH   2   3
BRANCH   2  18
ATOM     18  N   UNL     1      46.963   4.819  15.165  0.00  0.00    +0.000 N 
ATOM     19  C   UNL     1      47.335   5.492  14.028  0.00  0.00    +0.000 C 
ATOM     20  O   UNL     1      48.499   5.797  13.789  0.00  0.00    +0.000 OA
ATOM     21  H   UNL     1      45.992   4.898  15.455  0.00  0.00    +0.000 HD
BRANCH  19  22
ATOM     22  C   UNL     1      46.274   5.794  13.062  0.00  0.00    +0.000 A 
ATOM     23  C   UNL     1      46.007   7.116  12.736  0.00  0.00    +0.000 A 
ATOM     24  S   UNL     1      44.719   7.304  11.636  0.00  0.00    +0.000 S 
ATOM     25  C   UNL     1      44.454   5.625  11.580  0.00  0.00    +0.000 A 
ATOM     26  N   UNL     1      43.435   5.102  10.849  0.00  0.00    +0.000 NA
ATOM     27  C   UNL     1      43.332   3.816  10.918  0.00  0.00    +0.000 A 
ATOM     28  N   UNL     1      44.171   3.005  11.638  0.00  0.00    +0.000 N 
ATOM     29  C   UNL     1      45.242   3.485  12.356  0.00  0.00    +0.000 A 
ATOM     30  O   UNL     1      46.027   2.730  12.923  0.00  0.00    +0.000 OA
ATOM     31  C   UNL     1      45.368   4.928  12.351  0.00  0.00    +0.000 A 
ATOM     32  H   UNL     1      44.053   2.001  11.624  0.00  0.00    +0.000 HD
ENDBRANCH  19  22
ENDBRANCH   2  18
TORSDOF 6
ENDMDL
MODEL 5
REMARK VINA RESULT:    -6.655      3.521      8.837
REMARK INTER + INTRA:         -10.472
REMARK INTER:                  -9.399
REMARK INTRA:                  -1.073
REMARK UNBOUND:                -1.483
REMARK  Name = 
REMARK  7 active torsions:
REMARK  status: ('A' for Active; 'I' for Inactive)
REMARK    1  A    between atoms: C_1  and  C_2
REMARK    2  A    between atoms: C_2  and  N_3
REMARK    3  A    between atoms: C_2  and  C_16
REMARK    4  A    between atoms: C_4  and  C_6
REMARK    5  A    between atoms: C_19  and  O_20
REMARK    6  A    between atoms: O_20  and  C_21
REMARK    7  A    between atoms: C_26  and  C_27
REMARK                            x       y       z     vdW  Elec       q    Type
REMARK                         _______ _______ _______ _____ _____    ______ ____
ROOT
ATOM      1  C   UNL     1      49.272   7.722  12.798  0.00  0.00    +0.000 C 
ATOM      2  C   UNL     1      48.062   7.069  13.478  0.00  0.00    +0.000 C 
ENDROOT
BRANCH   2   3
ATOM      3  C   UNL     1      48.554   6.400  14.756  0.00  0.00    +0.000 A 
ATOM      4  C   UNL     1      47.804   5.354  15.316  0.00  0.00    +0.000 A 
ATOM      5  C   UNL     1      48.157   4.806  16.552  0.00  0.00    +0.000 A 
ATOM      6  C   UNL     1      49.304   5.246  17.214  0.00  0.00    +0.000 A 
ATOM      7  C   UNL     1      50.046   6.297  16.677  0.00  0.00    +0.000 A 
ATOM      8  C   UNL     1      49.669   6.878  15.464  0.00  0.00    +0.000 A 
BRANCH   6   9
ATOM      9  O   UNL     1      49.746   4.764  18.426  0.00  0.00    +0.000 OA
BRANCH   9  10
ATOM     10  C   UNL     1      51.078   4.456  18.609  0.00  0.00    +0.000 A 
ATOM     11  C   UNL     1      51.930   5.230  19.412  0.00  0.00    +0.000 A 
ATOM     12  C   UNL     1      53.279   4.900  19.533  0.00  0.00    +0.000 A 
ATOM     13  C   UNL     1      53.772   3.757  18.910  0.00  0.00    +0.000 A 
ATOM     14  C   UNL     1      52.914   2.938  18.170  0.00  0.00    +0.000 A 
ATOM     15  C   UNL     1      51.562   3.282  18.013  0.00  0.00    +0.000 A 
BRANCH  15  16
ATOM     16  C   UNL     1      50.703   2.416  17.249  0.00  0.00    +0.000 C 
ATOM     17  N   UNL     1      49.989   1.748  16.623  0.00  0.00    +0.000 NA
ENDBRANCH  15  16
ENDBRANCH   9  10
ENDBRANCH   6   9
ENDBRANCH   2   3
BRANCH   2  18
ATOM     18  N   UNL     1      47.362   6.128  12.614  0.00  0.00    +0.000 N 
ATOM     19  C   UNL     1      46.306   6.510  11.825  0.00  0.00    +0.000 C 
ATOM     20  O   UNL     1      45.912   7.669  11.760  0.00  0.00    +0.000 OA
ATOM     21  H   UNL     1      47.415   5.148  12.877  0.00  0.00    +0.000 HD
BRANCH  19  22
ATOM     22  C   UNL     1      45.685   5.466  11.003  0.00  0.00    +0.000 A 
ATOM     23  C   UNL     1      45.748   5.562   9.620  0.00  0.00    +0.000 A 
ATOM     24  S   UNL     1      44.944   4.297   8.809  0.00  0.00    +0.000 S 
ATOM     25  C   UNL     1      44.459   3.593  10.279  0.00  0.00    +0.000 A 
ATOM     26  N   UNL     1      43.673   2.484  10.297  0.00  0.00    +0.000 NA
ATOM     27  C   UNL     1      43.358   2.072  11.480  0.00  0.00    +0.000 A 
ATOM     28  N   UNL     1      43.775   2.659  12.647  0.00  0.00    +0.000 N 
ATOM     29  C   UNL     1      44.606   3.755  12.677  0.00  0.00    +0.000 A 
ATOM     30  O   UNL     1      45.032   4.209  13.735  0.00  0.00    +0.000 OA
ATOM     31  C   UNL     1      44.946   4.286  11.374  0.00  0.00    +0.000 A 
ATOM     32  H   UNL     1      43.516   2.266  13.541  0.00  0.00    +0.000 HD
ENDBRANCH  19  22
ENDBRANCH   2  18
TORSDOF 6
ENDMDL
MODEL 6
REMARK VINA RESULT:    -6.648      2.038      2.532
REMARK INTER + INTRA:         -10.463
REMARK INTER:                  -9.248
REMARK INTRA:                  -1.215
REMARK UNBOUND:                -1.483
REMARK  Name = 
REMARK  7 active torsions:
REMARK  status: ('A' for Active; 'I' for Inactive)
REMARK    1  A    between atoms: C_1  and  C_2
REMARK    2  A    between atoms: C_2  and  N_3
REMARK    3  A    between atoms: C_2  and  C_16
REMARK    4  A    between atoms: C_4  and  C_6
REMARK    5  A    between atoms: C_19  and  O_20
REMARK    6  A    between atoms: O_20  and  C_21
REMARK    7  A    between atoms: C_26  and  C_27
REMARK                            x       y       z     vdW  Elec       q    Type
REMARK                         _______ _______ _______ _____ _____    ______ ____
ROOT
ATOM      1  C   UNL     1      48.361   9.836  14.292  0.00  0.00    +0.000 C 
ATOM      2  C   UNL     1      48.579   8.345  14.004  0.00  0.00    +0.000 C 
ENDROOT
BRANCH   2   3
ATOM      3  C   UNL     1      47.489   7.896  13.038  0.00  0.00    +0.000 A 
ATOM      4  C   UNL     1      46.210   8.466  13.133  0.00  0.00    +0.000 A 
ATOM      5  C   UNL     1      45.156   7.988  12.350  0.00  0.00    +0.000 A 
ATOM      6  C   UNL     1      45.379   6.980  11.410  0.00  0.00    +0.000 A 
ATOM      7  C   UNL     1      46.641   6.393  11.320  0.00  0.00    +0.000 A 
ATOM      8  C   UNL     1      47.685   6.839  12.134  0.00  0.00    +0.000 A 
BRANCH   6   9
ATOM      9  O   UNL     1      44.415   6.449  10.583  0.00  0.00    +0.000 OA
BRANCH   9  10
ATOM     10  C   UNL     1      44.457   5.116  10.232  0.00  0.00    +0.000 A 
ATOM     11  C   UNL     1      45.132   4.655   9.091  0.00  0.00    +0.000 A 
ATOM     12  C   UNL     1      45.112   3.301   8.757  0.00  0.00    +0.000 A 
ATOM     13  C   UNL     1      44.478   2.389   9.596  0.00  0.00    +0.000 A 
ATOM     14  C   UNL     1      43.869   2.829  10.774  0.00  0.00    +0.000 A 
ATOM     15  C   UNL     1      43.853   4.195  11.101  0.00  0.00    +0.000 A 
BRANCH  15  16
ATOM     16  C   UNL     1      43.220   4.616  12.323  0.00  0.00    +0.000 C 
ATOM     17  N   UNL     1      42.741   4.945  13.327  0.00  0.00    +0.000 NA
ENDBRANCH  15  16
ENDBRANCH   9  10
ENDBRANCH   6   9
ENDBRANCH   2   3
BRANCH   2  18
ATOM     18  N   UNL     1      48.597   7.530  15.210  0.00  0.00    +0.000 N 
ATOM     19  C   UNL     1      49.755   6.974  15.696  0.00  0.00    +0.000 C 
ATOM     20  O   UNL     1      50.849   7.163  15.177  0.00  0.00    +0.000 OA
ATOM     21  H   UNL     1      47.723   7.079  15.464  0.00  0.00    +0.000 HD
BRANCH  19  22
ATOM     22  C   UNL     1      49.638   6.170  16.917  0.00  0.00    +0.000 A 
ATOM     23  C   UNL     1      50.408   6.500  18.024  0.00  0.00    +0.000 A 
ATOM     24  S   UNL     1      50.191   5.447  19.347  0.00  0.00    +0.000 S 
ATOM     25  C   UNL     1      49.083   4.496  18.475  0.00  0.00    +0.000 A 
ATOM     26  N   UNL     1      48.543   3.374  19.020  0.00  0.00    +0.000 NA
ATOM     27  C   UNL     1      47.739   2.734  18.238  0.00  0.00    +0.000 A 
ATOM     28  N   UNL     1      47.410   3.127  16.967  0.00  0.00    +0.000 N 
ATOM     29  C   UNL     1      47.895   4.278  16.391  0.00  0.00    +0.000 A 
ATOM     30  O   UNL     1      47.519   4.650  15.283  0.00  0.00    +0.000 OA
ATOM     31  C   UNL     1      48.843   5.004  17.210  0.00  0.00    +0.000 A 
ATOM     32  H   UNL     1      46.748   2.595  16.419  0.00  0.00    +0.000 HD
ENDBRANCH  19  22
ENDBRANCH   2  18
TORSDOF 6
ENDMDL
MODEL 7
REMARK VINA RESULT:    -6.611      3.173      8.540
REMARK INTER + INTRA:         -10.412
REMARK INTER:                  -9.304
REMARK INTRA:                  -1.108
REMARK UNBOUND:                -1.483
REMARK  Name = 
REMARK  7 active torsions:
REMARK  status: ('A' for Active; 'I' for Inactive)
REMARK    1  A    between atoms: C_1  and  C_2
REMARK    2  A    between atoms: C_2  and  N_3
REMARK    3  A    between atoms: C_2  and  C_16
REMARK    4  A    between atoms: C_4  and  C_6
REMARK    5  A    between atoms: C_19  and  O_20
REMARK    6  A    between atoms: O_20  and  C_21
REMARK    7  A    between atoms: C_26  and  C_27
REMARK                            x       y       z     vdW  Elec       q    Type
REMARK                         _______ _______ _______ _____ _____    ______ ____
ROOT
ATOM      1  C   UNL     1      49.384   8.704  11.572  0.00  0.00    +0.000 C 
ATOM      2  C   UNL     1      48.279   8.065  12.422  0.00  0.00    +0.000 C 
ENDROOT
BRANCH   2   3
ATOM      3  C   UNL     1      48.905   7.621  13.738  0.00  0.00    +0.000 A 
ATOM      4  C   UNL     1      50.213   8.027  14.048  0.00  0.00    +0.000 A 
ATOM      5  C   UNL     1      50.862   7.535  15.183  0.00  0.00    +0.000 A 
ATOM      6  C   UNL     1      50.191   6.684  16.064  0.00  0.00    +0.000 A 
ATOM      7  C   UNL     1      48.899   6.260  15.757  0.00  0.00    +0.000 A 
ATOM      8  C   UNL     1      48.264   6.714  14.599  0.00  0.00    +0.000 A 
BRANCH   6   9
ATOM      9  O   UNL     1      50.735   6.156  17.214  0.00  0.00    +0.000 OA
BRANCH   9  10
ATOM     10  C   UNL     1      49.936   5.907  18.310  0.00  0.00    +0.000 A 
ATOM     11  C   UNL     1      49.412   6.932  19.113  0.00  0.00    +0.000 A 
ATOM     12  C   UNL     1      48.642   6.628  20.234  0.00  0.00    +0.000 A 
ATOM     13  C   UNL     1      48.331   5.302  20.523  0.00  0.00    +0.000 A 
ATOM     14  C   UNL     1      48.785   4.279  19.685  0.00  0.00    +0.000 A 
ATOM     15  C   UNL     1      49.591   4.573  18.574  0.00  0.00    +0.000 A 
BRANCH  15  16
ATOM     16  C   UNL     1      50.039   3.498  17.729  0.00  0.00    +0.000 C 
ATOM     17  N   UNL     1      50.368   2.614  17.053  0.00  0.00    +0.000 NA
ENDBRANCH  15  16
ENDBRANCH   9  10
ENDBRANCH   6   9
ENDBRANCH   2   3
BRANCH   2  18
ATOM     18  N   UNL     1      47.608   6.963  11.748  0.00  0.00    +0.000 N 
ATOM     19  C   UNL     1      46.241   6.908  11.624  0.00  0.00    +0.000 C 
ATOM     20  O   UNL     1      45.503   7.799  12.029  0.00  0.00    +0.000 OA
ATOM     21  H   UNL     1      48.113   6.083  11.707  0.00  0.00    +0.000 HD
BRANCH  19  22
ATOM     22  C   UNL     1      45.689   5.743  10.926  0.00  0.00    +0.000 A 
ATOM     23  C   UNL     1      45.877   5.618   9.556  0.00  0.00    +0.000 A 
ATOM     24  S   UNL     1      45.139   4.235   8.887  0.00  0.00    +0.000 S 
ATOM     25  C   UNL     1      44.517   3.771  10.400  0.00  0.00    +0.000 A 
ATOM     26  N   UNL     1      43.724   2.674  10.523  0.00  0.00    +0.000 NA
ATOM     27  C   UNL     1      43.300   2.453  11.723  0.00  0.00    +0.000 A 
ATOM     28  N   UNL     1      43.615   3.221  12.815  0.00  0.00    +0.000 N 
ATOM     29  C   UNL     1      44.449   4.313  12.746  0.00  0.00    +0.000 A 
ATOM     30  O   UNL     1      44.782   4.932  13.752  0.00  0.00    +0.000 OA
ATOM     31  C   UNL     1      44.910   4.632  11.410  0.00  0.00    +0.000 A 
ATOM     32  H   UNL     1      43.274   2.974  13.733  0.00  0.00    +0.000 HD
ENDBRANCH  19  22
ENDBRANCH   2  18
TORSDOF 6
ENDMDL
MODEL 8
REMARK VINA RESULT:    -6.375      2.639      9.219
REMARK INTER + INTRA:         -10.093
REMARK INTER:                  -8.812
REMARK INTRA:                  -1.282
REMARK UNBOUND:                -1.483
REMARK  Name = 
REMARK  7 active torsions:
REMARK  status: ('A' for Active; 'I' for Inactive)
REMARK    1  A    between atoms: C_1  and  C_2
REMARK    2  A    between atoms: C_2  and  N_3
REMARK    3  A    between atoms: C_2  and  C_16
REMARK    4  A    between atoms: C_4  and  C_6
REMARK    5  A    between atoms: C_19  and  O_20
REMARK    6  A    between atoms: O_20  and  C_21
REMARK    7  A    between atoms: C_26  and  C_27
REMARK                            x       y       z     vdW  Elec       q    Type
REMARK                         _______ _______ _______ _____ _____    ______ ____
ROOT
ATOM      1  C   UNL     1      48.517   8.007  11.785  0.00  0.00    +0.000 C 
ATOM      2  C   UNL     1      47.377   7.640  12.743  0.00  0.00    +0.000 C 
ENDROOT
BRANCH   2   3
ATOM      3  C   UNL     1      47.968   7.523  14.143  0.00  0.00    +0.000 A 
ATOM      4  C   UNL     1      48.396   8.683  14.806  0.00  0.00    +0.000 A 
ATOM      5  C   UNL     1      49.058   8.600  16.034  0.00  0.00    +0.000 A 
ATOM      6  C   UNL     1      49.240   7.361  16.652  0.00  0.00    +0.000 A 
ATOM      7  C   UNL     1      48.836   6.200  15.994  0.00  0.00    +0.000 A 
ATOM      8  C   UNL     1      48.216   6.278  14.745  0.00  0.00    +0.000 A 
BRANCH   6   9
ATOM      9  O   UNL     1      49.866   7.172  17.864  0.00  0.00    +0.000 OA
BRANCH   9  10
ATOM     10  C   UNL     1      49.153   6.708  18.949  0.00  0.00    +0.000 A 
ATOM     11  C   UNL     1      48.045   7.391  19.475  0.00  0.00    +0.000 A 
ATOM     12  C   UNL     1      47.381   6.901  20.599  0.00  0.00    +0.000 A 
ATOM     13  C   UNL     1      47.775   5.692  21.165  0.00  0.00    +0.000 A 
ATOM     14  C   UNL     1      48.828   4.966  20.602  0.00  0.00    +0.000 A 
ATOM     15  C   UNL     1      49.526   5.468  19.491  0.00  0.00    +0.000 A 
BRANCH  15  16
ATOM     16  C   UNL     1      50.604   4.696  18.933  0.00  0.00    +0.000 C 
ATOM     17  N   UNL     1      51.481   4.060  18.517  0.00  0.00    +0.000 NA
ENDBRANCH  15  16
ENDBRANCH   9  10
ENDBRANCH   6   9
ENDBRANCH   2   3
BRANCH   2  18
ATOM     18  N   UNL     1      46.675   6.425  12.353  0.00  0.00    +0.000 N 
ATOM     19  C   UNL     1      45.378   6.445  11.904  0.00  0.00    +0.000 C 
ATOM     20  O   UNL     1      44.743   7.484  11.759  0.00  0.00    +0.000 OA
ATOM     21  H   UNL     1      47.012   5.557  12.761  0.00  0.00    +0.000 HD
BRANCH  19  22
ATOM     22  C   UNL     1      44.784   5.153  11.547  0.00  0.00    +0.000 A 
ATOM     23  C   UNL     1      43.994   4.487  12.474  0.00  0.00    +0.000 A 
ATOM     24  S   UNL     1      43.414   2.982  11.925  0.00  0.00    +0.000 S 
ATOM     25  C   UNL     1      44.223   3.154  10.439  0.00  0.00    +0.000 A 
ATOM     26  N   UNL     1      44.187   2.167   9.505  0.00  0.00    +0.000 NA
ATOM     27  C   UNL     1      44.866   2.419   8.435  0.00  0.00    +0.000 A 
ATOM     28  N   UNL     1      45.562   3.578   8.208  0.00  0.00    +0.000 N 
ATOM     29  C   UNL     1      45.591   4.621   9.105  0.00  0.00    +0.000 A 
ATOM     30  O   UNL     1      46.152   5.680   8.841  0.00  0.00    +0.000 OA
ATOM     31  C   UNL     1      44.885   4.366  10.344  0.00  0.00    +0.000 A 
ATOM     32  H   UNL     1      46.049   3.723   7.335  0.00  0.00    +0.000 HD
ENDBRANCH  19  22
ENDBRANCH   2  18
TORSDOF 6
ENDMDL
MODEL 9
REMARK VINA RESULT:    -6.280      1.932      2.859
REMARK INTER + INTRA:          -9.966
REMARK INTER:                  -8.709
REMARK INTRA:                  -1.257
REMARK UNBOUND:                -1.483
REMARK  Name = 
REMARK  7 active torsions:
REMARK  status: ('A' for Active; 'I' for Inactive)
REMARK    1  A    between atoms: C_1  and  C_2
REMARK    2  A    between atoms: C_2  and  N_3
REMARK    3  A    between atoms: C_2  and  C_16
REMARK    4  A    between atoms: C_4  and  C_6
REMARK    5  A    between atoms: C_19  and  O_20
REMARK    6  A    between atoms: O_20  and  C_21
REMARK    7  A    between atoms: C_26  and  C_27
REMARK                            x       y       z     vdW  Elec       q    Type
REMARK                         _______ _______ _______ _____ _____    ______ ____
ROOT
ATOM      1  C   UNL     1      48.734  10.383  14.024  0.00  0.00    +0.000 C 
ATOM      2  C   UNL     1      48.523   8.918  14.424  0.00  0.00    +0.000 C 
ENDROOT
BRANCH   2   3
ATOM      3  C   UNL     1      47.572   8.293  13.411  0.00  0.00    +0.000 A 
ATOM      4  C   UNL     1      46.301   8.858  13.223  0.00  0.00    +0.000 A 
ATOM      5  C   UNL     1      45.360   8.238  12.397  0.00  0.00    +0.000 A 
ATOM      6  C   UNL     1      45.696   7.081  11.693  0.00  0.00    +0.000 A 
ATOM      7  C   UNL     1      46.949   6.500  11.886  0.00  0.00    +0.000 A 
ATOM      8  C   UNL     1      47.876   7.093  12.746  0.00  0.00    +0.000 A 
BRANCH   6   9
ATOM      9  O   UNL     1      44.849   6.401  10.846  0.00  0.00    +0.000 OA
BRANCH   9  10
ATOM     10  C   UNL     1      44.380   5.150  11.188  0.00  0.00    +0.000 A 
ATOM     11  C   UNL     1      43.669   4.906  12.373  0.00  0.00    +0.000 A 
ATOM     12  C   UNL     1      43.251   3.615  12.693  0.00  0.00    +0.000 A 
ATOM     13  C   UNL     1      43.479   2.570  11.802  0.00  0.00    +0.000 A 
ATOM     14  C   UNL     1      44.120   2.818  10.584  0.00  0.00    +0.000 A 
ATOM     15  C   UNL     1      44.576   4.108  10.269  0.00  0.00    +0.000 A 
BRANCH  15  16
ATOM     16  C   UNL     1      45.229   4.331   9.006  0.00  0.00    +0.000 C 
ATOM     17  N   UNL     1      45.759   4.548   7.997  0.00  0.00    +0.000 NA
ENDBRANCH  15  16
ENDBRANCH   9  10
ENDBRANCH   6   9
ENDBRANCH   2   3
BRANCH   2  18
ATOM     18  N   UNL     1      48.032   8.765  15.786  0.00  0.00    +0.000 N 
ATOM     19  C   UNL     1      48.882   8.623  16.855  0.00  0.00    +0.000 C 
ATOM     20  O   UNL     1      50.102   8.661  16.742  0.00  0.00    +0.000 OA
ATOM     21  H   UNL     1      47.091   8.396  15.889  0.00  0.00    +0.000 HD
BRANCH  19  22
ATOM     22  C   UNL     1      48.262   8.474  18.176  0.00  0.00    +0.000 A 
ATOM     23  C   UNL     1      47.791   9.600  18.838  0.00  0.00    +0.000 A 
ATOM     24  S   UNL     1      47.139   9.267  20.376  0.00  0.00    +0.000 S 
ATOM     25  C   UNL     1      47.489   7.610  20.224  0.00  0.00    +0.000 A 
ATOM     26  N   UNL     1      47.229   6.745  21.239  0.00  0.00    +0.000 NA
ATOM     27  C   UNL     1      47.570   5.522  20.999  0.00  0.00    +0.000 A 
ATOM     28  N   UNL     1      48.129   5.084  19.826  0.00  0.00    +0.000 N 
ATOM     29  C   UNL     1      48.368   5.915  18.756  0.00  0.00    +0.000 A 
ATOM     30  O   UNL     1      48.791   5.483  17.687  0.00  0.00    +0.000 OA
ATOM     31  C   UNL     1      48.050   7.308  18.995  0.00  0.00    +0.000 A 
ATOM     32  H   UNL     1      48.343   4.106  19.692  0.00  0.00    +0.000 HD
ENDBRANCH  19  22
ENDBRANCH   2  18
TORSDOF 6
ENDMDL
