MODEL 1
REMARK VINA RESULT:    -7.709      0.000      0.000
REMARK INTER + INTRA:         -11.194
REMARK INTER:                 -10.413
REMARK INTRA:                  -0.781
REMARK UNBOUND:                -0.781
REMARK  Name = 
REMARK  7 active torsions:
REMARK  status: ('A' for Active; 'I' for Inactive)
REMARK    1  A    between atoms: C_1  and  N_2
REMARK    2  A    between atoms: C_6  and  C_7
REMARK    3  A    between atoms: N_9  and  C_10
REMARK    4  A    between atoms: C_10  and  C_11
REMARK    5  A    between atoms: C_14  and  C_15
REMARK    6  A    between atoms: C_15  and  N_16
REMARK    7  A    between atoms: C_17  and  C_19
REMARK                            x       y       z     vdW  Elec       q    Type
REMARK                         _______ _______ _______ _____ _____    ______ ____
ROOT
ATOM      1  C   UNL     1      45.414   6.888  12.591  0.00  0.00    +0.000 A 
ATOM      2  C   UNL     1      45.961   5.653  12.962  0.00  0.00    +0.000 A 
ATOM      3  C   UNL     1      45.423   4.458  12.472  0.00  0.00    +0.000 A 
ATOM      4  C   UNL     1      44.337   4.473  11.587  0.00  0.00    +0.000 A 
ATOM      5  C   UNL     1      43.784   5.708  11.224  0.00  0.00    +0.000 A 
ATOM      6  C   UNL     1      44.323   6.904  11.712  0.00  0.00    +0.000 A 
ENDROOT
BRANCH   1   7
ATOM      7  C   UNL     1      45.975   8.172  13.142  0.00  0.00    +0.000 C 
BRANCH   7  10
ATOM      8  C   UNL     1      48.402   8.019  13.316  0.00  0.00    +0.000 C 
ATOM      9  O   UNL     1      48.524   8.209  12.108  0.00  0.00    +0.000 OA
ATOM     10  N   UNL     1      47.169   7.984  13.926  0.00  0.00    +0.000 N 
ATOM     11  H   UNL     1      47.121   7.816  14.927  0.00  0.00    +0.000 HD
BRANCH   8  17
ATOM     12  C   UNL     1      50.663   4.558  18.582  0.00  0.00    +0.000 C 
ATOM     13  N   UNL     1      50.382   5.406  17.443  0.00  0.00    +0.000 N 
ATOM     14  C   UNL     1      49.148   5.368  16.816  0.00  0.00    +0.000 A 
ATOM     15  N   UNL     1      48.763   6.066  15.790  0.00  0.00    +0.000 NA
ATOM     16  C   UNL     1      49.745   6.946  15.298  0.00  0.00    +0.000 A 
ATOM     17  C   UNL     1      49.565   7.819  14.181  0.00  0.00    +0.000 A 
ATOM     18  C   UNL     1      50.737   8.542  13.975  0.00  0.00    +0.000 A 
ATOM     19  S   UNL     1      51.979   8.165  15.092  0.00  0.00    +0.000 S 
ATOM     20  C   UNL     1      50.986   7.038  15.869  0.00  0.00    +0.000 A 
ATOM     21  C   UNL     1      51.394   6.257  17.002  0.00  0.00    +0.000 A 
ATOM     22  O   UNL     1      52.497   6.311  17.541  0.00  0.00    +0.000 OA
ENDBRANCH   8  17
ENDBRANCH   7  10
ENDBRANCH   1   7
BRANCH   4  23
ATOM     23  C   UNL     1      43.793   3.191  11.013  0.00  0.00    +0.000 C 
BRANCH  23  24
ATOM     24  N   UNL     1      44.685   2.559  10.075  0.00  0.00    +0.000 N 
ATOM     25  C   UNL     1      44.881   3.101   8.821  0.00  0.00    +0.000 C 
ATOM     26  O   UNL     1      44.317   4.117   8.427  0.00  0.00    +0.000 OA
ATOM     27  H   UNL     1      45.238   1.748  10.338  0.00  0.00    +0.000 HD
BRANCH  25  28
ATOM     28  C   UNL     1      45.838   2.374   7.940  0.00  0.00    +0.000 A 
ATOM     29  C   UNL     1      46.364   3.007   6.821  0.00  0.00    +0.000 A 
ATOM     30  N   UNL     1      47.230   2.389   5.975  0.00  0.00    +0.000 NA
ATOM     31  C   UNL     1      47.537   1.112   6.298  0.00  0.00    +0.000 A 
ATOM     32  C   UNL     1      47.011   0.479   7.416  0.00  0.00    +0.000 A 
ATOM     33  N   UNL     1      46.153   1.088   8.271  0.00  0.00    +0.000 NA
ENDBRANCH  25  28
ENDBRANCH  23  24
ENDBRANCH   4  23
TORSDOF 6
ENDMDL
MODEL 2
REMARK VINA RESULT:    -7.700      1.407      1.711
REMARK INTER + INTRA:         -11.182
REMARK INTER:                 -10.192
REMARK INTRA:                  -0.990
REMARK UNBOUND:                -0.781
REMARK  Name = 
REMARK  7 active torsions:
REMARK  status: ('A' for Active; 'I' for Inactive)
REMARK    1  A    between atoms: C_1  and  N_2
REMARK    2  A    between atoms: C_6  and  C_7
REMARK    3  A    between atoms: N_9  and  C_10
REMARK    4  A    between atoms: C_10  and  C_11
REMARK    5  A    between atoms: C_14  and  C_15
REMARK    6  A    between atoms: C_15  and  N_16
REMARK    7  A    between atoms: C_17  and  C_19
REMARK                            x       y       z     vdW  Elec       q    Type
REMARK                         _______ _______ _______ _____ _____    ______ ____
ROOT
ATOM      1  C   UNL     1      46.575   6.683  13.055  0.00  0.00    +0.000 A 
ATOM      2  C   UNL     1      46.603   5.388  13.588  0.00  0.00    +0.000 A 
ATOM      3  C   UNL     1      45.865   4.356  12.997  0.00  0.00    +0.000 A 
ATOM      4  C   UNL     1      45.097   4.594  11.849  0.00  0.00    +0.000 A 
ATOM      5  C   UNL     1      45.063   5.892  11.322  0.00  0.00    +0.000 A 
ATOM      6  C   UNL     1      45.801   6.924  11.913  0.00  0.00    +0.000 A 
ENDROOT
BRANCH   1   7
ATOM      7  C   UNL     1      47.346   7.799  13.710  0.00  0.00    +0.000 C 
BRANCH   7  10
ATOM      8  C   UNL     1      49.501   7.302  14.736  0.00  0.00    +0.000 C 
ATOM      9  O   UNL     1      50.090   7.606  13.701  0.00  0.00    +0.000 OA
ATOM     10  N   UNL     1      48.131   7.366  14.838  0.00  0.00    +0.000 N 
ATOM     11  H   UNL     1      47.690   7.095  15.713  0.00  0.00    +0.000 HD
BRANCH   8  17
ATOM     12  C   UNL     1      48.721   4.603  20.813  0.00  0.00    +0.000 C 
ATOM     13  N   UNL     1      49.114   5.187  19.548  0.00  0.00    +0.000 N 
ATOM     14  C   UNL     1      48.169   5.516  18.592  0.00  0.00    +0.000 A 
ATOM     15  N   UNL     1      48.379   6.040  17.422  0.00  0.00    +0.000 NA
ATOM     16  C   UNL     1      49.737   6.283  17.141  0.00  0.00    +0.000 A 
ATOM     17  C   UNL     1      50.225   6.852  15.925  0.00  0.00    +0.000 A 
ATOM     18  C   UNL     1      51.612   6.948  15.993  0.00  0.00    +0.000 A 
ATOM     19  S   UNL     1      52.268   6.372  17.465  0.00  0.00    +0.000 S 
ATOM     20  C   UNL     1      50.726   5.985  18.041  0.00  0.00    +0.000 A 
ATOM     21  C   UNL     1      50.473   5.405  19.329  0.00  0.00    +0.000 A 
ATOM     22  O   UNL     1      51.333   5.124  20.162  0.00  0.00    +0.000 OA
ENDBRANCH   8  17
ENDBRANCH   7  10
ENDBRANCH   1   7
BRANCH   4  23
ATOM     23  C   UNL     1      44.348   3.473  11.177  0.00  0.00    +0.000 C 
BRANCH  23  24
ATOM     24  N   UNL     1      45.124   2.785  10.177  0.00  0.00    +0.000 N 
ATOM     25  C   UNL     1      45.090   3.196   8.859  0.00  0.00    +0.000 C 
ATOM     26  O   UNL     1      44.410   4.136   8.460  0.00  0.00    +0.000 OA
ATOM     27  H   UNL     1      45.761   2.034  10.428  0.00  0.00    +0.000 HD
BRANCH  25  28
ATOM     28  C   UNL     1      45.944   2.422   7.915  0.00  0.00    +0.000 A 
ATOM     29  C   UNL     1      46.381   3.013   6.736  0.00  0.00    +0.000 A 
ATOM     30  N   UNL     1      47.150   2.352   5.832  0.00  0.00    +0.000 NA
ATOM     31  C   UNL     1      47.455   1.076   6.159  0.00  0.00    +0.000 A 
ATOM     32  C   UNL     1      47.018   0.484   7.337  0.00  0.00    +0.000 A 
ATOM     33  N   UNL     1      46.257   1.137   8.250  0.00  0.00    +0.000 NA
ENDBRANCH  25  28
ENDBRANCH  23  24
ENDBRANCH   4  23
TORSDOF 6
ENDMDL
MODEL 3
REMARK VINA RESULT:    -7.686      2.829      3.381
REMARK INTER + INTRA:         -11.163
REMARK INTER:                 -10.228
REMARK INTRA:                  -0.936
REMARK UNBOUND:                -0.781
REMARK  Name = 
REMARK  7 active torsions:
REMARK  status: ('A' for Active; 'I' for Inactive)
REMARK    1  A    between atoms: C_1  and  N_2
REMARK    2  A    between atoms: C_6  and  C_7
REMARK    3  A    between atoms: N_9  and  C_10
REMARK    4  A    between atoms: C_10  and  C_11
REMARK    5  A    between atoms: C_14  and  C_15
REMARK    6  A    between atoms: C_15  and  N_16
REMARK    7  A    between atoms: C_17  and  C_19
REMARK                            x       y       z     vdW  Elec       q    Type
REMARK                         _______ _______ _______ _____ _____    ______ ____
ROOT
ATOM      1  C   UNL     1      47.125   6.213  13.323  0.00  0.00    +0.000 A 
ATOM      2  C   UNL     1      46.711   4.977  13.836  0.00  0.00    +0.000 A 
ATOM      3  C   UNL     1      45.832   4.162  13.113  0.00  0.00    +0.000 A 
ATOM      4  C   UNL     1      45.362   4.559  11.853  0.00  0.00    +0.000 A 
ATOM      5  C   UNL     1      45.770   5.800  11.346  0.00  0.00    +0.000 A 
ATOM      6  C   UNL     1      46.650   6.614  12.068  0.00  0.00    +0.000 A 
ENDROOT
BRANCH   1   7
ATOM      7  C   UNL     1      48.047   7.101  14.116  0.00  0.00    +0.000 C 
BRANCH   7  10
ATOM      8  C   UNL     1      49.219   6.527  16.176  0.00  0.00    +0.000 C 
ATOM      9  O   UNL     1      50.295   6.502  15.583  0.00  0.00    +0.000 OA
ATOM     10  N   UNL     1      48.040   6.818  15.528  0.00  0.00    +0.000 N 
ATOM     11  H   UNL     1      47.174   6.818  16.061  0.00  0.00    +0.000 HD
BRANCH   8  17
ATOM     12  C   UNL     1      46.901   8.922  21.983  0.00  0.00    +0.000 C 
ATOM     13  N   UNL     1      47.481   8.227  20.852  0.00  0.00    +0.000 N 
ATOM     14  C   UNL     1      47.405   8.759  19.576  0.00  0.00    +0.000 A 
ATOM     15  N   UNL     1      47.875   8.246  18.479  0.00  0.00    +0.000 NA
ATOM     16  C   UNL     1      48.527   7.012  18.659  0.00  0.00    +0.000 A 
ATOM     17  C   UNL     1      49.126   6.251  17.609  0.00  0.00    +0.000 A 
ATOM     18  C   UNL     1      49.677   5.091  18.146  0.00  0.00    +0.000 A 
ATOM     19  S   UNL     1      49.466   4.952  19.840  0.00  0.00    +0.000 S 
ATOM     20  C   UNL     1      48.641   6.427  19.892  0.00  0.00    +0.000 A 
ATOM     21  C   UNL     1      48.114   7.009  21.094  0.00  0.00    +0.000 A 
ATOM     22  O   UNL     1      48.197   6.516  22.217  0.00  0.00    +0.000 OA
ENDBRANCH   8  17
ENDBRANCH   7  10
ENDBRANCH   1   7
BRANCH   4  23
ATOM     23  C   UNL     1      44.462   3.659  11.048  0.00  0.00    +0.000 C 
BRANCH  23  24
ATOM     24  N   UNL     1      45.165   2.889  10.053  0.00  0.00    +0.000 N 
ATOM     25  C   UNL     1      45.268   3.349   8.756  0.00  0.00    +0.000 C 
ATOM     26  O   UNL     1      44.774   4.404   8.370  0.00  0.00    +0.000 OA
ATOM     27  H   UNL     1      45.655   2.033  10.298  0.00  0.00    +0.000 HD
BRANCH  25  28
ATOM     28  C   UNL     1      46.030   2.479   7.816  0.00  0.00    +0.000 A 
ATOM     29  C   UNL     1      46.414   2.973   6.576  0.00  0.00    +0.000 A 
ATOM     30  N   UNL     1      47.099   2.222   5.674  0.00  0.00    +0.000 NA
ATOM     31  C   UNL     1      47.374   0.958   6.068  0.00  0.00    +0.000 A 
ATOM     32  C   UNL     1      46.989   0.464   7.307  0.00  0.00    +0.000 A 
ATOM     33  N   UNL     1      46.313   1.206   8.218  0.00  0.00    +0.000 NA
ENDBRANCH  25  28
ENDBRANCH  23  24
ENDBRANCH   4  23
TORSDOF 6
ENDMDL
MODEL 4
REMARK VINA RESULT:    -7.181      4.445      7.443
REMARK INTER + INTRA:         -10.481
REMARK INTER:                  -9.488
REMARK INTRA:                  -0.992
REMARK UNBOUND:                -0.781
REMARK  Name = 
REMARK  7 active torsions:
REMARK  status: ('A' for Active; 'I' for Inactive)
REMARK    1  A    between atoms: C_1  and  N_2
REMARK    2  A    between atoms: C_6  and  C_7
REMARK    3  A    between atoms: N_9  and  C_10
REMARK    4  A    between atoms: C_10  and  C_11
REMARK    5  A    between atoms: C_14  and  C_15
REMARK    6  A    between atoms: C_15  and  N_16
REMARK    7  A    between atoms: C_17  and  C_19
REMARK                            x       y       z     vdW  Elec       q    Type
REMARK                         _______ _______ _______ _____ _____    ______ ____
ROOT
ATOM      1  C   UNL     1      45.667   6.623  12.596  0.00  0.00    +0.000 A 
ATOM      2  C   UNL     1      44.638   6.735  11.651  0.00  0.00    +0.000 A 
ATOM      3  C   UNL     1      44.162   7.991  11.259  0.00  0.00    +0.000 A 
ATOM      4  C   UNL     1      44.716   9.163  11.791  0.00  0.00    +0.000 A 
ATOM      5  C   UNL     1      45.739   9.050  12.742  0.00  0.00    +0.000 A 
ATOM      6  C   UNL     1      46.216   7.794  13.133  0.00  0.00    +0.000 A 
ENDROOT
BRANCH   1   7
ATOM      7  C   UNL     1      46.158   5.271  13.038  0.00  0.00    +0.000 C 
BRANCH   7  10
ATOM      8  C   UNL     1      47.255   4.118  14.885  0.00  0.00    +0.000 C 
ATOM      9  O   UNL     1      47.308   3.076  14.234  0.00  0.00    +0.000 OA
ATOM     10  N   UNL     1      46.700   5.267  14.373  0.00  0.00    +0.000 N 
ATOM     11  H   UNL     1      46.673   6.101  14.955  0.00  0.00    +0.000 HD
BRANCH   8  17
ATOM     12  C   UNL     1      50.285   8.185  19.257  0.00  0.00    +0.000 C 
ATOM     13  N   UNL     1      49.638   7.148  18.479  0.00  0.00    +0.000 N 
ATOM     14  C   UNL     1      49.241   7.382  17.174  0.00  0.00    +0.000 A 
ATOM     15  N   UNL     1      48.652   6.550  16.368  0.00  0.00    +0.000 NA
ATOM     16  C   UNL     1      48.414   5.282  16.930  0.00  0.00    +0.000 A 
ATOM     17  C   UNL     1      47.783   4.197  16.248  0.00  0.00    +0.000 A 
ATOM     18  C   UNL     1      47.713   3.101  17.102  0.00  0.00    +0.000 A 
ATOM     19  S   UNL     1      48.386   3.394  18.649  0.00  0.00    +0.000 S 
ATOM     20  C   UNL     1      48.782   4.979  18.215  0.00  0.00    +0.000 A 
ATOM     21  C   UNL     1      49.431   5.913  19.091  0.00  0.00    +0.000 A 
ATOM     22  O   UNL     1      49.775   5.679  20.248  0.00  0.00    +0.000 OA
ENDBRANCH   8  17
ENDBRANCH   7  10
ENDBRANCH   1   7
BRANCH   4  23
ATOM     23  C   UNL     1      44.245  10.517  11.328  0.00  0.00    +0.000 C 
BRANCH  23  24
ATOM     24  N   UNL     1      43.066  10.979  12.015  0.00  0.00    +0.000 N 
ATOM     25  C   UNL     1      41.818  10.831  11.443  0.00  0.00    +0.000 C 
ATOM     26  O   UNL     1      41.636  10.326  10.339  0.00  0.00    +0.000 OA
ATOM     27  H   UNL     1      43.118  11.355  12.958  0.00  0.00    +0.000 HD
BRANCH  25  28
ATOM     28  C   UNL     1      40.669  11.329  12.249  0.00  0.00    +0.000 A 
ATOM     29  C   UNL     1      39.369  11.066  11.835  0.00  0.00    +0.000 A 
ATOM     30  N   UNL     1      38.284  11.505  12.523  0.00  0.00    +0.000 NA
ATOM     31  C   UNL     1      38.559  12.222  13.637  0.00  0.00    +0.000 A 
ATOM     32  C   UNL     1      39.858  12.485  14.051  0.00  0.00    +0.000 A 
ATOM     33  N   UNL     1      40.949  12.045  13.377  0.00  0.00    +0.000 NA
ENDBRANCH  25  28
ENDBRANCH  23  24
ENDBRANCH   4  23
TORSDOF 6
ENDMDL
MODEL 5
REMARK VINA RESULT:    -7.088      1.813      2.349
REMARK INTER + INTRA:         -10.355
REMARK INTER:                  -9.379
REMARK INTRA:                  -0.976
REMARK UNBOUND:                -0.781
REMARK  Name = 
REMARK  7 active torsions:
REMARK  status: ('A' for Active; 'I' for Inactive)
REMARK    1  A    between atoms: C_1  and  N_2
REMARK    2  A    between atoms: C_6  and  C_7
REMARK    3  A    between atoms: N_9  and  C_10
REMARK    4  A    between atoms: C_10  and  C_11
REMARK    5  A    between atoms: C_14  and  C_15
REMARK    6  A    between atoms: C_15  and  N_16
REMARK    7  A    between atoms: C_17  and  C_19
REMARK                            x       y       z     vdW  Elec       q    Type
REMARK                         _______ _______ _______ _____ _____    ______ ____
ROOT
ATOM      1  C   UNL     1      46.413   7.731  13.034  0.00  0.00    +0.000 A 
ATOM      2  C   UNL     1      45.318   8.240  12.323  0.00  0.00    +0.000 A 
ATOM      3  C   UNL     1      44.604   7.428  11.434  0.00  0.00    +0.000 A 
ATOM      4  C   UNL     1      44.959   6.084  11.251  0.00  0.00    +0.000 A 
ATOM      5  C   UNL     1      46.060   5.579  11.957  0.00  0.00    +0.000 A 
ATOM      6  C   UNL     1      46.773   6.391  12.846  0.00  0.00    +0.000 A 
ENDROOT
BRANCH   1   7
ATOM      7  C   UNL     1      47.197   8.615  13.967  0.00  0.00    +0.000 C 
BRANCH   7  10
ATOM      8  C   UNL     1      48.568   8.445  15.977  0.00  0.00    +0.000 C 
ATOM      9  O   UNL     1      48.201   9.558  16.349  0.00  0.00    +0.000 OA
ATOM     10  N   UNL     1      48.121   7.888  14.801  0.00  0.00    +0.000 N 
ATOM     11  H   UNL     1      48.461   6.968  14.533  0.00  0.00    +0.000 HD
BRANCH   8  17
ATOM     12  C   UNL     1      50.260   2.168  17.578  0.00  0.00    +0.000 C 
ATOM     13  N   UNL     1      50.066   3.588  17.371  0.00  0.00    +0.000 N 
ATOM     14  C   UNL     1      49.063   4.055  16.540  0.00  0.00    +0.000 A 
ATOM     15  N   UNL     1      48.779   5.293  16.263  0.00  0.00    +0.000 NA
ATOM     16  C   UNL     1      49.613   6.226  16.906  0.00  0.00    +0.000 A 
ATOM     17  C   UNL     1      49.504   7.644  16.766  0.00  0.00    +0.000 A 
ATOM     18  C   UNL     1      50.485   8.255  17.541  0.00  0.00    +0.000 A 
ATOM     19  S   UNL     1      51.478   7.147  18.388  0.00  0.00    +0.000 S 
ATOM     20  C   UNL     1      50.625   5.837  17.744  0.00  0.00    +0.000 A 
ATOM     21  C   UNL     1      50.923   4.464  18.036  0.00  0.00    +0.000 A 
ATOM     22  O   UNL     1      51.821   4.075  18.781  0.00  0.00    +0.000 OA
ENDBRANCH   8  17
ENDBRANCH   7  10
ENDBRANCH   1   7
BRANCH   4  23
ATOM     23  C   UNL     1      44.158   5.193  10.339  0.00  0.00    +0.000 C 
BRANCH  23  24
ATOM     24  N   UNL     1      44.942   4.597   9.287  0.00  0.00    +0.000 N 
ATOM     25  C   UNL     1      45.000   3.225   9.148  0.00  0.00    +0.000 C 
ATOM     26  O   UNL     1      44.419   2.444   9.895  0.00  0.00    +0.000 OA
ATOM     27  H   UNL     1      45.407   5.169   8.588  0.00  0.00    +0.000 HD
BRANCH  25  28
ATOM     28  C   UNL     1      45.827   2.720   8.016  0.00  0.00    +0.000 A 
ATOM     29  C   UNL     1      46.357   1.437   8.066  0.00  0.00    +0.000 A 
ATOM     30  N   UNL     1      47.127   0.929   7.070  0.00  0.00    +0.000 NA
ATOM     31  C   UNL     1      47.347   1.763   6.029  0.00  0.00    +0.000 A 
ATOM     32  C   UNL     1      46.819   3.047   5.979  0.00  0.00    +0.000 A 
ATOM     33  N   UNL     1      46.041   3.562   6.963  0.00  0.00    +0.000 NA
ENDBRANCH  25  28
ENDBRANCH  23  24
ENDBRANCH   4  23
TORSDOF 6
ENDMDL
MODEL 6
REMARK VINA RESULT:    -6.909      5.163     10.432
REMARK INTER + INTRA:         -10.113
REMARK INTER:                  -9.585
REMARK INTRA:                  -0.528
REMARK UNBOUND:                -0.781
REMARK  Name = 
REMARK  7 active torsions:
REMARK  status: ('A' for Active; 'I' for Inactive)
REMARK    1  A    between atoms: C_1  and  N_2
REMARK    2  A    between atoms: C_6  and  C_7
REMARK    3  A    between atoms: N_9  and  C_10
REMARK    4  A    between atoms: C_10  and  C_11
REMARK    5  A    between atoms: C_14  and  C_15
REMARK    6  A    between atoms: C_15  and  N_16
REMARK    7  A    between atoms: C_17  and  C_19
REMARK                            x       y       z     vdW  Elec       q    Type
REMARK                         _______ _______ _______ _____ _____    ______ ____
ROOT
ATOM      1  C   UNL     1      50.126   3.654  17.814  0.00  0.00    +0.000 A 
ATOM      2  C   UNL     1      51.357   4.190  18.214  0.00  0.00    +0.000 A 
ATOM      3  C   UNL     1      52.515   3.404  18.202  0.00  0.00    +0.000 A 
ATOM      4  C   UNL     1      52.470   2.071  17.773  0.00  0.00    +0.000 A 
ATOM      5  C   UNL     1      51.237   1.533  17.381  0.00  0.00    +0.000 A 
ATOM      6  C   UNL     1      50.079   2.319  17.392  0.00  0.00    +0.000 A 
ENDROOT
BRANCH   1   7
ATOM      7  C   UNL     1      48.876   4.491  17.855  0.00  0.00    +0.000 C 
BRANCH   7  10
ATOM      8  C   UNL     1      47.552   4.533  15.808  0.00  0.00    +0.000 C 
ATOM      9  O   UNL     1      46.929   3.534  16.163  0.00  0.00    +0.000 OA
ATOM     10  N   UNL     1      48.543   5.086  16.586  0.00  0.00    +0.000 N 
ATOM     11  H   UNL     1      49.035   5.907  16.244  0.00  0.00    +0.000 HD
BRANCH   8  17
ATOM     12  C   UNL     1      44.001   4.057  10.152  0.00  0.00    +0.000 C 
ATOM     13  N   UNL     1      44.852   4.355  11.285  0.00  0.00    +0.000 N 
ATOM     14  C   UNL     1      44.900   3.509  12.379  0.00  0.00    +0.000 A 
ATOM     15  N   UNL     1      45.612   3.653  13.457  0.00  0.00    +0.000 NA
ATOM     16  C   UNL     1      46.407   4.814  13.465  0.00  0.00    +0.000 A 
ATOM     17  C   UNL     1      47.275   5.196  14.533  0.00  0.00    +0.000 A 
ATOM     18  C   UNL     1      47.903   6.393  14.203  0.00  0.00    +0.000 A 
ATOM     19  S   UNL     1      47.449   7.006  12.671  0.00  0.00    +0.000 S 
ATOM     20  C   UNL     1      46.411   5.695  12.416  0.00  0.00    +0.000 A 
ATOM     21  C   UNL     1      45.617   5.519  11.234  0.00  0.00    +0.000 A 
ATOM     22  O   UNL     1      45.593   6.287  10.274  0.00  0.00    +0.000 OA
ENDBRANCH   8  17
ENDBRANCH   7  10
ENDBRANCH   1   7
BRANCH   4  23
ATOM     23  C   UNL     1      53.725   1.240  17.704  0.00  0.00    +0.000 C 
BRANCH  23  24
ATOM     24  N   UNL     1      53.699   0.090  18.572  0.00  0.00    +0.000 N 
ATOM     25  C   UNL     1      54.287  -1.096  18.181  0.00  0.00    +0.000 C 
ATOM     26  O   UNL     1      54.842  -1.251  17.097  0.00  0.00    +0.000 OA
ATOM     27  H   UNL     1      53.313   0.147  19.510  0.00  0.00    +0.000 HD
BRANCH  25  28
ATOM     28  C   UNL     1      54.214  -2.213  19.163  0.00  0.00    +0.000 A 
ATOM     29  C   UNL     1      54.248  -3.529  18.717  0.00  0.00    +0.000 A 
ATOM     30  N   UNL     1      54.173  -4.587  19.566  0.00  0.00    +0.000 NA
ATOM     31  C   UNL     1      54.055  -4.268  20.875  0.00  0.00    +0.000 A 
ATOM     32  C   UNL     1      54.020  -2.954  21.321  0.00  0.00    +0.000 A 
ATOM     33  N   UNL     1      54.103  -1.890  20.485  0.00  0.00    +0.000 NA
ENDBRANCH  25  28
ENDBRANCH  23  24
ENDBRANCH   4  23
TORSDOF 6
ENDMDL
MODEL 7
REMARK VINA RESULT:    -6.759      4.606      9.581
REMARK INTER + INTRA:          -9.911
REMARK INTER:                  -8.911
REMARK INTRA:                  -1.000
REMARK UNBOUND:                -0.781
REMARK  Name = 
REMARK  7 active torsions:
REMARK  status: ('A' for Active; 'I' for Inactive)
REMARK    1  A    between atoms: C_1  and  N_2
REMARK    2  A    between atoms: C_6  and  C_7
REMARK    3  A    between atoms: N_9  and  C_10
REMARK    4  A    between atoms: C_10  and  C_11
REMARK    5  A    between atoms: C_14  and  C_15
REMARK    6  A    between atoms: C_15  and  N_16
REMARK    7  A    between atoms: C_17  and  C_19
REMARK                            x       y       z     vdW  Elec       q    Type
REMARK                         _______ _______ _______ _____ _____    ______ ____
ROOT
ATOM      1  C   UNL     1      48.753   3.223  17.142  0.00  0.00    +0.000 A 
ATOM      2  C   UNL     1      49.459   4.217  17.832  0.00  0.00    +0.000 A 
ATOM      3  C   UNL     1      50.809   4.040  18.156  0.00  0.00    +0.000 A 
ATOM      4  C   UNL     1      51.486   2.871  17.781  0.00  0.00    +0.000 A 
ATOM      5  C   UNL     1      50.777   1.874  17.099  0.00  0.00    +0.000 A 
ATOM      6  C   UNL     1      49.427   2.052  16.774  0.00  0.00    +0.000 A 
ENDROOT
BRANCH   1   7
ATOM      7  C   UNL     1      47.293   3.403  16.821  0.00  0.00    +0.000 C 
BRANCH   7  10
ATOM      8  C   UNL     1      47.071   4.292  14.561  0.00  0.00    +0.000 C 
ATOM      9  O   UNL     1      47.315   3.189  14.079  0.00  0.00    +0.000 OA
ATOM     10  N   UNL     1      47.036   4.499  15.921  0.00  0.00    +0.000 N 
ATOM     11  H   UNL     1      46.838   5.432  16.271  0.00  0.00    +0.000 HD
BRANCH   8  17
ATOM     12  C   UNL     1      48.796  10.668  13.463  0.00  0.00    +0.000 C 
ATOM     13  N   UNL     1      48.274   9.318  13.527  0.00  0.00    +0.000 N 
ATOM     14  C   UNL     1      48.745   8.418  14.467  0.00  0.00    +0.000 A 
ATOM     15  N   UNL     1      48.372   7.185  14.635  0.00  0.00    +0.000 NA
ATOM     16  C   UNL     1      47.375   6.763  13.736  0.00  0.00    +0.000 A 
ATOM     17  C   UNL     1      46.800   5.456  13.716  0.00  0.00    +0.000 A 
ATOM     18  C   UNL     1      45.849   5.391  12.702  0.00  0.00    +0.000 A 
ATOM     19  S   UNL     1      45.678   6.855  11.830  0.00  0.00    +0.000 S 
ATOM     20  C   UNL     1      46.861   7.600  12.781  0.00  0.00    +0.000 A 
ATOM     21  C   UNL     1      47.287   8.960  12.611  0.00  0.00    +0.000 A 
ATOM     22  O   UNL     1      46.851   9.740  11.767  0.00  0.00    +0.000 OA
ENDBRANCH   8  17
ENDBRANCH   7  10
ENDBRANCH   1   7
BRANCH   4  23
ATOM     23  C   UNL     1      52.954   2.702  18.077  0.00  0.00    +0.000 C 
BRANCH  23  24
ATOM     24  N   UNL     1      53.300   1.374  18.515  0.00  0.00    +0.000 N 
ATOM     25  C   UNL     1      54.223   0.624  17.815  0.00  0.00    +0.000 C 
ATOM     26  O   UNL     1      54.783   1.018  16.796  0.00  0.00    +0.000 OA
ATOM     27  H   UNL     1      52.929   0.991  19.380  0.00  0.00    +0.000 HD
BRANCH  25  28
ATOM     28  C   UNL     1      54.516  -0.728  18.367  0.00  0.00    +0.000 A 
ATOM     29  C   UNL     1      54.846  -1.769  17.508  0.00  0.00    +0.000 A 
ATOM     30  N   UNL     1      55.111  -3.024  17.954  0.00  0.00    +0.000 NA
ATOM     31  C   UNL     1      55.025  -3.190  19.293  0.00  0.00    +0.000 A 
ATOM     32  C   UNL     1      54.694  -2.150  20.152  0.00  0.00    +0.000 A 
ATOM     33  N   UNL     1      54.436  -0.892  19.720  0.00  0.00    +0.000 NA
ENDBRANCH  25  28
ENDBRANCH  23  24
ENDBRANCH   4  23
TORSDOF 6
ENDMDL
MODEL 8
REMARK VINA RESULT:    -6.534      4.515      7.131
REMARK INTER + INTRA:          -9.608
REMARK INTER:                  -8.932
REMARK INTRA:                  -0.675
REMARK UNBOUND:                -0.781
REMARK  Name = 
REMARK  7 active torsions:
REMARK  status: ('A' for Active; 'I' for Inactive)
REMARK    1  A    between atoms: C_1  and  N_2
REMARK    2  A    between atoms: C_6  and  C_7
REMARK    3  A    between atoms: N_9  and  C_10
REMARK    4  A    between atoms: C_10  and  C_11
REMARK    5  A    between atoms: C_14  and  C_15
REMARK    6  A    between atoms: C_15  and  N_16
REMARK    7  A    between atoms: C_17  and  C_19
REMARK                            x       y       z     vdW  Elec       q    Type
REMARK                         _______ _______ _______ _____ _____    ______ ____
ROOT
ATOM      1  C   UNL     1      46.298   6.323  12.963  0.00  0.00    +0.000 A 
ATOM      2  C   UNL     1      45.429   6.142  11.879  0.00  0.00    +0.000 A 
ATOM      3  C   UNL     1      44.801   7.238  11.277  0.00  0.00    +0.000 A 
ATOM      4  C   UNL     1      45.043   8.541  11.735  0.00  0.00    +0.000 A 
ATOM      5  C   UNL     1      45.906   8.719  12.824  0.00  0.00    +0.000 A 
ATOM      6  C   UNL     1      46.535   7.623  13.425  0.00  0.00    +0.000 A 
ENDROOT
BRANCH   1   7
ATOM      7  C   UNL     1      46.950   5.140  13.628  0.00  0.00    +0.000 C 
BRANCH   7  10
ATOM      8  C   UNL     1      47.641   4.638  15.912  0.00  0.00    +0.000 C 
ATOM      9  O   UNL     1      47.012   3.582  15.895  0.00  0.00    +0.000 OA
ATOM     10  N   UNL     1      47.671   5.483  14.827  0.00  0.00    +0.000 N 
ATOM     11  H   UNL     1      48.200   6.349  14.893  0.00  0.00    +0.000 HD
BRANCH   8  17
ATOM     12  C   UNL     1      53.205   3.452  19.442  0.00  0.00    +0.000 C 
ATOM     13  N   UNL     1      51.958   3.870  18.836  0.00  0.00    +0.000 N 
ATOM     14  C   UNL     1      51.487   3.261  17.687  0.00  0.00    +0.000 A 
ATOM     15  N   UNL     1      50.393   3.535  17.040  0.00  0.00    +0.000 NA
ATOM     16  C   UNL     1      49.637   4.574  17.612  0.00  0.00    +0.000 A 
ATOM     17  C   UNL     1      48.399   5.059  17.090  0.00  0.00    +0.000 A 
ATOM     18  C   UNL     1      47.932   6.086  17.906  0.00  0.00    +0.000 A 
ATOM     19  S   UNL     1      48.959   6.428  19.232  0.00  0.00    +0.000 S 
ATOM     20  C   UNL     1      50.041   5.221  18.750  0.00  0.00    +0.000 A 
ATOM     21  C   UNL     1      51.253   4.905  19.450  0.00  0.00    +0.000 A 
ATOM     22  O   UNL     1      51.649   5.462  20.472  0.00  0.00    +0.000 OA
ENDBRANCH   8  17
ENDBRANCH   7  10
ENDBRANCH   1   7
BRANCH   4  23
ATOM     23  C   UNL     1      44.413   9.727  11.053  0.00  0.00    +0.000 C 
BRANCH  23  24
ATOM     24  N   UNL     1      43.033   9.928  11.412  0.00  0.00    +0.000 N 
ATOM     25  C   UNL     1      42.576  11.182  11.765  0.00  0.00    +0.000 C 
ATOM     26  O   UNL     1      43.294  12.176  11.808  0.00  0.00    +0.000 OA
ATOM     27  H   UNL     1      42.356   9.173  11.347  0.00  0.00    +0.000 HD
BRANCH  25  28
ATOM     28  C   UNL     1      41.128  11.277  12.101  0.00  0.00    +0.000 A 
ATOM     29  C   UNL     1      40.205  10.510  11.402  0.00  0.00    +0.000 A 
ATOM     30  N   UNL     1      38.872  10.564  11.657  0.00  0.00    +0.000 NA
ATOM     31  C   UNL     1      38.507  11.424  12.636  0.00  0.00    +0.000 A 
ATOM     32  C   UNL     1      39.430  12.191  13.334  0.00  0.00    +0.000 A 
ATOM     33  N   UNL     1      40.763  12.139  13.094  0.00  0.00    +0.000 NA
ENDBRANCH  25  28
ENDBRANCH  23  24
ENDBRANCH   4  23
TORSDOF 6
ENDMDL
MODEL 9
REMARK VINA RESULT:    -6.392      4.807      8.525
REMARK INTER + INTRA:          -9.415
REMARK INTER:                  -8.640
REMARK INTRA:                  -0.775
REMARK UNBOUND:                -0.781
REMARK  Name = 
REMARK  7 active torsions:
REMARK  status: ('A' for Active; 'I' for Inactive)
REMARK    1  A    between atoms: C_1  and  N_2
REMARK    2  A    between atoms: C_6  and  C_7
REMARK    3  A    between atoms: N_9  and  C_10
REMARK    4  A    between atoms: C_10  and  C_11
REMARK    5  A    between atoms: C_14  and  C_15
REMARK    6  A    between atoms: C_15  and  N_16
REMARK    7  A    between atoms: C_17  and  C_19
REMARK                            x       y       z     vdW  Elec       q    Type
REMARK                         _______ _______ _______ _____ _____    ______ ____
ROOT
ATOM      1  C   UNL     1      48.056   8.805  11.917  0.00  0.00    +0.000 A 
ATOM      2  C   UNL     1      49.037   7.812  11.790  0.00  0.00    +0.000 A 
ATOM      3  C   UNL     1      50.344   8.143  11.416  0.00  0.00    +0.000 A 
ATOM      4  C   UNL     1      50.704   9.476  11.178  0.00  0.00    +0.000 A 
ATOM      5  C   UNL     1      49.720  10.468  11.297  0.00  0.00    +0.000 A 
ATOM      6  C   UNL     1      48.413  10.137  11.672  0.00  0.00    +0.000 A 
ENDROOT
BRANCH   1   7
ATOM      7  C   UNL     1      46.643   8.444  12.290  0.00  0.00    +0.000 C 
BRANCH   7  10
ATOM      8  C   UNL     1      44.985   6.855  11.469  0.00  0.00    +0.000 C 
ATOM      9  O   UNL     1      44.132   7.738  11.417  0.00  0.00    +0.000 OA
ATOM     10  N   UNL     1      46.270   7.110  11.891  0.00  0.00    +0.000 N 
ATOM     11  H   UNL     1      46.937   6.344  11.924  0.00  0.00    +0.000 HD
BRANCH   8  17
ATOM     12  C   UNL     1      46.229   2.166   6.854  0.00  0.00    +0.000 C 
ATOM     13  N   UNL     1      45.825   3.022   7.950  0.00  0.00    +0.000 N 
ATOM     14  C   UNL     1      46.291   4.321   8.047  0.00  0.00    +0.000 A 
ATOM     15  N   UNL     1      46.015   5.192   8.971  0.00  0.00    +0.000 NA
ATOM     16  C   UNL     1      45.140   4.713   9.963  0.00  0.00    +0.000 A 
ATOM     17  C   UNL     1      44.686   5.476  11.082  0.00  0.00    +0.000 A 
ATOM     18  C   UNL     1      43.835   4.690  11.854  0.00  0.00    +0.000 A 
ATOM     19  S   UNL     1      43.612   3.110  11.234  0.00  0.00    +0.000 S 
ATOM     20  C   UNL     1      44.638   3.439   9.931  0.00  0.00    +0.000 A 
ATOM     21  C   UNL     1      44.955   2.491   8.901  0.00  0.00    +0.000 A 
ATOM     22  O   UNL     1      44.526   1.340   8.839  0.00  0.00    +0.000 OA
ENDBRANCH   8  17
ENDBRANCH   7  10
ENDBRANCH   1   7
BRANCH   4  23
ATOM     23  C   UNL     1      52.123   9.842  10.832  0.00  0.00    +0.000 C 
BRANCH  23  24
ATOM     24  N   UNL     1      52.590   9.234   9.612  0.00  0.00    +0.000 N 
ATOM     25  C   UNL     1      53.353   8.085   9.649  0.00  0.00    +0.000 C 
ATOM     26  O   UNL     1      53.686   7.527  10.690  0.00  0.00    +0.000 OA
ATOM     27  H   UNL     1      52.311   9.595   8.704  0.00  0.00    +0.000 HD
BRANCH  25  28
ATOM     28  C   UNL     1      53.765   7.535   8.327  0.00  0.00    +0.000 A 
ATOM     29  C   UNL     1      52.976   7.763   7.207  0.00  0.00    +0.000 A 
ATOM     30  N   UNL     1      53.296   7.276   5.980  0.00  0.00    +0.000 NA
ATOM     31  C   UNL     1      54.434   6.548   5.928  0.00  0.00    +0.000 A 
ATOM     32  C   UNL     1      55.223   6.318   7.048  0.00  0.00    +0.000 A 
ATOM     33  N   UNL     1      54.918   6.806   8.275  0.00  0.00    +0.000 NA
ENDBRANCH  25  28
ENDBRANCH  23  24
ENDBRANCH   4  23
TORSDOF 6
ENDMDL
