MODEL 1
REMARK VINA RESULT:    -8.410      0.000      0.000
REMARK INTER + INTRA:         -11.804
REMARK INTER:                 -10.868
REMARK INTRA:                  -0.937
REMARK UNBOUND:                -0.937
REMARK  Name = 
REMARK  5 active torsions:
REMARK  status: ('A' for Active; 'I' for Inactive)
REMARK    1  A    between atoms: C_2  and  C_3
REMARK    2  A    between atoms: C_8  and  C_9
REMARK    3  A    between atoms: C_9  and  N_10
REMARK    4  A    between atoms: N_10  and  C_11
REMARK    5  A    between atoms: C_16  and  C_17
REMARK                            x       y       z     vdW  Elec       q    Type
REMARK                         _______ _______ _______ _____ _____    ______ ____
ROOT
ATOM      1  C   UNL     1      43.907   4.869  10.432  0.00  0.00    +0.000 A 
ATOM      2  C   UNL     1      43.293   3.911  11.237  0.00  0.00    +0.000 A 
ATOM      3  C   UNL     1      43.526   2.561  11.011  0.00  0.00    +0.000 A 
ATOM      4  F   UNL     1      42.966   1.651  11.817  0.00  0.00    +0.000 F 
ATOM      5  C   UNL     1      44.343   2.133   9.967  0.00  0.00    +0.000 A 
ATOM      6  C   UNL     1      44.957   3.064   9.116  0.00  0.00    +0.000 A 
ATOM      7  C   UNL     1      44.703   4.428   9.364  0.00  0.00    +0.000 A 
ENDROOT
BRANCH   6   8
ATOM      8  C   UNL     1      45.875   2.654   8.029  0.00  0.00    +0.000 A 
ATOM      9  C   UNL     1      46.485   1.383   8.019  0.00  0.00    +0.000 A 
ATOM     10  C   UNL     1      47.282   0.964   6.948  0.00  0.00    +0.000 A 
ATOM     11  C   UNL     1      47.505   1.816   5.872  0.00  0.00    +0.000 A 
ATOM     12  C   UNL     1      46.941   3.088   5.870  0.00  0.00    +0.000 A 
ATOM     13  C   UNL     1      46.133   3.499   6.935  0.00  0.00    +0.000 A 
ENDBRANCH   6   8
BRANCH   1  14
ATOM     14  N   UNL     1      43.622   6.223  10.668  0.00  0.00    +0.000 N 
ATOM     15  H   UNL     1      44.100   6.791   9.968  0.00  0.00    +0.000 HD
BRANCH  14  16
ATOM     16  C   UNL     1      43.886   6.731  12.014  0.00  0.00    +0.000 C 
BRANCH  16  22
ATOM     17  C   UNL     1      46.981   5.219  13.705  0.00  0.00    +0.000 A 
ATOM     18  C   UNL     1      48.002   5.956  13.104  0.00  0.00    +0.000 A 
ATOM     19  C   UNL     1      47.679   6.913  12.150  0.00  0.00    +0.000 A 
ATOM     20  F   UNL     1      48.658   7.609  11.559  0.00  0.00    +0.000 F 
ATOM     21  C   UNL     1      46.357   7.168  11.801  0.00  0.00    +0.000 A 
ATOM     22  C   UNL     1      45.317   6.457  12.417  0.00  0.00    +0.000 A 
ATOM     23  C   UNL     1      45.649   5.455  13.347  0.00  0.00    +0.000 A 
BRANCH  17  25
ATOM     24  N   UNL     1      47.534   3.435  15.506  0.00  0.00    +0.000 NA
ATOM     25  C   UNL     1      47.293   4.236  14.698  0.00  0.00    +0.000 C 
ENDBRANCH  17  25
ENDBRANCH  16  22
ENDBRANCH  14  16
ENDBRANCH   1  14
TORSDOF 5
ENDMDL
MODEL 2
REMARK VINA RESULT:    -7.949      1.780      2.455
REMARK INTER + INTRA:         -11.210
REMARK INTER:                 -10.249
REMARK INTRA:                  -0.961
REMARK UNBOUND:                -0.937
REMARK  Name = 
REMARK  5 active torsions:
REMARK  status: ('A' for Active; 'I' for Inactive)
REMARK    1  A    between atoms: C_2  and  C_3
REMARK    2  A    between atoms: C_8  and  C_9
REMARK    3  A    between atoms: C_9  and  N_10
REMARK    4  A    between atoms: N_10  and  C_11
REMARK    5  A    between atoms: C_16  and  C_17
REMARK                            x       y       z     vdW  Elec       q    Type
REMARK                         _______ _______ _______ _____ _____    ______ ____
ROOT
ATOM      1  C   UNL     1      44.267   5.071  10.420  0.00  0.00    +0.000 A 
ATOM      2  C   UNL     1      43.570   4.194  11.251  0.00  0.00    +0.000 A 
ATOM      3  C   UNL     1      43.631   2.826  11.023  0.00  0.00    +0.000 A 
ATOM      4  F   UNL     1      42.994   1.991  11.853  0.00  0.00    +0.000 F 
ATOM      5  C   UNL     1      44.353   2.302   9.954  0.00  0.00    +0.000 A 
ATOM      6  C   UNL     1      45.045   3.152   9.078  0.00  0.00    +0.000 A 
ATOM      7  C   UNL     1      44.966   4.537   9.327  0.00  0.00    +0.000 A 
ENDROOT
BRANCH   6   8
ATOM      8  C   UNL     1      45.869   2.632   7.961  0.00  0.00    +0.000 A 
ATOM      9  C   UNL     1      46.158   3.419   6.830  0.00  0.00    +0.000 A 
ATOM     10  C   UNL     1      47.008   2.960   5.818  0.00  0.00    +0.000 A 
ATOM     11  C   UNL     1      47.571   1.692   5.905  0.00  0.00    +0.000 A 
ATOM     12  C   UNL     1      47.279   0.881   6.997  0.00  0.00    +0.000 A 
ATOM     13  C   UNL     1      46.440   1.348   8.014  0.00  0.00    +0.000 A 
ENDBRANCH   6   8
BRANCH   1  14
ATOM     14  N   UNL     1      44.155   6.450  10.659  0.00  0.00    +0.000 N 
ATOM     15  H   UNL     1      44.779   6.949  10.024  0.00  0.00    +0.000 HD
BRANCH  14  16
ATOM     16  C   UNL     1      44.352   6.901  12.037  0.00  0.00    +0.000 C 
BRANCH  16  22
ATOM     17  C   UNL     1      48.167   7.114  12.400  0.00  0.00    +0.000 A 
ATOM     18  C   UNL     1      48.395   6.154  13.387  0.00  0.00    +0.000 A 
ATOM     19  C   UNL     1      47.317   5.470  13.933  0.00  0.00    +0.000 A 
ATOM     20  F   UNL     1      47.533   4.562  14.894  0.00  0.00    +0.000 F 
ATOM     21  C   UNL     1      46.017   5.704  13.499  0.00  0.00    +0.000 A 
ATOM     22  C   UNL     1      45.772   6.643  12.487  0.00  0.00    +0.000 A 
ATOM     23  C   UNL     1      46.859   7.370  11.969  0.00  0.00    +0.000 A 
BRANCH  17  25
ATOM     24  N   UNL     1      50.165   8.386  11.343  0.00  0.00    +0.000 NA
ATOM     25  C   UNL     1      49.265   7.822  11.818  0.00  0.00    +0.000 C 
ENDBRANCH  17  25
ENDBRANCH  16  22
ENDBRANCH  14  16
ENDBRANCH   1  14
TORSDOF 5
ENDMDL
MODEL 3
REMARK VINA RESULT:    -7.877      1.965      2.929
REMARK INTER + INTRA:         -11.117
REMARK INTER:                 -10.283
REMARK INTRA:                  -0.834
REMARK UNBOUND:                -0.937
REMARK  Name = 
REMARK  5 active torsions:
REMARK  status: ('A' for Active; 'I' for Inactive)
REMARK    1  A    between atoms: C_2  and  C_3
REMARK    2  A    between atoms: C_8  and  C_9
REMARK    3  A    between atoms: C_9  and  N_10
REMARK    4  A    between atoms: N_10  and  C_11
REMARK    5  A    between atoms: C_16  and  C_17
REMARK                            x       y       z     vdW  Elec       q    Type
REMARK                         _______ _______ _______ _____ _____    ______ ____
ROOT
ATOM      1  C   UNL     1      44.397   5.099  10.534  0.00  0.00    +0.000 A 
ATOM      2  C   UNL     1      43.637   4.214  11.298  0.00  0.00    +0.000 A 
ATOM      3  C   UNL     1      43.649   2.857  11.004  0.00  0.00    +0.000 A 
ATOM      4  F   UNL     1      42.950   2.011  11.772  0.00  0.00    +0.000 F 
ATOM      5  C   UNL     1      44.383   2.355   9.933  0.00  0.00    +0.000 A 
ATOM      6  C   UNL     1      45.137   3.215   9.122  0.00  0.00    +0.000 A 
ATOM      7  C   UNL     1      45.108   4.588   9.438  0.00  0.00    +0.000 A 
ENDROOT
BRANCH   6   8
ATOM      8  C   UNL     1      45.975   2.716   8.007  0.00  0.00    +0.000 A 
ATOM      9  C   UNL     1      46.503   1.410   8.008  0.00  0.00    +0.000 A 
ATOM     10  C   UNL     1      47.220   0.910   6.915  0.00  0.00    +0.000 A 
ATOM     11  C   UNL     1      47.443   1.714   5.804  0.00  0.00    +0.000 A 
ATOM     12  C   UNL     1      46.958   3.018   5.786  0.00  0.00    +0.000 A 
ATOM     13  C   UNL     1      46.230   3.510   6.874  0.00  0.00    +0.000 A 
ENDBRANCH   6   8
BRANCH   1  14
ATOM     14  N   UNL     1      44.335   6.468  10.838  0.00  0.00    +0.000 N 
ATOM     15  H   UNL     1      44.831   6.992  10.116  0.00  0.00    +0.000 HD
BRANCH  14  16
ATOM     16  C   UNL     1      44.785   6.871  12.170  0.00  0.00    +0.000 C 
BRANCH  16  22
ATOM     17  C   UNL     1      47.288   9.777  12.042  0.00  0.00    +0.000 A 
ATOM     18  C   UNL     1      48.497   9.086  11.962  0.00  0.00    +0.000 A 
ATOM     19  C   UNL     1      48.488   7.697  11.971  0.00  0.00    +0.000 A 
ATOM     20  F   UNL     1      49.649   7.031  11.913  0.00  0.00    +0.000 F 
ATOM     21  C   UNL     1      47.297   6.982  12.033  0.00  0.00    +0.000 A 
ATOM     22  C   UNL     1      46.071   7.661  12.084  0.00  0.00    +0.000 A 
ATOM     23  C   UNL     1      46.084   9.067  12.123  0.00  0.00    +0.000 A 
BRANCH  17  25
ATOM     24  N   UNL     1      47.277  12.371  12.016  0.00  0.00    +0.000 NA
ATOM     25  C   UNL     1      47.276  11.208  12.024  0.00  0.00    +0.000 C 
ENDBRANCH  17  25
ENDBRANCH  16  22
ENDBRANCH  14  16
ENDBRANCH   1  14
TORSDOF 5
ENDMDL
MODEL 4
REMARK VINA RESULT:    -7.821      2.039      2.564
REMARK INTER + INTRA:         -11.044
REMARK INTER:                 -10.265
REMARK INTRA:                  -0.779
REMARK UNBOUND:                -0.937
REMARK  Name = 
REMARK  5 active torsions:
REMARK  status: ('A' for Active; 'I' for Inactive)
REMARK    1  A    between atoms: C_2  and  C_3
REMARK    2  A    between atoms: C_8  and  C_9
REMARK    3  A    between atoms: C_9  and  N_10
REMARK    4  A    between atoms: N_10  and  C_11
REMARK    5  A    between atoms: C_16  and  C_17
REMARK                            x       y       z     vdW  Elec       q    Type
REMARK                         _______ _______ _______ _____ _____    ______ ____
ROOT
ATOM      1  C   UNL     1      44.455   5.097  10.591  0.00  0.00    +0.000 A 
ATOM      2  C   UNL     1      43.672   4.211  11.329  0.00  0.00    +0.000 A 
ATOM      3  C   UNL     1      43.655   2.861  11.001  0.00  0.00    +0.000 A 
ATOM      4  F   UNL     1      42.934   2.012  11.743  0.00  0.00    +0.000 F 
ATOM      5  C   UNL     1      44.383   2.370   9.921  0.00  0.00    +0.000 A 
ATOM      6  C   UNL     1      45.161   3.234   9.135  0.00  0.00    +0.000 A 
ATOM      7  C   UNL     1      45.161   4.599   9.486  0.00  0.00    +0.000 A 
ENDROOT
BRANCH   6   8
ATOM      8  C   UNL     1      45.993   2.743   8.012  0.00  0.00    +0.000 A 
ATOM      9  C   UNL     1      46.507   1.432   7.992  0.00  0.00    +0.000 A 
ATOM     10  C   UNL     1      47.218   0.942   6.890  0.00  0.00    +0.000 A 
ATOM     11  C   UNL     1      47.450   1.762   5.792  0.00  0.00    +0.000 A 
ATOM     12  C   UNL     1      46.980   3.072   5.797  0.00  0.00    +0.000 A 
ATOM     13  C   UNL     1      46.257   3.554   6.893  0.00  0.00    +0.000 A 
ENDBRANCH   6   8
BRANCH   1  14
ATOM     14  N   UNL     1      44.423   6.459  10.929  0.00  0.00    +0.000 N 
ATOM     15  H   UNL     1      44.901   6.994  10.203  0.00  0.00    +0.000 HD
BRANCH  14  16
ATOM     16  C   UNL     1      44.923   6.825  12.254  0.00  0.00    +0.000 C 
BRANCH  16  22
ATOM     17  C   UNL     1      48.388   8.405  11.786  0.00  0.00    +0.000 A 
ATOM     18  C   UNL     1      48.082   9.762  11.904  0.00  0.00    +0.000 A 
ATOM     19  C   UNL     1      46.764  10.145  12.112  0.00  0.00    +0.000 A 
ATOM     20  F   UNL     1      46.465  11.447  12.207  0.00  0.00    +0.000 F 
ATOM     21  C   UNL     1      45.747   9.204  12.230  0.00  0.00    +0.000 A 
ATOM     22  C   UNL     1      46.041   7.836  12.144  0.00  0.00    +0.000 A 
ATOM     23  C   UNL     1      47.369   7.451  11.885  0.00  0.00    +0.000 A 
BRANCH  17  25
ATOM     24  N   UNL     1      50.847   7.663  11.422  0.00  0.00    +0.000 NA
ATOM     25  C   UNL     1      49.742   7.989  11.582  0.00  0.00    +0.000 C 
ENDBRANCH  17  25
ENDBRANCH  16  22
ENDBRANCH  14  16
ENDBRANCH   1  14
TORSDOF 5
ENDMDL
MODEL 5
REMARK VINA RESULT:    -7.459      2.969      6.549
REMARK INTER + INTRA:         -10.576
REMARK INTER:                  -9.599
REMARK INTRA:                  -0.976
REMARK UNBOUND:                -0.937
REMARK  Name = 
REMARK  5 active torsions:
REMARK  status: ('A' for Active; 'I' for Inactive)
REMARK    1  A    between atoms: C_2  and  C_3
REMARK    2  A    between atoms: C_8  and  C_9
REMARK    3  A    between atoms: C_9  and  N_10
REMARK    4  A    between atoms: N_10  and  C_11
REMARK    5  A    between atoms: C_16  and  C_17
REMARK                            x       y       z     vdW  Elec       q    Type
REMARK                         _______ _______ _______ _____ _____    ______ ____
ROOT
ATOM      1  C   UNL     1      45.234   3.791  12.057  0.00  0.00    +0.000 A 
ATOM      2  C   UNL     1      46.006   3.173  13.039  0.00  0.00    +0.000 A 
ATOM      3  C   UNL     1      46.862   3.930  13.829  0.00  0.00    +0.000 A 
ATOM      4  F   UNL     1      47.566   3.332  14.798  0.00  0.00    +0.000 F 
ATOM      5  C   UNL     1      46.995   5.303  13.641  0.00  0.00    +0.000 A 
ATOM      6  C   UNL     1      46.257   5.959  12.644  0.00  0.00    +0.000 A 
ATOM      7  C   UNL     1      45.397   5.170  11.854  0.00  0.00    +0.000 A 
ENDROOT
BRANCH   6   8
ATOM      8  C   UNL     1      46.328   7.426  12.447  0.00  0.00    +0.000 A 
ATOM      9  C   UNL     1      47.561   8.106  12.403  0.00  0.00    +0.000 A 
ATOM     10  C   UNL     1      47.630   9.476  12.129  0.00  0.00    +0.000 A 
ATOM     11  C   UNL     1      46.464  10.202  11.916  0.00  0.00    +0.000 A 
ATOM     12  C   UNL     1      45.230   9.563  11.984  0.00  0.00    +0.000 A 
ATOM     13  C   UNL     1      45.165   8.190  12.243  0.00  0.00    +0.000 A 
ENDBRANCH   6   8
BRANCH   1  14
ATOM     14  N   UNL     1      44.406   2.991  11.255  0.00  0.00    +0.000 N 
ATOM     15  H   UNL     1      44.814   2.058  11.181  0.00  0.00    +0.000 HD
BRANCH  14  16
ATOM     16  C   UNL     1      44.061   3.511   9.932  0.00  0.00    +0.000 C 
BRANCH  16  22
ATOM     17  C   UNL     1      46.328   1.241   7.827  0.00  0.00    +0.000 A 
ATOM     18  C   UNL     1      46.850   2.157   6.913  0.00  0.00    +0.000 A 
ATOM     19  C   UNL     1      46.448   3.485   6.976  0.00  0.00    +0.000 A 
ATOM     20  F   UNL     1      46.933   4.362   6.088  0.00  0.00    +0.000 F 
ATOM     21  C   UNL     1      45.556   3.924   7.948  0.00  0.00    +0.000 A 
ATOM     22  C   UNL     1      45.045   3.023   8.893  0.00  0.00    +0.000 A 
ATOM     23  C   UNL     1      45.415   1.670   8.797  0.00  0.00    +0.000 A 
BRANCH  17  25
ATOM     24  N   UNL     1      47.065  -1.245   7.736  0.00  0.00    +0.000 NA
ATOM     25  C   UNL     1      46.738  -0.130   7.784  0.00  0.00    +0.000 C 
ENDBRANCH  17  25
ENDBRANCH  16  22
ENDBRANCH  14  16
ENDBRANCH   1  14
TORSDOF 5
ENDMDL
MODEL 6
REMARK VINA RESULT:    -7.455      2.040      2.922
REMARK INTER + INTRA:         -10.571
REMARK INTER:                  -9.752
REMARK INTRA:                  -0.819
REMARK UNBOUND:                -0.937
REMARK  Name = 
REMARK  5 active torsions:
REMARK  status: ('A' for Active; 'I' for Inactive)
REMARK    1  A    between atoms: C_2  and  C_3
REMARK    2  A    between atoms: C_8  and  C_9
REMARK    3  A    between atoms: C_9  and  N_10
REMARK    4  A    between atoms: N_10  and  C_11
REMARK    5  A    between atoms: C_16  and  C_17
REMARK                            x       y       z     vdW  Elec       q    Type
REMARK                         _______ _______ _______ _____ _____    ______ ____
ROOT
ATOM      1  C   UNL     1      45.378   6.292  11.713  0.00  0.00    +0.000 A 
ATOM      2  C   UNL     1      44.019   6.275  12.024  0.00  0.00    +0.000 A 
ATOM      3  C   UNL     1      43.163   5.416  11.347  0.00  0.00    +0.000 A 
ATOM      4  F   UNL     1      41.868   5.376  11.684  0.00  0.00    +0.000 F 
ATOM      5  C   UNL     1      43.627   4.584  10.332  0.00  0.00    +0.000 A 
ATOM      6  C   UNL     1      44.982   4.591   9.969  0.00  0.00    +0.000 A 
ATOM      7  C   UNL     1      45.831   5.473  10.668  0.00  0.00    +0.000 A 
ENDROOT
BRANCH   6   8
ATOM      8  C   UNL     1      45.526   3.683   8.933  0.00  0.00    +0.000 A 
ATOM      9  C   UNL     1      46.148   4.179   7.770  0.00  0.00    +0.000 A 
ATOM     10  C   UNL     1      46.740   3.322   6.836  0.00  0.00    +0.000 A 
ATOM     11  C   UNL     1      46.703   1.947   7.033  0.00  0.00    +0.000 A 
ATOM     12  C   UNL     1      46.069   1.427   8.157  0.00  0.00    +0.000 A 
ATOM     13  C   UNL     1      45.491   2.287   9.096  0.00  0.00    +0.000 A 
ENDBRANCH   6   8
BRANCH   1  14
ATOM     14  N   UNL     1      46.208   7.196  12.394  0.00  0.00    +0.000 N 
ATOM     15  H   UNL     1      46.078   8.129  11.999  0.00  0.00    +0.000 HD
BRANCH  14  16
ATOM     16  C   UNL     1      47.630   6.862  12.471  0.00  0.00    +0.000 C 
BRANCH  16  22
ATOM     17  C   UNL     1      47.849   5.159  15.903  0.00  0.00    +0.000 A 
ATOM     18  C   UNL     1      48.826   5.937  16.526  0.00  0.00    +0.000 A 
ATOM     19  C   UNL     1      49.411   6.983  15.825  0.00  0.00    +0.000 A 
ATOM     20  F   UNL     1      50.362   7.719  16.415  0.00  0.00    +0.000 F 
ATOM     21  C   UNL     1      49.026   7.286  14.524  0.00  0.00    +0.000 A 
ATOM     22  C   UNL     1      48.025   6.533  13.893  0.00  0.00    +0.000 A 
ATOM     23  C   UNL     1      47.468   5.444  14.587  0.00  0.00    +0.000 A 
BRANCH  17  25
ATOM     24  N   UNL     1      46.715   3.205  17.178  0.00  0.00    +0.000 NA
ATOM     25  C   UNL     1      47.227   4.083  16.613  0.00  0.00    +0.000 C 
ENDBRANCH  17  25
ENDBRANCH  16  22
ENDBRANCH  14  16
ENDBRANCH   1  14
TORSDOF 5
ENDMDL
MODEL 7
REMARK VINA RESULT:    -7.216      2.556      4.025
REMARK INTER + INTRA:         -10.262
REMARK INTER:                  -9.406
REMARK INTRA:                  -0.856
REMARK UNBOUND:                -0.937
REMARK  Name = 
REMARK  5 active torsions:
REMARK  status: ('A' for Active; 'I' for Inactive)
REMARK    1  A    between atoms: C_2  and  C_3
REMARK    2  A    between atoms: C_8  and  C_9
REMARK    3  A    between atoms: C_9  and  N_10
REMARK    4  A    between atoms: N_10  and  C_11
REMARK    5  A    between atoms: C_16  and  C_17
REMARK                            x       y       z     vdW  Elec       q    Type
REMARK                         _______ _______ _______ _____ _____    ______ ____
ROOT
ATOM      1  C   UNL     1      45.263   5.892  12.356  0.00  0.00    +0.000 A 
ATOM      2  C   UNL     1      43.887   6.045  12.519  0.00  0.00    +0.000 A 
ATOM      3  C   UNL     1      43.012   5.452  11.619  0.00  0.00    +0.000 A 
ATOM      4  F   UNL     1      41.691   5.568  11.811  0.00  0.00    +0.000 F 
ATOM      5  C   UNL     1      43.479   4.728  10.526  0.00  0.00    +0.000 A 
ATOM      6  C   UNL     1      44.856   4.575  10.310  0.00  0.00    +0.000 A 
ATOM      7  C   UNL     1      45.725   5.187  11.235  0.00  0.00    +0.000 A 
ENDROOT
BRANCH   6   8
ATOM      8  C   UNL     1      45.394   3.767   9.190  0.00  0.00    +0.000 A 
ATOM      9  C   UNL     1      45.991   4.369   8.066  0.00  0.00    +0.000 A 
ATOM     10  C   UNL     1      46.578   3.604   7.052  0.00  0.00    +0.000 A 
ATOM     11  C   UNL     1      46.559   2.216   7.129  0.00  0.00    +0.000 A 
ATOM     12  C   UNL     1      45.949   1.593   8.214  0.00  0.00    +0.000 A 
ATOM     13  C   UNL     1      45.377   2.361   9.233  0.00  0.00    +0.000 A 
ENDBRANCH   6   8
BRANCH   1  14
ATOM     14  N   UNL     1      46.119   6.533  13.266  0.00  0.00    +0.000 N 
ATOM     15  H   UNL     1      45.679   7.396  13.586  0.00  0.00    +0.000 HD
BRANCH  14  16
ATOM     16  C   UNL     1      47.489   6.787  12.820  0.00  0.00    +0.000 C 
BRANCH  16  22
ATOM     17  C   UNL     1      46.708  10.410  11.826  0.00  0.00    +0.000 A 
ATOM     18  C   UNL     1      47.946  10.825  11.333  0.00  0.00    +0.000 A 
ATOM     19  C   UNL     1      49.016   9.939  11.348  0.00  0.00    +0.000 A 
ATOM     20  F   UNL     1      50.209  10.342  10.894  0.00  0.00    +0.000 F 
ATOM     21  C   UNL     1      48.872   8.639  11.821  0.00  0.00    +0.000 A 
ATOM     22  C   UNL     1      47.627   8.196  12.292  0.00  0.00    +0.000 A 
ATOM     23  C   UNL     1      46.558   9.109  12.321  0.00  0.00    +0.000 A 
BRANCH  17  25
ATOM     24  N   UNL     1      44.691  12.040  11.802  0.00  0.00    +0.000 NA
ATOM     25  C   UNL     1      45.591  11.304  11.809  0.00  0.00    +0.000 C 
ENDBRANCH  17  25
ENDBRANCH  16  22
ENDBRANCH  14  16
ENDBRANCH   1  14
TORSDOF 5
ENDMDL
MODEL 8
REMARK VINA RESULT:    -7.078      2.780      3.822
REMARK INTER + INTRA:         -10.083
REMARK INTER:                  -9.387
REMARK INTRA:                  -0.696
REMARK UNBOUND:                -0.937
REMARK  Name = 
REMARK  5 active torsions:
REMARK  status: ('A' for Active; 'I' for Inactive)
REMARK    1  A    between atoms: C_2  and  C_3
REMARK    2  A    between atoms: C_8  and  C_9
REMARK    3  A    between atoms: C_9  and  N_10
REMARK    4  A    between atoms: N_10  and  C_11
REMARK    5  A    between atoms: C_16  and  C_17
REMARK                            x       y       z     vdW  Elec       q    Type
REMARK                         _______ _______ _______ _____ _____    ______ ____
ROOT
ATOM      1  C   UNL     1      45.194   5.702  12.600  0.00  0.00    +0.000 A 
ATOM      2  C   UNL     1      43.818   5.909  12.680  0.00  0.00    +0.000 A 
ATOM      3  C   UNL     1      42.982   5.418  11.687  0.00  0.00    +0.000 A 
ATOM      4  F   UNL     1      41.659   5.584  11.797  0.00  0.00    +0.000 F 
ATOM      5  C   UNL     1      43.493   4.743  10.581  0.00  0.00    +0.000 A 
ATOM      6  C   UNL     1      44.874   4.538  10.448  0.00  0.00    +0.000 A 
ATOM      7  C   UNL     1      45.702   5.048  11.467  0.00  0.00    +0.000 A 
ENDROOT
BRANCH   6   8
ATOM      8  C   UNL     1      45.453   3.777   9.316  0.00  0.00    +0.000 A 
ATOM      9  C   UNL     1      45.433   2.369   9.286  0.00  0.00    +0.000 A 
ATOM     10  C   UNL     1      45.900   1.655   8.177  0.00  0.00    +0.000 A 
ATOM     11  C   UNL     1      46.419   2.334   7.081  0.00  0.00    +0.000 A 
ATOM     12  C   UNL     1      46.479   3.724   7.095  0.00  0.00    +0.000 A 
ATOM     13  C   UNL     1      45.998   4.436   8.199  0.00  0.00    +0.000 A 
ENDBRANCH   6   8
BRANCH   1  14
ATOM     14  N   UNL     1      46.012   6.242  13.605  0.00  0.00    +0.000 N 
ATOM     15  H   UNL     1      46.020   7.259  13.517  0.00  0.00    +0.000 HD
BRANCH  14  16
ATOM     16  C   UNL     1      47.375   5.721  13.701  0.00  0.00    +0.000 C 
BRANCH  16  22
ATOM     17  C   UNL     1      48.815   5.741  17.258  0.00  0.00    +0.000 A 
ATOM     18  C   UNL     1      48.241   4.584  17.786  0.00  0.00    +0.000 A 
ATOM     19  C   UNL     1      47.384   3.829  16.995  0.00  0.00    +0.000 A 
ATOM     20  F   UNL     1      46.817   2.728  17.506  0.00  0.00    +0.000 F 
ATOM     21  C   UNL     1      47.108   4.188  15.681  0.00  0.00    +0.000 A 
ATOM     22  C   UNL     1      47.700   5.332  15.125  0.00  0.00    +0.000 A 
ATOM     23  C   UNL     1      48.528   6.122  15.942  0.00  0.00    +0.000 A 
BRANCH  17  25
ATOM     24  N   UNL     1      50.444   7.163  18.692  0.00  0.00    +0.000 NA
ATOM     25  C   UNL     1      49.708   6.528  18.053  0.00  0.00    +0.000 C 
ENDBRANCH  17  25
ENDBRANCH  16  22
ENDBRANCH  14  16
ENDBRANCH   1  14
TORSDOF 5
ENDMDL
MODEL 9
REMARK VINA RESULT:    -6.945      2.217      6.430
REMARK INTER + INTRA:          -9.911
REMARK INTER:                  -8.966
REMARK INTRA:                  -0.945
REMARK UNBOUND:                -0.937
REMARK  Name = 
REMARK  5 active torsions:
REMARK  status: ('A' for Active; 'I' for Inactive)
REMARK    1  A    between atoms: C_2  and  C_3
REMARK    2  A    between atoms: C_8  and  C_9
REMARK    3  A    between atoms: C_9  and  N_10
REMARK    4  A    between atoms: N_10  and  C_11
REMARK    5  A    between atoms: C_16  and  C_17
REMARK                            x       y       z     vdW  Elec       q    Type
REMARK                         _______ _______ _______ _____ _____    ______ ____
ROOT
ATOM      1  C   UNL     1      45.146   6.268  12.895  0.00  0.00    +0.000 A 
ATOM      2  C   UNL     1      45.600   5.164  13.613  0.00  0.00    +0.000 A 
ATOM      3  C   UNL     1      46.960   4.989  13.831  0.00  0.00    +0.000 A 
ATOM      4  F   UNL     1      47.382   3.948  14.560  0.00  0.00    +0.000 F 
ATOM      5  C   UNL     1      47.896   5.882  13.316  0.00  0.00    +0.000 A 
ATOM      6  C   UNL     1      47.482   6.991  12.563  0.00  0.00    +0.000 A 
ATOM      7  C   UNL     1      46.097   7.146  12.353  0.00  0.00    +0.000 A 
ENDROOT
BRANCH   6   8
ATOM      8  C   UNL     1      48.441   7.994  12.044  0.00  0.00    +0.000 A 
ATOM      9  C   UNL     1      48.073   9.342  11.866  0.00  0.00    +0.000 A 
ATOM     10  C   UNL     1      49.003  10.306  11.460  0.00  0.00    +0.000 A 
ATOM     11  C   UNL     1      50.318   9.937  11.202  0.00  0.00    +0.000 A 
ATOM     12  C   UNL     1      50.703   8.607  11.341  0.00  0.00    +0.000 A 
ATOM     13  C   UNL     1      49.774   7.649  11.760  0.00  0.00    +0.000 A 
ENDBRANCH   6   8
BRANCH   1  14
ATOM     14  N   UNL     1      43.767   6.395  12.665  0.00  0.00    +0.000 N 
ATOM     15  H   UNL     1      43.268   5.732  13.259  0.00  0.00    +0.000 HD
BRANCH  14  16
ATOM     16  C   UNL     1      43.313   6.289  11.278  0.00  0.00    +0.000 C 
BRANCH  16  22
ATOM     17  C   UNL     1      44.828   3.568   9.036  0.00  0.00    +0.000 A 
ATOM     18  C   UNL     1      44.378   2.413   9.676  0.00  0.00    +0.000 A 
ATOM     19  C   UNL     1      43.611   2.528  10.828  0.00  0.00    +0.000 A 
ATOM     20  F   UNL     1      43.194   1.420  11.454  0.00  0.00    +0.000 F 
ATOM     21  C   UNL     1      43.263   3.772  11.343  0.00  0.00    +0.000 A 
ATOM     22  C   UNL     1      43.683   4.943  10.697  0.00  0.00    +0.000 A 
ATOM     23  C   UNL     1      44.499   4.825   9.557  0.00  0.00    +0.000 A 
BRANCH  17  25
ATOM     24  N   UNL     1      46.243   3.377   6.870  0.00  0.00    +0.000 NA
ATOM     25  C   UNL     1      45.610   3.470   7.842  0.00  0.00    +0.000 C 
ENDBRANCH  17  25
ENDBRANCH  16  22
ENDBRANCH  14  16
ENDBRANCH   1  14
TORSDOF 5
ENDMDL
