MODEL 1
REMARK VINA RESULT:    -7.572      0.000      0.000
REMARK INTER + INTRA:         -10.081
REMARK INTER:                  -9.343
REMARK INTRA:                  -0.738
REMARK UNBOUND:                -0.738
REMARK  Name = 
REMARK  4 active torsions:
REMARK  status: ('A' for Active; 'I' for Inactive)
REMARK    1  A    between atoms: C_5  and  N_6
REMARK    2  A    between atoms: N_6  and  C_7
REMARK    3  A    between atoms: C_7  and  C_8
REMARK    4  A    between atoms: C_12  and  C_13
REMARK                            x       y       z     vdW  Elec       q    Type
REMARK                         _______ _______ _______ _____ _____    ______ ____
ROOT
ATOM      1  C   UNL     1      45.256   5.232  12.064  0.00  0.00    +0.000 A 
ATOM      2  C   UNL     1      45.407   4.397  13.181  0.00  0.00    +0.000 A 
ATOM      3  C   UNL     1      46.552   4.458  13.973  0.00  0.00    +0.000 A 
ATOM      4  C   UNL     1      47.549   5.390  13.687  0.00  0.00    +0.000 A 
ATOM      5  C   UNL     1      47.398   6.311  12.639  0.00  0.00    +0.000 A 
ATOM      6  C   UNL     1      46.253   6.193  11.836  0.00  0.00    +0.000 A 
ENDROOT
BRANCH   5   7
ATOM      7  C   UNL     1      48.479   7.357  12.382  0.00  0.00    +0.000 C 
ATOM      8  C   UNL     1      49.271   7.698  13.659  0.00  0.00    +0.000 C 
ATOM      9  C   UNL     1      48.479   8.613  14.594  0.00  0.00    +0.000 C 
ATOM     10  N   UNL     1      48.094   9.860  13.932  0.00  0.00    +0.000 NA
ATOM     11  C   UNL     1      47.287   9.599  12.740  0.00  0.00    +0.000 C 
ATOM     12  C   UNL     1      48.008   8.683  11.743  0.00  0.00    +0.000 C 
ATOM     13  H   UNL     1      48.933  10.370  13.661  0.00  0.00    +0.000 HD
ENDBRANCH   5   7
BRANCH   1  14
ATOM     14  C   UNL     1      44.113   5.052  11.069  0.00  0.00    +0.000 C 
ATOM     15  C   UNL     1      42.848   4.373  11.564  0.00  0.00    +0.000 C 
ATOM     16  C   UNL     1      42.852   5.854  11.380  0.00  0.00    +0.000 C 
BRANCH  14  17
ATOM     17  N   UNL     1      44.517   5.057   9.659  0.00  0.00    +0.000 N 
ATOM     18  H   UNL     1      44.893   5.941   9.312  0.00  0.00    +0.000 HD
BRANCH  17  23
ATOM     19  F   UNL     1      47.173   1.348   6.706  0.00  0.00    +0.000 F 
ATOM     20  C   UNL     1      46.557   2.219   7.510  0.00  0.00    +0.000 A 
ATOM     21  C   UNL     1      46.678   3.575   7.264  0.00  0.00    +0.000 A 
ATOM     22  N   UNL     1      46.035   4.516   8.000  0.00  0.00    +0.000 NA
ATOM     23  C   UNL     1      45.262   4.067   9.014  0.00  0.00    +0.000 A 
ATOM     24  C   UNL     1      45.171   2.696   9.266  0.00  0.00    +0.000 A 
ATOM     25  N   UNL     1      45.810   1.743   8.526  0.00  0.00    +0.000 NA
ENDBRANCH  17  23
ENDBRANCH  14  17
ENDBRANCH   1  14
TORSDOF 4
ENDMDL
MODEL 2
REMARK VINA RESULT:    -7.003      2.235      3.114
REMARK INTER + INTRA:          -9.379
REMARK INTER:                  -9.029
REMARK INTRA:                  -0.350
REMARK UNBOUND:                -0.738
REMARK  Name = 
REMARK  4 active torsions:
REMARK  status: ('A' for Active; 'I' for Inactive)
REMARK    1  A    between atoms: C_5  and  N_6
REMARK    2  A    between atoms: N_6  and  C_7
REMARK    3  A    between atoms: C_7  and  C_8
REMARK    4  A    between atoms: C_12  and  C_13
REMARK                            x       y       z     vdW  Elec       q    Type
REMARK                         _______ _______ _______ _____ _____    ______ ____
ROOT
ATOM      1  C   UNL     1      44.933   6.235  11.475  0.00  0.00    +0.000 A 
ATOM      2  C   UNL     1      46.305   6.045  11.696  0.00  0.00    +0.000 A 
ATOM      3  C   UNL     1      47.150   7.127  11.936  0.00  0.00    +0.000 A 
ATOM      4  C   UNL     1      46.628   8.418  12.005  0.00  0.00    +0.000 A 
ATOM      5  C   UNL     1      45.248   8.646  11.887  0.00  0.00    +0.000 A 
ATOM      6  C   UNL     1      44.432   7.540  11.603  0.00  0.00    +0.000 A 
ENDROOT
BRANCH   5   7
ATOM      7  C   UNL     1      44.696  10.063  12.022  0.00  0.00    +0.000 C 
ATOM      8  C   UNL     1      43.486  10.304  11.099  0.00  0.00    +0.000 C 
ATOM      9  C   UNL     1      43.910  10.509   9.644  0.00  0.00    +0.000 C 
ATOM     10  N   UNL     1      44.839  11.632   9.505  0.00  0.00    +0.000 NA
ATOM     11  C   UNL     1      46.039  11.429  10.317  0.00  0.00    +0.000 C 
ATOM     12  C   UNL     1      45.704  11.213  11.798  0.00  0.00    +0.000 C 
ATOM     13  H   UNL     1      44.377  12.490   9.802  0.00  0.00    +0.000 HD
ENDBRANCH   5   7
BRANCH   1  14
ATOM     14  C   UNL     1      44.023   5.099  11.016  0.00  0.00    +0.000 C 
ATOM     15  C   UNL     1      43.583   4.085  12.056  0.00  0.00    +0.000 C 
ATOM     16  C   UNL     1      42.613   5.123  11.599  0.00  0.00    +0.000 C 
BRANCH  14  17
ATOM     17  N   UNL     1      44.095   4.794   9.582  0.00  0.00    +0.000 N 
ATOM     18  H   UNL     1      44.031   5.599   8.958  0.00  0.00    +0.000 HD
BRANCH  17  23
ATOM     19  F   UNL     1      47.417   1.563   6.745  0.00  0.00    +0.000 F 
ATOM     20  C   UNL     1      46.637   2.319   7.522  0.00  0.00    +0.000 A 
ATOM     21  C   UNL     1      46.603   3.688   7.326  0.00  0.00    +0.000 A 
ATOM     22  N   UNL     1      45.791   4.512   8.036  0.00  0.00    +0.000 NA
ATOM     23  C   UNL     1      45.007   3.931   8.971  0.00  0.00    +0.000 A 
ATOM     24  C   UNL     1      45.071   2.550   9.174  0.00  0.00    +0.000 A 
ATOM     25  N   UNL     1      45.881   1.714   8.460  0.00  0.00    +0.000 NA
ENDBRANCH  17  23
ENDBRANCH  14  17
ENDBRANCH   1  14
TORSDOF 4
ENDMDL
MODEL 3
REMARK VINA RESULT:    -6.935      1.162      1.730
REMARK INTER + INTRA:          -9.294
REMARK INTER:                  -9.373
REMARK INTRA:                   0.079
REMARK UNBOUND:                -0.738
REMARK  Name = 
REMARK  4 active torsions:
REMARK  status: ('A' for Active; 'I' for Inactive)
REMARK    1  A    between atoms: C_5  and  N_6
REMARK    2  A    between atoms: N_6  and  C_7
REMARK    3  A    between atoms: C_7  and  C_8
REMARK    4  A    between atoms: C_12  and  C_13
REMARK                            x       y       z     vdW  Elec       q    Type
REMARK                         _______ _______ _______ _____ _____    ______ ____
ROOT
ATOM      1  C   UNL     1      44.875   6.242  11.354  0.00  0.00    +0.000 A 
ATOM      2  C   UNL     1      44.393   7.559  11.398  0.00  0.00    +0.000 A 
ATOM      3  C   UNL     1      45.191   8.600  11.869  0.00  0.00    +0.000 A 
ATOM      4  C   UNL     1      46.506   8.349  12.260  0.00  0.00    +0.000 A 
ATOM      5  C   UNL     1      47.062   7.066  12.141  0.00  0.00    +0.000 A 
ATOM      6  C   UNL     1      46.218   6.033  11.705  0.00  0.00    +0.000 A 
ENDROOT
BRANCH   5   7
ATOM      7  C   UNL     1      48.521   6.830  12.525  0.00  0.00    +0.000 C 
ATOM      8  C   UNL     1      48.744   6.931  14.046  0.00  0.00    +0.000 C 
ATOM      9  C   UNL     1      48.757   8.383  14.525  0.00  0.00    +0.000 C 
ATOM     10  N   UNL     1      49.789   9.168  13.845  0.00  0.00    +0.000 NA
ATOM     11  C   UNL     1      49.593   9.156  12.395  0.00  0.00    +0.000 C 
ATOM     12  C   UNL     1      49.564   7.732  11.828  0.00  0.00    +0.000 C 
ATOM     13  H   UNL     1      50.705   8.778  14.060  0.00  0.00    +0.000 HD
ENDBRANCH   5   7
BRANCH   1  14
ATOM     14  C   UNL     1      43.966   5.059  11.035  0.00  0.00    +0.000 C 
ATOM     15  C   UNL     1      43.593   4.129  12.176  0.00  0.00    +0.000 C 
ATOM     16  C   UNL     1      42.584   5.111  11.681  0.00  0.00    +0.000 C 
BRANCH  14  17
ATOM     17  N   UNL     1      43.978   4.635   9.630  0.00  0.00    +0.000 N 
ATOM     18  H   UNL     1      43.828   5.377   8.945  0.00  0.00    +0.000 HD
BRANCH  17  23
ATOM     19  F   UNL     1      47.350   1.387   6.871  0.00  0.00    +0.000 F 
ATOM     20  C   UNL     1      46.560   2.152   7.630  0.00  0.00    +0.000 A 
ATOM     21  C   UNL     1      46.470   3.508   7.367  0.00  0.00    +0.000 A 
ATOM     22  N   UNL     1      45.645   4.336   8.055  0.00  0.00    +0.000 NA
ATOM     23  C   UNL     1      44.906   3.775   9.039  0.00  0.00    +0.000 A 
ATOM     24  C   UNL     1      45.028   2.409   9.309  0.00  0.00    +0.000 A 
ATOM     25  N   UNL     1      45.851   1.569   8.616  0.00  0.00    +0.000 NA
ENDBRANCH  17  23
ENDBRANCH  14  17
ENDBRANCH   1  14
TORSDOF 4
ENDMDL
MODEL 4
REMARK VINA RESULT:    -6.562      3.352      6.734
REMARK INTER + INTRA:          -8.835
REMARK INTER:                  -8.489
REMARK INTRA:                  -0.346
REMARK UNBOUND:                -0.738
REMARK  Name = 
REMARK  4 active torsions:
REMARK  status: ('A' for Active; 'I' for Inactive)
REMARK    1  A    between atoms: C_5  and  N_6
REMARK    2  A    between atoms: N_6  and  C_7
REMARK    3  A    between atoms: C_7  and  C_8
REMARK    4  A    between atoms: C_12  and  C_13
REMARK                            x       y       z     vdW  Elec       q    Type
REMARK                         _______ _______ _______ _____ _____    ______ ____
ROOT
ATOM      1  C   UNL     1      46.807   7.621  12.874  0.00  0.00    +0.000 A 
ATOM      2  C   UNL     1      46.265   8.908  12.748  0.00  0.00    +0.000 A 
ATOM      3  C   UNL     1      45.108   9.130  12.004  0.00  0.00    +0.000 A 
ATOM      4  C   UNL     1      44.444   8.058  11.410  0.00  0.00    +0.000 A 
ATOM      5  C   UNL     1      44.894   6.741  11.590  0.00  0.00    +0.000 A 
ATOM      6  C   UNL     1      46.086   6.557  12.308  0.00  0.00    +0.000 A 
ENDROOT
BRANCH   5   7
ATOM      7  C   UNL     1      44.117   5.579  10.975  0.00  0.00    +0.000 C 
ATOM      8  C   UNL     1      42.793   5.310  11.715  0.00  0.00    +0.000 C 
ATOM      9  C   UNL     1      43.019   4.578  13.039  0.00  0.00    +0.000 C 
ATOM     10  N   UNL     1      43.715   3.305  12.841  0.00  0.00    +0.000 NA
ATOM     11  C   UNL     1      45.010   3.506  12.192  0.00  0.00    +0.000 C 
ATOM     12  C   UNL     1      44.877   4.239  10.851  0.00  0.00    +0.000 C 
ATOM     13  H   UNL     1      43.142   2.696  12.260  0.00  0.00    +0.000 HD
ENDBRANCH   5   7
BRANCH   1  14
ATOM     14  C   UNL     1      48.173   7.376  13.510  0.00  0.00    +0.000 C 
ATOM     15  C   UNL     1      49.312   6.965  12.594  0.00  0.00    +0.000 C 
ATOM     16  C   UNL     1      49.262   8.366  13.105  0.00  0.00    +0.000 C 
BRANCH  14  17
ATOM     17  N   UNL     1      48.136   7.046  14.939  0.00  0.00    +0.000 N 
ATOM     18  H   UNL     1      47.496   7.606  15.503  0.00  0.00    +0.000 HD
BRANCH  17  23
ATOM     19  F   UNL     1      48.414   2.015  16.973  0.00  0.00    +0.000 F 
ATOM     20  C   UNL     1      48.251   3.245  16.479  0.00  0.00    +0.000 A 
ATOM     21  C   UNL     1      48.942   4.302  17.043  0.00  0.00    +0.000 A 
ATOM     22  N   UNL     1      48.873   5.568  16.558  0.00  0.00    +0.000 NA
ATOM     23  C   UNL     1      48.074   5.762  15.484  0.00  0.00    +0.000 A 
ATOM     24  C   UNL     1      47.363   4.689  14.942  0.00  0.00    +0.000 A 
ATOM     25  N   UNL     1      47.432   3.412  15.421  0.00  0.00    +0.000 NA
ENDBRANCH  17  23
ENDBRANCH  14  17
ENDBRANCH   1  14
TORSDOF 4
ENDMDL
MODEL 5
REMARK VINA RESULT:    -6.142      1.306      1.981
REMARK INTER + INTRA:          -8.317
REMARK INTER:                  -8.210
REMARK INTRA:                  -0.107
REMARK UNBOUND:                -0.738
REMARK  Name = 
REMARK  4 active torsions:
REMARK  status: ('A' for Active; 'I' for Inactive)
REMARK    1  A    between atoms: C_5  and  N_6
REMARK    2  A    between atoms: N_6  and  C_7
REMARK    3  A    between atoms: C_7  and  C_8
REMARK    4  A    between atoms: C_12  and  C_13
REMARK                            x       y       z     vdW  Elec       q    Type
REMARK                         _______ _______ _______ _____ _____    ______ ____
ROOT
ATOM      1  C   UNL     1      45.587   4.789  11.612  0.00  0.00    +0.000 A 
ATOM      2  C   UNL     1      45.760   3.958  12.729  0.00  0.00    +0.000 A 
ATOM      3  C   UNL     1      46.575   4.343  13.791  0.00  0.00    +0.000 A 
ATOM      4  C   UNL     1      47.196   5.591  13.777  0.00  0.00    +0.000 A 
ATOM      5  C   UNL     1      46.974   6.496  12.728  0.00  0.00    +0.000 A 
ATOM      6  C   UNL     1      46.184   6.059  11.654  0.00  0.00    +0.000 A 
ENDROOT
BRANCH   5   7
ATOM      7  C   UNL     1      47.622   7.878  12.764  0.00  0.00    +0.000 C 
ATOM      8  C   UNL     1      48.564   8.108  11.566  0.00  0.00    +0.000 C 
ATOM      9  C   UNL     1      49.896   7.378  11.739  0.00  0.00    +0.000 C 
ATOM     10  N   UNL     1      50.584   7.789  12.964  0.00  0.00    +0.000 NA
ATOM     11  C   UNL     1      49.757   7.539  14.144  0.00  0.00    +0.000 C 
ATOM     12  C   UNL     1      48.394   8.236  14.054  0.00  0.00    +0.000 C 
ATOM     13  H   UNL     1      50.797   8.784  12.912  0.00  0.00    +0.000 HD
ENDBRANCH   5   7
BRANCH   1  14
ATOM     14  C   UNL     1      44.867   4.314  10.354  0.00  0.00    +0.000 C 
ATOM     15  C   UNL     1      43.785   3.260  10.516  0.00  0.00    +0.000 C 
ATOM     16  C   UNL     1      43.386   4.679  10.278  0.00  0.00    +0.000 C 
BRANCH  14  17
ATOM     17  N   UNL     1      45.616   4.504   9.106  0.00  0.00    +0.000 N 
ATOM     18  H   UNL     1      46.436   5.109   9.174  0.00  0.00    +0.000 HD
BRANCH  17  23
ATOM     19  F   UNL     1      47.430   0.508   5.903  0.00  0.00    +0.000 F 
ATOM     20  C   UNL     1      46.920   1.511   6.622  0.00  0.00    +0.000 A 
ATOM     21  C   UNL     1      46.542   1.284   7.934  0.00  0.00    +0.000 A 
ATOM     22  N   UNL     1      46.072   2.267   8.743  0.00  0.00    +0.000 NA
ATOM     23  C   UNL     1      45.976   3.502   8.203  0.00  0.00    +0.000 A 
ATOM     24  C   UNL     1      46.338   3.709   6.870  0.00  0.00    +0.000 A 
ATOM     25  N   UNL     1      46.816   2.727   6.051  0.00  0.00    +0.000 NA
ENDBRANCH  17  23
ENDBRANCH  14  17
ENDBRANCH   1  14
TORSDOF 4
ENDMDL
MODEL 6
REMARK VINA RESULT:    -5.978      3.517      5.867
REMARK INTER + INTRA:          -8.114
REMARK INTER:                  -7.341
REMARK INTRA:                  -0.773
REMARK UNBOUND:                -0.738
REMARK  Name = 
REMARK  4 active torsions:
REMARK  status: ('A' for Active; 'I' for Inactive)
REMARK    1  A    between atoms: C_5  and  N_6
REMARK    2  A    between atoms: N_6  and  C_7
REMARK    3  A    between atoms: C_7  and  C_8
REMARK    4  A    between atoms: C_12  and  C_13
REMARK                            x       y       z     vdW  Elec       q    Type
REMARK                         _______ _______ _______ _____ _____    ______ ____
ROOT
ATOM      1  C   UNL     1      48.649   7.910  14.277  0.00  0.00    +0.000 A 
ATOM      2  C   UNL     1      48.405   9.197  14.780  0.00  0.00    +0.000 A 
ATOM      3  C   UNL     1      48.330   9.430  16.151  0.00  0.00    +0.000 A 
ATOM      4  C   UNL     1      48.545   8.385  17.049  0.00  0.00    +0.000 A 
ATOM      5  C   UNL     1      48.889   7.102  16.595  0.00  0.00    +0.000 A 
ATOM      6  C   UNL     1      48.913   6.892  15.208  0.00  0.00    +0.000 A 
ENDROOT
BRANCH   5   7
ATOM      7  C   UNL     1      49.174   5.989  17.600  0.00  0.00    +0.000 C 
ATOM      8  C   UNL     1      48.868   4.594  17.023  0.00  0.00    +0.000 C 
ATOM      9  C   UNL     1      47.366   4.306  16.992  0.00  0.00    +0.000 C 
ATOM     10  N   UNL     1      46.769   4.406  18.325  0.00  0.00    +0.000 NA
ATOM     11  C   UNL     1      46.978   5.735  18.901  0.00  0.00    +0.000 C 
ATOM     12  C   UNL     1      48.465   6.107  18.968  0.00  0.00    +0.000 C 
ATOM     13  H   UNL     1      47.190   3.709  18.936  0.00  0.00    +0.000 HD
ENDBRANCH   5   7
BRANCH   1  14
ATOM     14  C   UNL     1      48.540   7.588  12.790  0.00  0.00    +0.000 C 
ATOM     15  C   UNL     1      48.423   8.754  11.824  0.00  0.00    +0.000 C 
ATOM     16  C   UNL     1      49.726   8.037  11.941  0.00  0.00    +0.000 C 
BRANCH  14  17
ATOM     17  N   UNL     1      48.034   6.244  12.486  0.00  0.00    +0.000 N 
ATOM     18  H   UNL     1      48.593   5.472  12.851  0.00  0.00    +0.000 HD
BRANCH  17  23
ATOM     19  F   UNL     1      42.768   5.070  13.127  0.00  0.00    +0.000 F 
ATOM     20  C   UNL     1      44.077   5.267  12.947  0.00  0.00    +0.000 A 
ATOM     21  C   UNL     1      44.504   6.290  12.120  0.00  0.00    +0.000 A 
ATOM     22  N   UNL     1      45.815   6.588  11.936  0.00  0.00    +0.000 NA
ATOM     23  C   UNL     1      46.709   5.820  12.599  0.00  0.00    +0.000 A 
ATOM     24  C   UNL     1      46.262   4.774  13.411  0.00  0.00    +0.000 A 
ATOM     25  N   UNL     1      44.945   4.473  13.605  0.00  0.00    +0.000 NA
ENDBRANCH  17  23
ENDBRANCH  14  17
ENDBRANCH   1  14
TORSDOF 4
ENDMDL
MODEL 7
REMARK VINA RESULT:    -5.891      4.012      7.303
REMARK INTER + INTRA:          -8.006
REMARK INTER:                  -8.004
REMARK INTRA:                  -0.002
REMARK UNBOUND:                -0.738
REMARK  Name = 
REMARK  4 active torsions:
REMARK  status: ('A' for Active; 'I' for Inactive)
REMARK    1  A    between atoms: C_5  and  N_6
REMARK    2  A    between atoms: N_6  and  C_7
REMARK    3  A    between atoms: C_7  and  C_8
REMARK    4  A    between atoms: C_12  and  C_13
REMARK                            x       y       z     vdW  Elec       q    Type
REMARK                         _______ _______ _______ _____ _____    ______ ____
ROOT
ATOM      1  C   UNL     1      47.878   6.711  14.053  0.00  0.00    +0.000 A 
ATOM      2  C   UNL     1      48.253   7.420  12.902  0.00  0.00    +0.000 A 
ATOM      3  C   UNL     1      47.640   7.174  11.675  0.00  0.00    +0.000 A 
ATOM      4  C   UNL     1      46.605   6.244  11.587  0.00  0.00    +0.000 A 
ATOM      5  C   UNL     1      46.130   5.581  12.729  0.00  0.00    +0.000 A 
ATOM      6  C   UNL     1      46.798   5.820  13.940  0.00  0.00    +0.000 A 
ENDROOT
BRANCH   5   7
ATOM      7  C   UNL     1      44.959   4.608  12.614  0.00  0.00    +0.000 C 
ATOM      8  C   UNL     1      45.030   3.766  11.326  0.00  0.00    +0.000 C 
ATOM      9  C   UNL     1      44.603   4.568  10.096  0.00  0.00    +0.000 C 
ATOM     10  N   UNL     1      43.246   5.097  10.239  0.00  0.00    +0.000 NA
ATOM     11  C   UNL     1      43.134   5.955  11.418  0.00  0.00    +0.000 C 
ATOM     12  C   UNL     1      43.546   5.227  12.704  0.00  0.00    +0.000 C 
ATOM     13  H   UNL     1      42.591   4.322  10.328  0.00  0.00    +0.000 HD
ENDBRANCH   5   7
BRANCH   1  14
ATOM     14  C   UNL     1      48.661   6.815  15.358  0.00  0.00    +0.000 C 
ATOM     15  C   UNL     1      50.005   7.521  15.319  0.00  0.00    +0.000 C 
ATOM     16  C   UNL     1      48.829   8.232  15.901  0.00  0.00    +0.000 C 
BRANCH  14  17
ATOM     17  N   UNL     1      48.318   5.803  16.364  0.00  0.00    +0.000 N 
ATOM     18  H   UNL     1      47.339   5.516  16.383  0.00  0.00    +0.000 HD
BRANCH  17  23
ATOM     19  F   UNL     1      50.726   1.126  17.725  0.00  0.00    +0.000 F 
ATOM     20  C   UNL     1      50.218   2.304  17.355  0.00  0.00    +0.000 A 
ATOM     21  C   UNL     1      49.052   2.339  16.610  0.00  0.00    +0.000 A 
ATOM     22  N   UNL     1      48.445   3.497  16.249  0.00  0.00    +0.000 NA
ATOM     23  C   UNL     1      49.044   4.643  16.643  0.00  0.00    +0.000 A 
ATOM     24  C   UNL     1      50.235   4.592  17.372  0.00  0.00    +0.000 A 
ATOM     25  N   UNL     1      50.848   3.430  17.744  0.00  0.00    +0.000 NA
ENDBRANCH  17  23
ENDBRANCH  14  17
ENDBRANCH   1  14
TORSDOF 4
ENDMDL
MODEL 8
REMARK VINA RESULT:    -5.753      3.562      5.569
REMARK INTER + INTRA:          -7.837
REMARK INTER:                  -7.812
REMARK INTRA:                  -0.025
REMARK UNBOUND:                -0.738
REMARK  Name = 
REMARK  4 active torsions:
REMARK  status: ('A' for Active; 'I' for Inactive)
REMARK    1  A    between atoms: C_5  and  N_6
REMARK    2  A    between atoms: N_6  and  C_7
REMARK    3  A    between atoms: C_7  and  C_8
REMARK    4  A    between atoms: C_12  and  C_13
REMARK                            x       y       z     vdW  Elec       q    Type
REMARK                         _______ _______ _______ _____ _____    ______ ____
ROOT
ATOM      1  C   UNL     1      48.382   6.865  14.247  0.00  0.00    +0.000 A 
ATOM      2  C   UNL     1      49.636   7.488  14.173  0.00  0.00    +0.000 A 
ATOM      3  C   UNL     1      50.560   7.370  15.209  0.00  0.00    +0.000 A 
ATOM      4  C   UNL     1      50.262   6.584  16.322  0.00  0.00    +0.000 A 
ATOM      5  C   UNL     1      49.060   5.863  16.397  0.00  0.00    +0.000 A 
ATOM      6  C   UNL     1      48.136   6.040  15.356  0.00  0.00    +0.000 A 
ENDROOT
BRANCH   5   7
ATOM      7  C   UNL     1      48.783   4.967  17.601  0.00  0.00    +0.000 C 
ATOM      8  C   UNL     1      50.081   4.431  18.236  0.00  0.00    +0.000 C 
ATOM      9  C   UNL     1      50.691   3.294  17.414  0.00  0.00    +0.000 C 
ATOM     10  N   UNL     1      49.753   2.182  17.250  0.00  0.00    +0.000 NA
ATOM     11  C   UNL     1      48.520   2.622  16.596  0.00  0.00    +0.000 C 
ATOM     12  C   UNL     1      47.840   3.767  17.356  0.00  0.00    +0.000 C 
ATOM     13  H   UNL     1      49.525   1.796  18.164  0.00  0.00    +0.000 HD
ENDBRANCH   5   7
BRANCH   1  14
ATOM     14  C   UNL     1      47.281   7.138  13.226  0.00  0.00    +0.000 C 
ATOM     15  C   UNL     1      47.480   8.300  12.270  0.00  0.00    +0.000 C 
ATOM     16  C   UNL     1      47.677   6.908  11.770  0.00  0.00    +0.000 C 
BRANCH  14  17
ATOM     17  N   UNL     1      45.957   6.624  13.597  0.00  0.00    +0.000 N 
ATOM     18  H   UNL     1      45.220   7.326  13.673  0.00  0.00    +0.000 HD
BRANCH  17  23
ATOM     19  F   UNL     1      43.153   2.304  11.865  0.00  0.00    +0.000 F 
ATOM     20  C   UNL     1      43.913   3.340  12.232  0.00  0.00    +0.000 A 
ATOM     21  C   UNL     1      43.383   4.617  12.201  0.00  0.00    +0.000 A 
ATOM     22  N   UNL     1      44.074   5.709  12.615  0.00  0.00    +0.000 NA
ATOM     23  C   UNL     1      45.333   5.497  13.058  0.00  0.00    +0.000 A 
ATOM     24  C   UNL     1      45.863   4.204  13.060  0.00  0.00    +0.000 A 
ATOM     25  N   UNL     1      45.172   3.100  12.651  0.00  0.00    +0.000 NA
ENDBRANCH  17  23
ENDBRANCH  14  17
ENDBRANCH   1  14
TORSDOF 4
ENDMDL
MODEL 9
REMARK VINA RESULT:    -5.568      5.264      7.759
REMARK INTER + INTRA:          -7.608
REMARK INTER:                  -7.117
REMARK INTRA:                  -0.492
REMARK UNBOUND:                -0.738
REMARK  Name = 
REMARK  4 active torsions:
REMARK  status: ('A' for Active; 'I' for Inactive)
REMARK    1  A    between atoms: C_5  and  N_6
REMARK    2  A    between atoms: N_6  and  C_7
REMARK    3  A    between atoms: C_7  and  C_8
REMARK    4  A    between atoms: C_12  and  C_13
REMARK                            x       y       z     vdW  Elec       q    Type
REMARK                         _______ _______ _______ _____ _____    ______ ____
ROOT
ATOM      1  C   UNL     1      48.137   5.443  15.946  0.00  0.00    +0.000 A 
ATOM      2  C   UNL     1      48.876   6.624  15.784  0.00  0.00    +0.000 A 
ATOM      3  C   UNL     1      48.935   7.271  14.551  0.00  0.00    +0.000 A 
ATOM      4  C   UNL     1      48.216   6.771  13.466  0.00  0.00    +0.000 A 
ATOM      5  C   UNL     1      47.386   5.648  13.606  0.00  0.00    +0.000 A 
ATOM      6  C   UNL     1      47.384   4.996  14.848  0.00  0.00    +0.000 A 
ENDROOT
BRANCH   5   7
ATOM      7  C   UNL     1      46.566   5.154  12.416  0.00  0.00    +0.000 C 
ATOM      8  C   UNL     1      46.213   6.294  11.442  0.00  0.00    +0.000 C 
ATOM      9  C   UNL     1      45.079   7.170  11.977  0.00  0.00    +0.000 C 
ATOM     10  N   UNL     1      43.871   6.388  12.244  0.00  0.00    +0.000 NA
ATOM     11  C   UNL     1      44.134   5.322  13.211  0.00  0.00    +0.000 C 
ATOM     12  C   UNL     1      45.264   4.393  12.754  0.00  0.00    +0.000 C 
ATOM     13  H   UNL     1      43.539   5.974  11.375  0.00  0.00    +0.000 HD
ENDBRANCH   5   7
BRANCH   1  14
ATOM     14  C   UNL     1      48.214   4.609  17.222  0.00  0.00    +0.000 C 
ATOM     15  C   UNL     1      48.233   5.350  18.547  0.00  0.00    +0.000 C 
ATOM     16  C   UNL     1      46.976   4.672  18.112  0.00  0.00    +0.000 C 
BRANCH  14  17
ATOM     17  N   UNL     1      48.784   3.268  17.047  0.00  0.00    +0.000 N 
ATOM     18  H   UNL     1      48.508   2.781  16.193  0.00  0.00    +0.000 HD
BRANCH  17  23
ATOM     19  F   UNL     1      53.793   1.526  18.231  0.00  0.00    +0.000 F 
ATOM     20  C   UNL     1      52.602   2.023  17.887  0.00  0.00    +0.000 A 
ATOM     21  C   UNL     1      51.633   1.176  17.379  0.00  0.00    +0.000 A 
ATOM     22  N   UNL     1      50.381   1.596  17.064  0.00  0.00    +0.000 NA
ATOM     23  C   UNL     1      50.116   2.907  17.258  0.00  0.00    +0.000 A 
ATOM     24  C   UNL     1      51.114   3.755  17.747  0.00  0.00    +0.000 A 
ATOM     25  N   UNL     1      52.372   3.338  18.073  0.00  0.00    +0.000 NA
ENDBRANCH  17  23
ENDBRANCH  14  17
ENDBRANCH   1  14
TORSDOF 4
ENDMDL
