MODEL 1
REMARK VINA RESULT:    -8.424      0.000      0.000
REMARK INTER + INTRA:         -12.789
REMARK INTER:                 -11.871
REMARK INTRA:                  -0.918
REMARK UNBOUND:                -0.918
REMARK  Name = 
REMARK  7 active torsions:
REMARK  status: ('A' for Active; 'I' for Inactive)
REMARK    1  A    between atoms: C_2  and  C_20
REMARK    2  A    between atoms: N_3  and  C_4
REMARK    3  A    between atoms: C_4  and  C_5
REMARK    4  A    between atoms: C_8  and  C_9
REMARK    5  A    between atoms: C_9  and  N_10
REMARK    6  A    between atoms: N_10  and  C_11
REMARK    7  A    between atoms: C_11  and  C_12
REMARK                            x       y       z     vdW  Elec       q    Type
REMARK                         _______ _______ _______ _____ _____    ______ ____
ROOT
ATOM      1  C   UNL     1      46.822   5.850  13.196  0.00  0.00    +0.000 A 
ATOM      2  C   UNL     1      45.830   4.962  13.631  0.00  0.00    +0.000 A 
ATOM      3  C   UNL     1      44.754   4.627  12.800  0.00  0.00    +0.000 A 
ATOM      4  C   UNL     1      44.647   5.168  11.511  0.00  0.00    +0.000 A 
ATOM      5  C   UNL     1      45.654   6.036  11.069  0.00  0.00    +0.000 A 
ATOM      6  C   UNL     1      46.730   6.370  11.896  0.00  0.00    +0.000 A 
ENDROOT
BRANCH   1   7
ATOM      7  C   UNL     1      47.932   6.268  14.120  0.00  0.00    +0.000 C 
BRANCH   7  10
ATOM      8  O   UNL     1      49.958   6.196  15.967  0.00  0.00    +0.000 OA
ATOM      9  C   UNL     1      48.862   5.762  16.313  0.00  0.00    +0.000 C 
ATOM     10  N   UNL     1      47.778   5.762  15.460  0.00  0.00    +0.000 N 
ATOM     11  H   UNL     1      46.860   5.513  15.795  0.00  0.00    +0.000 HD
BRANCH   9  12
ATOM     12  C   UNL     1      48.635   5.203  17.646  0.00  0.00    +0.000 A 
ATOM     13  C   UNL     1      48.743   3.875  18.039  0.00  0.00    +0.000 A 
ATOM     14  N   UNL     1      48.507   3.799  19.389  0.00  0.00    +0.000 N 
ATOM     15  C   UNL     1      48.226   5.039  19.883  0.00  0.00    +0.000 A 
ATOM     16  N   UNL     1      47.956   5.295  21.176  0.00  0.00    +0.000 NA
ATOM     17  C   UNL     1      47.711   6.604  21.414  0.00  0.00    +0.000 A 
ATOM     18  C   UNL     1      47.718   7.614  20.462  0.00  0.00    +0.000 A 
ATOM     19  C   UNL     1      48.009   7.290  19.136  0.00  0.00    +0.000 A 
ATOM     20  C   UNL     1      48.280   5.943  18.827  0.00  0.00    +0.000 A 
ATOM     21  H   UNL     1      48.539   2.970  19.963  0.00  0.00    +0.000 HD
ENDBRANCH   9  12
ENDBRANCH   7  10
ENDBRANCH   1   7
BRANCH   4  22
ATOM     22  C   UNL     1      43.489   4.808  10.606  0.00  0.00    +0.000 C 
BRANCH  22  23
ATOM     23  N   UNL     1      43.951   4.314   9.309  0.00  0.00    +0.000 NA
ATOM     24  H   UNL     1      44.722   4.897   8.983  0.00  0.00    +0.000 HD
BRANCH  23  25
ATOM     25  C   UNL     1      44.419   2.930   9.401  0.00  0.00    +0.000 C 
BRANCH  25  26
ATOM     26  C   UNL     1      45.501   2.655   8.381  0.00  0.00    +0.000 A 
ATOM     27  C   UNL     1      45.942   3.662   7.509  0.00  0.00    +0.000 A 
ATOM     28  C   UNL     1      46.949   3.401   6.577  0.00  0.00    +0.000 A 
ATOM     29  C   UNL     1      47.530   2.135   6.509  0.00  0.00    +0.000 A 
ATOM     30  C   UNL     1      47.100   1.126   7.368  0.00  0.00    +0.000 A 
ATOM     31  C   UNL     1      46.092   1.385   8.299  0.00  0.00    +0.000 A 
ENDBRANCH  25  26
ENDBRANCH  23  25
ENDBRANCH  22  23
ENDBRANCH   4  22
TORSDOF 7
ENDMDL
MODEL 2
REMARK VINA RESULT:    -8.333      0.319      1.325
REMARK INTER + INTRA:         -12.662
REMARK INTER:                 -11.725
REMARK INTRA:                  -0.937
REMARK UNBOUND:                -0.918
REMARK  Name = 
REMARK  7 active torsions:
REMARK  status: ('A' for Active; 'I' for Inactive)
REMARK    1  A    between atoms: C_2  and  C_20
REMARK    2  A    between atoms: N_3  and  C_4
REMARK    3  A    between atoms: C_4  and  C_5
REMARK    4  A    between atoms: C_8  and  C_9
REMARK    5  A    between atoms: C_9  and  N_10
REMARK    6  A    between atoms: N_10  and  C_11
REMARK    7  A    between atoms: C_11  and  C_12
REMARK                            x       y       z     vdW  Elec       q    Type
REMARK                         _______ _______ _______ _____ _____    ______ ____
ROOT
ATOM      1  C   UNL     1      46.718   5.887  13.211  0.00  0.00    +0.000 A 
ATOM      2  C   UNL     1      46.632   6.489  11.948  0.00  0.00    +0.000 A 
ATOM      3  C   UNL     1      45.549   6.223  11.101  0.00  0.00    +0.000 A 
ATOM      4  C   UNL     1      44.524   5.353  11.498  0.00  0.00    +0.000 A 
ATOM      5  C   UNL     1      44.600   4.773  12.772  0.00  0.00    +0.000 A 
ATOM      6  C   UNL     1      45.679   5.038  13.619  0.00  0.00    +0.000 A 
ENDROOT
BRANCH   1   7
ATOM      7  C   UNL     1      47.921   6.113  14.083  0.00  0.00    +0.000 C 
BRANCH   7  10
ATOM      8  O   UNL     1      49.896   6.082  15.988  0.00  0.00    +0.000 OA
ATOM      9  C   UNL     1      48.764   5.760  16.340  0.00  0.00    +0.000 C 
ATOM     10  N   UNL     1      47.702   5.751  15.461  0.00  0.00    +0.000 N 
ATOM     11  H   UNL     1      46.762   5.598  15.791  0.00  0.00    +0.000 HD
BRANCH   9  12
ATOM     12  C   UNL     1      48.468   5.349  17.713  0.00  0.00    +0.000 A 
ATOM     13  C   UNL     1      48.503   4.064  18.241  0.00  0.00    +0.000 A 
ATOM     14  N   UNL     1      48.219   4.136  19.582  0.00  0.00    +0.000 N 
ATOM     15  C   UNL     1      47.979   5.430  19.939  0.00  0.00    +0.000 A 
ATOM     16  N   UNL     1      47.679   5.827  21.189  0.00  0.00    +0.000 NA
ATOM     17  C   UNL     1      47.485   7.162  21.285  0.00  0.00    +0.000 A 
ATOM     18  C   UNL     1      47.569   8.070  20.238  0.00  0.00    +0.000 A 
ATOM     19  C   UNL     1      47.888   7.601  18.963  0.00  0.00    +0.000 A 
ATOM     20  C   UNL     1      48.108   6.219  18.801  0.00  0.00    +0.000 A 
ATOM     21  H   UNL     1      48.195   3.368  20.237  0.00  0.00    +0.000 HD
ENDBRANCH   9  12
ENDBRANCH   7  10
ENDBRANCH   1   7
BRANCH   4  22
ATOM     22  C   UNL     1      43.348   5.065  10.591  0.00  0.00    +0.000 C 
BRANCH  22  23
ATOM     23  N   UNL     1      43.772   4.439   9.339  0.00  0.00    +0.000 NA
ATOM     24  H   UNL     1      44.483   5.021   8.896  0.00  0.00    +0.000 HD
BRANCH  23  25
ATOM     25  C   UNL     1      44.337   3.109   9.572  0.00  0.00    +0.000 C 
BRANCH  25  26
ATOM     26  C   UNL     1      45.440   2.807   8.582  0.00  0.00    +0.000 A 
ATOM     27  C   UNL     1      45.921   1.499   8.416  0.00  0.00    +0.000 A 
ATOM     28  C   UNL     1      46.933   1.228   7.494  0.00  0.00    +0.000 A 
ATOM     29  C   UNL     1      47.473   2.257   6.723  0.00  0.00    +0.000 A 
ATOM     30  C   UNL     1      47.004   3.560   6.878  0.00  0.00    +0.000 A 
ATOM     31  C   UNL     1      45.994   3.833   7.802  0.00  0.00    +0.000 A 
ENDBRANCH  25  26
ENDBRANCH  23  25
ENDBRANCH  22  23
ENDBRANCH   4  22
TORSDOF 7
ENDMDL
MODEL 3
REMARK VINA RESULT:    -8.176      1.597      2.541
REMARK INTER + INTRA:         -12.440
REMARK INTER:                 -11.308
REMARK INTRA:                  -1.131
REMARK UNBOUND:                -0.918
REMARK  Name = 
REMARK  7 active torsions:
REMARK  status: ('A' for Active; 'I' for Inactive)
REMARK    1  A    between atoms: C_2  and  C_20
REMARK    2  A    between atoms: N_3  and  C_4
REMARK    3  A    between atoms: C_4  and  C_5
REMARK    4  A    between atoms: C_8  and  C_9
REMARK    5  A    between atoms: C_9  and  N_10
REMARK    6  A    between atoms: N_10  and  C_11
REMARK    7  A    between atoms: C_11  and  C_12
REMARK                            x       y       z     vdW  Elec       q    Type
REMARK                         _______ _______ _______ _____ _____    ______ ____
ROOT
ATOM      1  C   UNL     1      46.069   6.524  12.508  0.00  0.00    +0.000 A 
ATOM      2  C   UNL     1      45.943   6.399  11.118  0.00  0.00    +0.000 A 
ATOM      3  C   UNL     1      45.161   5.381  10.559  0.00  0.00    +0.000 A 
ATOM      4  C   UNL     1      44.482   4.466  11.376  0.00  0.00    +0.000 A 
ATOM      5  C   UNL     1      44.590   4.610  12.766  0.00  0.00    +0.000 A 
ATOM      6  C   UNL     1      45.368   5.626  13.326  0.00  0.00    +0.000 A 
ENDROOT
BRANCH   1   7
ATOM      7  C   UNL     1      46.972   7.569  13.101  0.00  0.00    +0.000 C 
BRANCH   7  10
ATOM      8  O   UNL     1      49.557   6.828  13.649  0.00  0.00    +0.000 OA
ATOM      9  C   UNL     1      48.766   6.862  14.589  0.00  0.00    +0.000 C 
ATOM     10  N   UNL     1      47.448   7.229  14.418  0.00  0.00    +0.000 N 
ATOM     11  H   UNL     1      46.844   7.365  15.215  0.00  0.00    +0.000 HD
BRANCH   9  12
ATOM     12  C   UNL     1      49.165   6.500  15.949  0.00  0.00    +0.000 A 
ATOM     13  C   UNL     1      50.033   7.186  16.790  0.00  0.00    +0.000 A 
ATOM     14  N   UNL     1      50.075   6.535  17.998  0.00  0.00    +0.000 N 
ATOM     15  C   UNL     1      49.274   5.431  17.961  0.00  0.00    +0.000 A 
ATOM     16  N   UNL     1      49.098   4.589  18.995  0.00  0.00    +0.000 NA
ATOM     17  C   UNL     1      48.255   3.571  18.708  0.00  0.00    +0.000 A 
ATOM     18  C   UNL     1      47.618   3.367  17.491  0.00  0.00    +0.000 A 
ATOM     19  C   UNL     1      47.835   4.276  16.455  0.00  0.00    +0.000 A 
ATOM     20  C   UNL     1      48.698   5.362  16.696  0.00  0.00    +0.000 A 
ATOM     21  H   UNL     1      50.599   6.810  18.815  0.00  0.00    +0.000 HD
ENDBRANCH   9  12
ENDBRANCH   7  10
ENDBRANCH   1   7
BRANCH   4  22
ATOM     22  C   UNL     1      43.632   3.366  10.779  0.00  0.00    +0.000 C 
BRANCH  22  23
ATOM     23  N   UNL     1      44.000   3.091   9.392  0.00  0.00    +0.000 NA
ATOM     24  H   UNL     1      44.451   3.914   8.994  0.00  0.00    +0.000 HD
BRANCH  23  25
ATOM     25  C   UNL     1      44.925   1.961   9.299  0.00  0.00    +0.000 C 
BRANCH  25  26
ATOM     26  C   UNL     1      45.866   2.124   8.126  0.00  0.00    +0.000 A 
ATOM     27  C   UNL     1      46.728   1.085   7.743  0.00  0.00    +0.000 A 
ATOM     28  C   UNL     1      47.587   1.241   6.654  0.00  0.00    +0.000 A 
ATOM     29  C   UNL     1      47.590   2.434   5.930  0.00  0.00    +0.000 A 
ATOM     30  C   UNL     1      46.740   3.473   6.299  0.00  0.00    +0.000 A 
ATOM     31  C   UNL     1      45.883   3.319   7.391  0.00  0.00    +0.000 A 
ENDBRANCH  25  26
ENDBRANCH  23  25
ENDBRANCH  22  23
ENDBRANCH   4  22
TORSDOF 7
ENDMDL
MODEL 4
REMARK VINA RESULT:    -7.587      4.987     11.702
REMARK INTER + INTRA:         -11.610
REMARK INTER:                 -10.590
REMARK INTRA:                  -1.020
REMARK UNBOUND:                -0.918
REMARK  Name = 
REMARK  7 active torsions:
REMARK  status: ('A' for Active; 'I' for Inactive)
REMARK    1  A    between atoms: C_2  and  C_20
REMARK    2  A    between atoms: N_3  and  C_4
REMARK    3  A    between atoms: C_4  and  C_5
REMARK    4  A    between atoms: C_8  and  C_9
REMARK    5  A    between atoms: C_9  and  N_10
REMARK    6  A    between atoms: N_10  and  C_11
REMARK    7  A    between atoms: C_11  and  C_12
REMARK                            x       y       z     vdW  Elec       q    Type
REMARK                         _______ _______ _______ _____ _____    ______ ____
ROOT
ATOM      1  C   UNL     1      46.073   3.247   7.793  0.00  0.00    +0.000 A 
ATOM      2  C   UNL     1      45.662   4.443   8.396  0.00  0.00    +0.000 A 
ATOM      3  C   UNL     1      44.825   4.429   9.518  0.00  0.00    +0.000 A 
ATOM      4  C   UNL     1      44.382   3.218  10.068  0.00  0.00    +0.000 A 
ATOM      5  C   UNL     1      44.815   2.022   9.479  0.00  0.00    +0.000 A 
ATOM      6  C   UNL     1      45.652   2.034   8.360  0.00  0.00    +0.000 A 
ENDROOT
BRANCH   1   7
ATOM      7  C   UNL     1      46.906   3.268   6.543  0.00  0.00    +0.000 C 
BRANCH   7  10
ATOM      8  O   UNL     1      48.303   1.145   5.511  0.00  0.00    +0.000 OA
ATOM      9  C   UNL     1      47.186   1.365   5.050  0.00  0.00    +0.000 C 
ATOM     10  N   UNL     1      46.401   2.403   5.507  0.00  0.00    +0.000 N 
ATOM     11  H   UNL     1      45.445   2.498   5.202  0.00  0.00    +0.000 HD
BRANCH   9  12
ATOM     12  C   UNL     1      46.617   0.551   3.975  0.00  0.00    +0.000 A 
ATOM     13  C   UNL     1      46.054   0.992   2.783  0.00  0.00    +0.000 A 
ATOM     14  N   UNL     1      45.704  -0.104   2.035  0.00  0.00    +0.000 N 
ATOM     15  C   UNL     1      46.002  -1.249   2.716  0.00  0.00    +0.000 A 
ATOM     16  N   UNL     1      45.784  -2.489   2.243  0.00  0.00    +0.000 NA
ATOM     17  C   UNL     1      46.166  -3.456   3.107  0.00  0.00    +0.000 A 
ATOM     18  C   UNL     1      46.725  -3.247   4.361  0.00  0.00    +0.000 A 
ATOM     19  C   UNL     1      46.933  -1.938   4.797  0.00  0.00    +0.000 A 
ATOM     20  C   UNL     1      46.560  -0.886   3.938  0.00  0.00    +0.000 A 
ATOM     21  H   UNL     1      45.296  -0.101   1.112  0.00  0.00    +0.000 HD
ENDBRANCH   9  12
ENDBRANCH   7  10
ENDBRANCH   1   7
BRANCH   4  22
ATOM     22  C   UNL     1      43.481   3.195  11.283  0.00  0.00    +0.000 C 
BRANCH  22  23
ATOM     23  N   UNL     1      42.802   4.475  11.477  0.00  0.00    +0.000 NA
ATOM     24  H   UNL     1      41.794   4.333  11.423  0.00  0.00    +0.000 HD
BRANCH  23  25
ATOM     25  C   UNL     1      43.122   5.057  12.782  0.00  0.00    +0.000 C 
BRANCH  25  26
ATOM     26  C   UNL     1      44.573   5.477  12.848  0.00  0.00    +0.000 A 
ATOM     27  C   UNL     1      45.494   4.764  13.631  0.00  0.00    +0.000 A 
ATOM     28  C   UNL     1      46.834   5.154  13.680  0.00  0.00    +0.000 A 
ATOM     29  C   UNL     1      47.271   6.254  12.942  0.00  0.00    +0.000 A 
ATOM     30  C   UNL     1      46.367   6.969  12.160  0.00  0.00    +0.000 A 
ATOM     31  C   UNL     1      45.026   6.583  12.114  0.00  0.00    +0.000 A 
ENDBRANCH  25  26
ENDBRANCH  23  25
ENDBRANCH  22  23
ENDBRANCH   4  22
TORSDOF 7
ENDMDL
MODEL 5
REMARK VINA RESULT:    -7.367      2.735      4.472
REMARK INTER + INTRA:         -11.300
REMARK INTER:                 -10.389
REMARK INTRA:                  -0.911
REMARK UNBOUND:                -0.918
REMARK  Name = 
REMARK  7 active torsions:
REMARK  status: ('A' for Active; 'I' for Inactive)
REMARK    1  A    between atoms: C_2  and  C_20
REMARK    2  A    between atoms: N_3  and  C_4
REMARK    3  A    between atoms: C_4  and  C_5
REMARK    4  A    between atoms: C_8  and  C_9
REMARK    5  A    between atoms: C_9  and  N_10
REMARK    6  A    between atoms: N_10  and  C_11
REMARK    7  A    between atoms: C_11  and  C_12
REMARK                            x       y       z     vdW  Elec       q    Type
REMARK                         _______ _______ _______ _____ _____    ______ ____
ROOT
ATOM      1  C   UNL     1      44.568   4.380  11.507  0.00  0.00    +0.000 A 
ATOM      2  C   UNL     1      45.261   5.297  10.705  0.00  0.00    +0.000 A 
ATOM      3  C   UNL     1      45.528   5.012   9.360  0.00  0.00    +0.000 A 
ATOM      4  C   UNL     1      45.105   3.807   8.783  0.00  0.00    +0.000 A 
ATOM      5  C   UNL     1      44.390   2.903   9.581  0.00  0.00    +0.000 A 
ATOM      6  C   UNL     1      44.120   3.185  10.922  0.00  0.00    +0.000 A 
ENDROOT
BRANCH   1   7
ATOM      7  C   UNL     1      44.353   4.654  12.969  0.00  0.00    +0.000 C 
BRANCH   7  10
ATOM      8  O   UNL     1      46.627   3.446  13.918  0.00  0.00    +0.000 OA
ATOM      9  C   UNL     1      46.543   4.667  14.034  0.00  0.00    +0.000 C 
ATOM     10  N   UNL     1      45.445   5.368  13.581  0.00  0.00    +0.000 N 
ATOM     11  H   UNL     1      45.444   6.376  13.577  0.00  0.00    +0.000 HD
BRANCH   9  12
ATOM     12  C   UNL     1      47.595   5.458  14.672  0.00  0.00    +0.000 A 
ATOM     13  C   UNL     1      48.013   5.404  15.997  0.00  0.00    +0.000 A 
ATOM     14  N   UNL     1      49.067   6.269  16.156  0.00  0.00    +0.000 N 
ATOM     15  C   UNL     1      49.335   6.902  14.978  0.00  0.00    +0.000 A 
ATOM     16  N   UNL     1      50.317   7.805  14.810  0.00  0.00    +0.000 NA
ATOM     17  C   UNL     1      50.379   8.287  13.548  0.00  0.00    +0.000 A 
ATOM     18  C   UNL     1      49.540   7.927  12.502  0.00  0.00    +0.000 A 
ATOM     19  C   UNL     1      48.540   6.981  12.734  0.00  0.00    +0.000 A 
ATOM     20  C   UNL     1      48.430   6.437  14.028  0.00  0.00    +0.000 A 
ATOM     21  H   UNL     1      49.595   6.429  17.002  0.00  0.00    +0.000 HD
ENDBRANCH   9  12
ENDBRANCH   7  10
ENDBRANCH   1   7
BRANCH   4  22
ATOM     22  C   UNL     1      45.386   3.496   7.329  0.00  0.00    +0.000 C 
BRANCH  22  23
ATOM     23  N   UNL     1      46.696   3.994   6.914  0.00  0.00    +0.000 NA
ATOM     24  H   UNL     1      47.010   4.706   7.573  0.00  0.00    +0.000 HD
BRANCH  23  25
ATOM     25  C   UNL     1      47.690   2.920   6.878  0.00  0.00    +0.000 C 
BRANCH  25  26
ATOM     26  C   UNL     1      47.328   1.880   5.842  0.00  0.00    +0.000 A 
ATOM     27  C   UNL     1      47.000   2.254   4.530  0.00  0.00    +0.000 A 
ATOM     28  C   UNL     1      46.675   1.286   3.577  0.00  0.00    +0.000 A 
ATOM     29  C   UNL     1      46.681  -0.065   3.921  0.00  0.00    +0.000 A 
ATOM     30  C   UNL     1      47.005  -0.450   5.220  0.00  0.00    +0.000 A 
ATOM     31  C   UNL     1      47.327   0.517   6.175  0.00  0.00    +0.000 A 
ENDBRANCH  25  26
ENDBRANCH  23  25
ENDBRANCH  22  23
ENDBRANCH   4  22
TORSDOF 7
ENDMDL
MODEL 6
REMARK VINA RESULT:    -7.244      2.986      8.947
REMARK INTER + INTRA:         -11.127
REMARK INTER:                  -9.890
REMARK INTRA:                  -1.236
REMARK UNBOUND:                -0.918
REMARK  Name = 
REMARK  7 active torsions:
REMARK  status: ('A' for Active; 'I' for Inactive)
REMARK    1  A    between atoms: C_2  and  C_20
REMARK    2  A    between atoms: N_3  and  C_4
REMARK    3  A    between atoms: C_4  and  C_5
REMARK    4  A    between atoms: C_8  and  C_9
REMARK    5  A    between atoms: C_9  and  N_10
REMARK    6  A    between atoms: N_10  and  C_11
REMARK    7  A    between atoms: C_11  and  C_12
REMARK                            x       y       z     vdW  Elec       q    Type
REMARK                         _______ _______ _______ _____ _____    ______ ____
ROOT
ATOM      1  C   UNL     1      46.933   7.760  13.131  0.00  0.00    +0.000 A 
ATOM      2  C   UNL     1      47.190   8.732  14.107  0.00  0.00    +0.000 A 
ATOM      3  C   UNL     1      48.439   8.800  14.737  0.00  0.00    +0.000 A 
ATOM      4  C   UNL     1      49.462   7.902  14.403  0.00  0.00    +0.000 A 
ATOM      5  C   UNL     1      49.210   6.948  13.408  0.00  0.00    +0.000 A 
ATOM      6  C   UNL     1      47.966   6.879  12.776  0.00  0.00    +0.000 A 
ENDROOT
BRANCH   1   7
ATOM      7  C   UNL     1      45.568   7.640  12.514  0.00  0.00    +0.000 C 
BRANCH   7  10
ATOM      8  O   UNL     1      43.697   5.787  13.286  0.00  0.00    +0.000 OA
ATOM      9  C   UNL     1      44.394   5.516  12.311  0.00  0.00    +0.000 C 
ATOM     10  N   UNL     1      45.356   6.384  11.839  0.00  0.00    +0.000 N 
ATOM     11  H   UNL     1      45.835   6.200  10.971  0.00  0.00    +0.000 HD
BRANCH   9  12
ATOM     12  C   UNL     1      44.261   4.249  11.592  0.00  0.00    +0.000 A 
ATOM     13  C   UNL     1      43.630   3.089  12.025  0.00  0.00    +0.000 A 
ATOM     14  N   UNL     1      43.682   2.161  11.015  0.00  0.00    +0.000 N 
ATOM     15  C   UNL     1      44.349   2.676   9.942  0.00  0.00    +0.000 A 
ATOM     16  N   UNL     1      44.559   2.012   8.791  0.00  0.00    +0.000 NA
ATOM     17  C   UNL     1      45.244   2.740   7.881  0.00  0.00    +0.000 A 
ATOM     18  C   UNL     1      45.708   4.036   8.064  0.00  0.00    +0.000 A 
ATOM     19  C   UNL     1      45.456   4.678   9.277  0.00  0.00    +0.000 A 
ATOM     20  C   UNL     1      44.741   3.972  10.264  0.00  0.00    +0.000 A 
ATOM     21  H   UNL     1      43.287   1.232  11.026  0.00  0.00    +0.000 HD
ENDBRANCH   9  12
ENDBRANCH   7  10
ENDBRANCH   1   7
BRANCH   4  22
ATOM     22  C   UNL     1      50.815   7.973  15.077  0.00  0.00    +0.000 C 
BRANCH  22  23
ATOM     23  N   UNL     1      51.160   6.712  15.730  0.00  0.00    +0.000 NA
ATOM     24  H   UNL     1      52.165   6.685  15.903  0.00  0.00    +0.000 HD
BRANCH  23  25
ATOM     25  C   UNL     1      50.462   6.564  17.008  0.00  0.00    +0.000 C 
BRANCH  25  26
ATOM     26  C   UNL     1      49.617   5.310  17.024  0.00  0.00    +0.000 A 
ATOM     27  C   UNL     1      50.158   4.082  17.434  0.00  0.00    +0.000 A 
ATOM     28  C   UNL     1      49.369   2.930  17.453  0.00  0.00    +0.000 A 
ATOM     29  C   UNL     1      48.029   2.993  17.070  0.00  0.00    +0.000 A 
ATOM     30  C   UNL     1      47.480   4.206  16.660  0.00  0.00    +0.000 A 
ATOM     31  C   UNL     1      48.269   5.357  16.637  0.00  0.00    +0.000 A 
ENDBRANCH  25  26
ENDBRANCH  23  25
ENDBRANCH  22  23
ENDBRANCH   4  22
TORSDOF 7
ENDMDL
MODEL 7
REMARK VINA RESULT:    -6.945      2.490      8.867
REMARK INTER + INTRA:         -10.705
REMARK INTER:                  -9.152
REMARK INTRA:                  -1.553
REMARK UNBOUND:                -0.918
REMARK  Name = 
REMARK  7 active torsions:
REMARK  status: ('A' for Active; 'I' for Inactive)
REMARK    1  A    between atoms: C_2  and  C_20
REMARK    2  A    between atoms: N_3  and  C_4
REMARK    3  A    between atoms: C_4  and  C_5
REMARK    4  A    between atoms: C_8  and  C_9
REMARK    5  A    between atoms: C_9  and  N_10
REMARK    6  A    between atoms: N_10  and  C_11
REMARK    7  A    between atoms: C_11  and  C_12
REMARK                            x       y       z     vdW  Elec       q    Type
REMARK                         _______ _______ _______ _____ _____    ______ ____
ROOT
ATOM      1  C   UNL     1      48.392   8.015  13.697  0.00  0.00    +0.000 A 
ATOM      2  C   UNL     1      47.835   8.909  14.621  0.00  0.00    +0.000 A 
ATOM      3  C   UNL     1      48.316   8.972  15.934  0.00  0.00    +0.000 A 
ATOM      4  C   UNL     1      49.368   8.148  16.354  0.00  0.00    +0.000 A 
ATOM      5  C   UNL     1      49.940   7.272  15.420  0.00  0.00    +0.000 A 
ATOM      6  C   UNL     1      49.463   7.208  14.109  0.00  0.00    +0.000 A 
ENDROOT
BRANCH   1   7
ATOM      7  C   UNL     1      47.820   7.894  12.312  0.00  0.00    +0.000 C 
BRANCH   7  10
ATOM      8  O   UNL     1      45.137   7.465  12.691  0.00  0.00    +0.000 OA
ATOM      9  C   UNL     1      45.812   6.515  12.301  0.00  0.00    +0.000 C 
ATOM     10  N   UNL     1      47.168   6.631  12.073  0.00  0.00    +0.000 N 
ATOM     11  H   UNL     1      47.683   5.879  11.642  0.00  0.00    +0.000 HD
BRANCH   9  12
ATOM     12  C   UNL     1      45.230   5.194  12.067  0.00  0.00    +0.000 A 
ATOM     13  C   UNL     1      44.684   4.328  13.006  0.00  0.00    +0.000 A 
ATOM     14  N   UNL     1      44.194   3.226  12.350  0.00  0.00    +0.000 N 
ATOM     15  C   UNL     1      44.425   3.340  11.010  0.00  0.00    +0.000 A 
ATOM     16  N   UNL     1      44.056   2.422  10.098  0.00  0.00    +0.000 NA
ATOM     17  C   UNL     1      44.398   2.767   8.836  0.00  0.00    +0.000 A 
ATOM     18  C   UNL     1      45.064   3.928   8.467  0.00  0.00    +0.000 A 
ATOM     19  C   UNL     1      45.419   4.847   9.456  0.00  0.00    +0.000 A 
ATOM     20  C   UNL     1      45.083   4.546  10.790  0.00  0.00    +0.000 A 
ATOM     21  H   UNL     1      43.719   2.438  12.764  0.00  0.00    +0.000 HD
ENDBRANCH   9  12
ENDBRANCH   7  10
ENDBRANCH   1   7
BRANCH   4  22
ATOM     22  C   UNL     1      49.897   8.214  17.770  0.00  0.00    +0.000 C 
BRANCH  22  23
ATOM     23  N   UNL     1      50.521   6.955  18.174  0.00  0.00    +0.000 NA
ATOM     24  H   UNL     1      51.362   7.154  18.714  0.00  0.00    +0.000 HD
BRANCH  23  25
ATOM     25  C   UNL     1      49.616   6.151  18.997  0.00  0.00    +0.000 C 
BRANCH  25  26
ATOM     26  C   UNL     1      49.058   4.985  18.211  0.00  0.00    +0.000 A 
ATOM     27  C   UNL     1      47.755   5.024  17.694  0.00  0.00    +0.000 A 
ATOM     28  C   UNL     1      47.250   3.948  16.962  0.00  0.00    +0.000 A 
ATOM     29  C   UNL     1      48.043   2.824  16.733  0.00  0.00    +0.000 A 
ATOM     30  C   UNL     1      49.339   2.772  17.241  0.00  0.00    +0.000 A 
ATOM     31  C   UNL     1      49.843   3.847  17.976  0.00  0.00    +0.000 A 
ENDBRANCH  25  26
ENDBRANCH  23  25
ENDBRANCH  22  23
ENDBRANCH   4  22
TORSDOF 7
ENDMDL
MODEL 8
REMARK VINA RESULT:    -6.488      2.592      3.771
REMARK INTER + INTRA:         -10.061
REMARK INTER:                  -9.233
REMARK INTRA:                  -0.828
REMARK UNBOUND:                -0.918
REMARK  Name = 
REMARK  7 active torsions:
REMARK  status: ('A' for Active; 'I' for Inactive)
REMARK    1  A    between atoms: C_2  and  C_20
REMARK    2  A    between atoms: N_3  and  C_4
REMARK    3  A    between atoms: C_4  and  C_5
REMARK    4  A    between atoms: C_8  and  C_9
REMARK    5  A    between atoms: C_9  and  N_10
REMARK    6  A    between atoms: N_10  and  C_11
REMARK    7  A    between atoms: C_11  and  C_12
REMARK                            x       y       z     vdW  Elec       q    Type
REMARK                         _______ _______ _______ _____ _____    ______ ____
ROOT
ATOM      1  C   UNL     1      46.960   4.421  14.756  0.00  0.00    +0.000 A 
ATOM      2  C   UNL     1      46.260   3.591  13.872  0.00  0.00    +0.000 A 
ATOM      3  C   UNL     1      45.899   4.045  12.597  0.00  0.00    +0.000 A 
ATOM      4  C   UNL     1      46.235   5.339  12.175  0.00  0.00    +0.000 A 
ATOM      5  C   UNL     1      46.959   6.158  13.052  0.00  0.00    +0.000 A 
ATOM      6  C   UNL     1      47.321   5.706  14.323  0.00  0.00    +0.000 A 
ENDROOT
BRANCH   1   7
ATOM      7  C   UNL     1      47.275   3.957  16.151  0.00  0.00    +0.000 C 
BRANCH   7  10
ATOM      8  O   UNL     1      48.411   4.790  18.505  0.00  0.00    +0.000 OA
ATOM      9  C   UNL     1      49.163   4.348  17.640  0.00  0.00    +0.000 C 
ATOM     10  N   UNL     1      48.689   3.897  16.426  0.00  0.00    +0.000 N 
ATOM     11  H   UNL     1      49.301   3.429  15.775  0.00  0.00    +0.000 HD
BRANCH   9  12
ATOM     12  C   UNL     1      50.612   4.283  17.831  0.00  0.00    +0.000 A 
ATOM     13  C   UNL     1      51.475   5.327  18.138  0.00  0.00    +0.000 A 
ATOM     14  N   UNL     1      52.740   4.817  18.290  0.00  0.00    +0.000 N 
ATOM     15  C   UNL     1      52.729   3.470  18.070  0.00  0.00    +0.000 A 
ATOM     16  N   UNL     1      53.816   2.682  18.153  0.00  0.00    +0.000 NA
ATOM     17  C   UNL     1      53.544   1.383  17.890  0.00  0.00    +0.000 A 
ATOM     18  C   UNL     1      52.298   0.867  17.562  0.00  0.00    +0.000 A 
ATOM     19  C   UNL     1      51.205   1.732  17.496  0.00  0.00    +0.000 A 
ATOM     20  C   UNL     1      51.424   3.097  17.766  0.00  0.00    +0.000 A 
ATOM     21  H   UNL     1      53.573   5.329  18.539  0.00  0.00    +0.000 HD
ENDBRANCH   9  12
ENDBRANCH   7  10
ENDBRANCH   1   7
BRANCH   4  22
ATOM     22  C   UNL     1      45.853   5.835  10.797  0.00  0.00    +0.000 C 
BRANCH  22  23
ATOM     23  N   UNL     1      44.888   4.947  10.151  0.00  0.00    +0.000 NA
ATOM     24  H   UNL     1      43.943   5.261  10.369  0.00  0.00    +0.000 HD
BRANCH  23  25
ATOM     25  C   UNL     1      45.056   4.943   8.697  0.00  0.00    +0.000 C 
BRANCH  25  26
ATOM     26  C   UNL     1      45.733   3.673   8.232  0.00  0.00    +0.000 A 
ATOM     27  C   UNL     1      46.757   3.713   7.274  0.00  0.00    +0.000 A 
ATOM     28  C   UNL     1      47.383   2.536   6.856  0.00  0.00    +0.000 A 
ATOM     29  C   UNL     1      46.997   1.309   7.395  0.00  0.00    +0.000 A 
ATOM     30  C   UNL     1      45.981   1.256   8.346  0.00  0.00    +0.000 A 
ATOM     31  C   UNL     1      45.353   2.431   8.762  0.00  0.00    +0.000 A 
ENDBRANCH  25  26
ENDBRANCH  23  25
ENDBRANCH  22  23
ENDBRANCH   4  22
TORSDOF 7
ENDMDL
MODEL 9
REMARK VINA RESULT:    -6.482      2.349      2.945
REMARK INTER + INTRA:         -10.053
REMARK INTER:                  -9.204
REMARK INTRA:                  -0.849
REMARK UNBOUND:                -0.918
REMARK  Name = 
REMARK  7 active torsions:
REMARK  status: ('A' for Active; 'I' for Inactive)
REMARK    1  A    between atoms: C_2  and  C_20
REMARK    2  A    between atoms: N_3  and  C_4
REMARK    3  A    between atoms: C_4  and  C_5
REMARK    4  A    between atoms: C_8  and  C_9
REMARK    5  A    between atoms: C_9  and  N_10
REMARK    6  A    between atoms: N_10  and  C_11
REMARK    7  A    between atoms: C_11  and  C_12
REMARK                            x       y       z     vdW  Elec       q    Type
REMARK                         _______ _______ _______ _____ _____    ______ ____
ROOT
ATOM      1  C   UNL     1      46.790   4.415  14.297  0.00  0.00    +0.000 A 
ATOM      2  C   UNL     1      46.228   3.393  13.520  0.00  0.00    +0.000 A 
ATOM      3  C   UNL     1      45.628   3.679  12.288  0.00  0.00    +0.000 A 
ATOM      4  C   UNL     1      45.579   4.992  11.800  0.00  0.00    +0.000 A 
ATOM      5  C   UNL     1      46.164   6.008  12.567  0.00  0.00    +0.000 A 
ATOM      6  C   UNL     1      46.765   5.726  13.796  0.00  0.00    +0.000 A 
ENDROOT
BRANCH   1   7
ATOM      7  C   UNL     1      47.362   4.116  15.654  0.00  0.00    +0.000 C 
BRANCH   7  10
ATOM      8  O   UNL     1      47.522   4.815  18.303  0.00  0.00    +0.000 OA
ATOM      9  C   UNL     1      48.217   5.444  17.508  0.00  0.00    +0.000 C 
ATOM     10  N   UNL     1      48.213   5.164  16.157  0.00  0.00    +0.000 N 
ATOM     11  H   UNL     1      48.874   5.608  15.538  0.00  0.00    +0.000 HD
BRANCH   9  12
ATOM     12  C   UNL     1      49.083   6.543  17.937  0.00  0.00    +0.000 A 
ATOM     13  C   UNL     1      48.705   7.737  18.538  0.00  0.00    +0.000 A 
ATOM     14  N   UNL     1      49.837   8.454  18.832  0.00  0.00    +0.000 N 
ATOM     15  C   UNL     1      50.943   7.770  18.420  0.00  0.00    +0.000 A 
ATOM     16  N   UNL     1      52.205   8.209  18.575  0.00  0.00    +0.000 NA
ATOM     17  C   UNL     1      53.126   7.348  18.084  0.00  0.00    +0.000 A 
ATOM     18  C   UNL     1      52.852   6.132  17.472  0.00  0.00    +0.000 A 
ATOM     19  C   UNL     1      51.522   5.726  17.344  0.00  0.00    +0.000 A 
ATOM     20  C   UNL     1      50.518   6.578  17.842  0.00  0.00    +0.000 A 
ATOM     21  H   UNL     1      49.882   9.351  19.294  0.00  0.00    +0.000 HD
ENDBRANCH   9  12
ENDBRANCH   7  10
ENDBRANCH   1   7
BRANCH   4  22
ATOM     22  C   UNL     1      44.936   5.307  10.467  0.00  0.00    +0.000 C 
BRANCH  22  23
ATOM     23  N   UNL     1      44.406   4.105   9.825  0.00  0.00    +0.000 NA
ATOM     24  H   UNL     1      43.412   4.020  10.038  0.00  0.00    +0.000 HD
BRANCH  23  25
ATOM     25  C   UNL     1      44.569   4.160   8.372  0.00  0.00    +0.000 C 
BRANCH  25  26
ATOM     26  C   UNL     1      45.623   3.180   7.907  0.00  0.00    +0.000 A 
ATOM     27  C   UNL     1      46.623   3.572   7.005  0.00  0.00    +0.000 A 
ATOM     28  C   UNL     1      47.597   2.663   6.587  0.00  0.00    +0.000 A 
ATOM     29  C   UNL     1      47.588   1.355   7.071  0.00  0.00    +0.000 A 
ATOM     30  C   UNL     1      46.600   0.953   7.967  0.00  0.00    +0.000 A 
ATOM     31  C   UNL     1      45.623   1.860   8.382  0.00  0.00    +0.000 A 
ENDBRANCH  25  26
ENDBRANCH  23  25
ENDBRANCH  22  23
ENDBRANCH   4  22
TORSDOF 7
ENDMDL
