MODEL 1
REMARK VINA RESULT:    -7.136      0.000      0.000
REMARK INTER + INTRA:          -9.559
REMARK INTER:                  -9.222
REMARK INTRA:                  -0.337
REMARK UNBOUND:                -0.337
REMARK  Name = 
REMARK  5 active torsions:
REMARK  status: ('A' for Active; 'I' for Inactive)
REMARK    1  A    between atoms: C_2  and  C_4
REMARK    2  A    between atoms: C_8  and  C_9
REMARK    3  A    between atoms: C_9  and  O_10
REMARK    4  A    between atoms: O_10  and  C_11
REMARK    5  A    between atoms: C_15  and  C_16
REMARK                            x       y       z     vdW  Elec       q    Type
REMARK                         _______ _______ _______ _____ _____    ______ ____
ROOT
ATOM      1  O   UNL     1      43.968   4.453  10.968  0.00  0.00    +0.000 OA
ENDROOT
BRANCH   1   2
ATOM      2  C   UNL     1      45.021   4.671  11.810  0.00  0.00    +0.000 A 
ATOM      3  C   UNL     1      45.156   3.829  12.901  0.00  0.00    +0.000 A 
ATOM      4  N   UNL     1      46.137   3.940  13.828  0.00  0.00    +0.000 NA
ATOM      5  C   UNL     1      47.018   4.952  13.658  0.00  0.00    +0.000 A 
ATOM      6  C   UNL     1      46.988   5.866  12.606  0.00  0.00    +0.000 A 
ATOM      7  C   UNL     1      45.936   5.714  11.691  0.00  0.00    +0.000 A 
BRANCH   6   8
ATOM      8  C   UNL     1      48.005   6.999  12.532  0.00  0.00    +0.000 C 
ATOM      9  C   UNL     1      48.882   7.205  13.786  0.00  0.00    +0.000 C 
ATOM     10  C   UNL     1      48.123   7.891  14.927  0.00  0.00    +0.000 C 
ATOM     11  N   UNL     1      47.527   9.159  14.516  0.00  0.00    +0.000 NA
ATOM     12  C   UNL     1      46.656   9.003  13.352  0.00  0.00    +0.000 C 
ATOM     13  C   UNL     1      47.376   8.359  12.166  0.00  0.00    +0.000 C 
ATOM     14  H   UNL     1      48.271   9.823  14.291  0.00  0.00    +0.000 HD
ENDBRANCH   6   8
ENDBRANCH   1   2
BRANCH   1  15
ATOM     15  C   UNL     1      43.974   3.192  10.288  0.00  0.00    +0.000 C 
BRANCH  15  20
ATOM     16  C   UNL     1      46.494   2.156   7.660  0.00  0.00    +0.000 A 
ATOM     17  C   UNL     1      46.774   3.392   7.079  0.00  0.00    +0.000 A 
ATOM     18  C   UNL     1      46.125   4.501   7.586  0.00  0.00    +0.000 A 
ATOM     19  N   UNL     1      45.247   4.450   8.612  0.00  0.00    +0.000 NA
ATOM     20  C   UNL     1      44.965   3.234   9.148  0.00  0.00    +0.000 A 
ATOM     21  C   UNL     1      45.566   2.067   8.696  0.00  0.00    +0.000 A 
BRANCH  16  23
ATOM     22  N   UNL     1      46.622  -0.270   7.641  0.00  0.00    +0.000 N 
ATOM     23  C   UNL     1      47.150   0.909   7.197  0.00  0.00    +0.000 C 
ATOM     24  O   UNL     1      48.090   0.930   6.415  0.00  0.00    +0.000 OA
ATOM     25  H   UNL     1      46.998  -1.108   7.214  0.00  0.00    +0.000 HD
ATOM     26  H   UNL     1      45.703  -0.330   8.052  0.00  0.00    +0.000 HD
ENDBRANCH  16  23
ENDBRANCH  15  20
ENDBRANCH   1  15
TORSDOF 5
ENDMDL
MODEL 2
REMARK VINA RESULT:    -7.104      3.723      8.215
REMARK INTER + INTRA:          -9.517
REMARK INTER:                  -9.053
REMARK INTRA:                  -0.465
REMARK UNBOUND:                -0.337
REMARK  Name = 
REMARK  5 active torsions:
REMARK  status: ('A' for Active; 'I' for Inactive)
REMARK    1  A    between atoms: C_2  and  C_4
REMARK    2  A    between atoms: C_8  and  C_9
REMARK    3  A    between atoms: C_9  and  O_10
REMARK    4  A    between atoms: O_10  and  C_11
REMARK    5  A    between atoms: C_15  and  C_16
REMARK                            x       y       z     vdW  Elec       q    Type
REMARK                         _______ _______ _______ _____ _____    ______ ____
ROOT
ATOM      1  O   UNL     1      46.139   3.777  13.904  0.00  0.00    +0.000 OA
ENDROOT
BRANCH   1   2
ATOM      2  C   UNL     1      45.897   4.268  12.653  0.00  0.00    +0.000 A 
ATOM      3  C   UNL     1      46.216   5.593  12.412  0.00  0.00    +0.000 A 
ATOM      4  N   UNL     1      46.011   6.219  11.229  0.00  0.00    +0.000 NA
ATOM      5  C   UNL     1      45.449   5.483  10.243  0.00  0.00    +0.000 A 
ATOM      6  C   UNL     1      45.080   4.143  10.363  0.00  0.00    +0.000 A 
ATOM      7  C   UNL     1      45.296   3.557  11.618  0.00  0.00    +0.000 A 
BRANCH   6   8
ATOM      8  C   UNL     1      44.412   3.416   9.202  0.00  0.00    +0.000 C 
ATOM      9  C   UNL     1      44.647   1.891   9.132  0.00  0.00    +0.000 C 
ATOM     10  C   UNL     1      46.046   1.536   8.617  0.00  0.00    +0.000 C 
ATOM     11  N   UNL     1      46.336   2.149   7.325  0.00  0.00    +0.000 NA
ATOM     12  C   UNL     1      46.163   3.600   7.356  0.00  0.00    +0.000 C 
ATOM     13  C   UNL     1      44.767   4.012   7.825  0.00  0.00    +0.000 C 
ATOM     14  H   UNL     1      45.714   1.753   6.617  0.00  0.00    +0.000 HD
ENDBRANCH   6   8
ENDBRANCH   1   2
BRANCH   1  15
ATOM     15  C   UNL     1      46.650   4.724  14.850  0.00  0.00    +0.000 C 
BRANCH  15  20
ATOM     16  C   UNL     1      48.546   3.910  18.023  0.00  0.00    +0.000 A 
ATOM     17  C   UNL     1      49.064   2.659  17.692  0.00  0.00    +0.000 A 
ATOM     18  C   UNL     1      48.769   2.152  16.441  0.00  0.00    +0.000 A 
ATOM     19  N   UNL     1      48.017   2.804  15.529  0.00  0.00    +0.000 NA
ATOM     20  C   UNL     1      47.496   4.010  15.877  0.00  0.00    +0.000 A 
ATOM     21  C   UNL     1      47.737   4.591  17.116  0.00  0.00    +0.000 A 
BRANCH  16  23
ATOM     22  N   UNL     1      48.654   3.769  20.446  0.00  0.00    +0.000 N 
ATOM     23  C   UNL     1      48.818   4.546  19.335  0.00  0.00    +0.000 C 
ATOM     24  O   UNL     1      49.218   5.699  19.419  0.00  0.00    +0.000 OA
ATOM     25  H   UNL     1      48.967   4.177  21.318  0.00  0.00    +0.000 HD
ATOM     26  H   UNL     1      48.596   2.763  20.399  0.00  0.00    +0.000 HD
ENDBRANCH  16  23
ENDBRANCH  15  20
ENDBRANCH   1  15
TORSDOF 5
ENDMDL
MODEL 3
REMARK VINA RESULT:    -7.025      4.267      7.923
REMARK INTER + INTRA:          -9.415
REMARK INTER:                  -9.233
REMARK INTRA:                  -0.182
REMARK UNBOUND:                -0.337
REMARK  Name = 
REMARK  5 active torsions:
REMARK  status: ('A' for Active; 'I' for Inactive)
REMARK    1  A    between atoms: C_2  and  C_4
REMARK    2  A    between atoms: C_8  and  C_9
REMARK    3  A    between atoms: C_9  and  O_10
REMARK    4  A    between atoms: O_10  and  C_11
REMARK    5  A    between atoms: C_15  and  C_16
REMARK                            x       y       z     vdW  Elec       q    Type
REMARK                         _______ _______ _______ _____ _____    ______ ____
ROOT
ATOM      1  O   UNL     1      47.323   3.618  14.937  0.00  0.00    +0.000 OA
ENDROOT
BRANCH   1   2
ATOM      2  C   UNL     1      46.954   4.474  13.939  0.00  0.00    +0.000 A 
ATOM      3  C   UNL     1      47.659   5.659  13.818  0.00  0.00    +0.000 A 
ATOM      4  N   UNL     1      47.392   6.610  12.892  0.00  0.00    +0.000 NA
ATOM      5  C   UNL     1      46.359   6.364  12.053  0.00  0.00    +0.000 A 
ATOM      6  C   UNL     1      45.572   5.212  12.075  0.00  0.00    +0.000 A 
ATOM      7  C   UNL     1      45.883   4.276  13.072  0.00  0.00    +0.000 A 
BRANCH   6   8
ATOM      8  C   UNL     1      44.402   5.053  11.113  0.00  0.00    +0.000 C 
ATOM      9  C   UNL     1      43.162   4.319  11.667  0.00  0.00    +0.000 C 
ATOM     10  C   UNL     1      43.367   2.802  11.751  0.00  0.00    +0.000 C 
ATOM     11  N   UNL     1      43.764   2.223  10.472  0.00  0.00    +0.000 NA
ATOM     12  C   UNL     1      44.959   2.865   9.926  0.00  0.00    +0.000 C 
ATOM     13  C   UNL     1      44.795   4.378   9.783  0.00  0.00    +0.000 C 
ATOM     14  H   UNL     1      42.996   2.323   9.804  0.00  0.00    +0.000 HD
ENDBRANCH   6   8
ENDBRANCH   1   2
BRANCH   1  15
ATOM     15  C   UNL     1      47.173   4.124  16.269  0.00  0.00    +0.000 C 
BRANCH  15  20
ATOM     16  C   UNL     1      50.586   3.192  17.617  0.00  0.00    +0.000 A 
ATOM     17  C   UNL     1      50.966   4.401  18.195  0.00  0.00    +0.000 A 
ATOM     18  C   UNL     1      50.079   5.457  18.118  0.00  0.00    +0.000 A 
ATOM     19  N   UNL     1      48.870   5.376  17.523  0.00  0.00    +0.000 NA
ATOM     20  C   UNL     1      48.525   4.198  16.939  0.00  0.00    +0.000 A 
ATOM     21  C   UNL     1      49.359   3.087  16.964  0.00  0.00    +0.000 A 
BRANCH  16  23
ATOM     22  N   UNL     1      52.509   2.025  18.535  0.00  0.00    +0.000 N 
ATOM     23  C   UNL     1      51.461   1.995  17.660  0.00  0.00    +0.000 C 
ATOM     24  O   UNL     1      51.230   1.006  16.978  0.00  0.00    +0.000 OA
ATOM     25  H   UNL     1      53.016   1.155  18.644  0.00  0.00    +0.000 HD
ATOM     26  H   UNL     1      52.565   2.693  19.289  0.00  0.00    +0.000 HD
ENDBRANCH  16  23
ENDBRANCH  15  20
ENDBRANCH   1  15
TORSDOF 5
ENDMDL
MODEL 4
REMARK VINA RESULT:    -6.934      4.458      8.254
REMARK INTER + INTRA:          -9.299
REMARK INTER:                  -9.156
REMARK INTRA:                  -0.143
REMARK UNBOUND:                -0.337
REMARK  Name = 
REMARK  5 active torsions:
REMARK  status: ('A' for Active; 'I' for Inactive)
REMARK    1  A    between atoms: C_2  and  C_4
REMARK    2  A    between atoms: C_8  and  C_9
REMARK    3  A    between atoms: C_9  and  O_10
REMARK    4  A    between atoms: O_10  and  C_11
REMARK    5  A    between atoms: C_15  and  C_16
REMARK                            x       y       z     vdW  Elec       q    Type
REMARK                         _______ _______ _______ _____ _____    ______ ____
ROOT
ATOM      1  O   UNL     1      47.265   3.342  14.839  0.00  0.00    +0.000 OA
ENDROOT
BRANCH   1   2
ATOM      2  C   UNL     1      46.862   4.299  13.952  0.00  0.00    +0.000 A 
ATOM      3  C   UNL     1      47.414   5.563  14.077  0.00  0.00    +0.000 A 
ATOM      4  N   UNL     1      47.093   6.613  13.285  0.00  0.00    +0.000 NA
ATOM      5  C   UNL     1      46.165   6.387  12.327  0.00  0.00    +0.000 A 
ATOM      6  C   UNL     1      45.534   5.163  12.103  0.00  0.00    +0.000 A 
ATOM      7  C   UNL     1      45.892   4.121  12.970  0.00  0.00    +0.000 A 
BRANCH   6   8
ATOM      8  C   UNL     1      44.468   5.026  11.023  0.00  0.00    +0.000 C 
ATOM      9  C   UNL     1      43.168   4.304  11.442  0.00  0.00    +0.000 C 
ATOM     10  C   UNL     1      43.344   2.785  11.534  0.00  0.00    +0.000 C 
ATOM     11  N   UNL     1      43.863   2.208  10.298  0.00  0.00    +0.000 NA
ATOM     12  C   UNL     1      45.116   2.837   9.884  0.00  0.00    +0.000 C 
ATOM     13  C   UNL     1      44.987   4.353   9.736  0.00  0.00    +0.000 C 
ATOM     14  H   UNL     1      43.170   2.323   9.556  0.00  0.00    +0.000 HD
ENDBRANCH   6   8
ENDBRANCH   1   2
BRANCH   1  15
ATOM     15  C   UNL     1      47.446   3.790  16.188  0.00  0.00    +0.000 C 
BRANCH  15  20
ATOM     16  C   UNL     1      50.801   3.714  17.940  0.00  0.00    +0.000 A 
ATOM     17  C   UNL     1      51.247   2.446  17.572  0.00  0.00    +0.000 A 
ATOM     18  C   UNL     1      50.426   1.686  16.763  0.00  0.00    +0.000 A 
ATOM     19  N   UNL     1      49.227   2.107  16.308  0.00  0.00    +0.000 NA
ATOM     20  C   UNL     1      48.793   3.335  16.698  0.00  0.00    +0.000 A 
ATOM     21  C   UNL     1      49.552   4.163  17.515  0.00  0.00    +0.000 A 
BRANCH  16  23
ATOM     22  N   UNL     1      52.055   4.107  19.983  0.00  0.00    +0.000 N 
ATOM     23  C   UNL     1      51.616   4.613  18.793  0.00  0.00    +0.000 C 
ATOM     24  O   UNL     1      51.923   5.739  18.429  0.00  0.00    +0.000 OA
ATOM     25  H   UNL     1      52.714   4.685  20.490  0.00  0.00    +0.000 HD
ATOM     26  H   UNL     1      52.054   3.118  20.184  0.00  0.00    +0.000 HD
ENDBRANCH  16  23
ENDBRANCH  15  20
ENDBRANCH   1  15
TORSDOF 5
ENDMDL
MODEL 5
REMARK VINA RESULT:    -6.867      3.660      7.848
REMARK INTER + INTRA:          -9.211
REMARK INTER:                  -8.535
REMARK INTRA:                  -0.676
REMARK UNBOUND:                -0.337
REMARK  Name = 
REMARK  5 active torsions:
REMARK  status: ('A' for Active; 'I' for Inactive)
REMARK    1  A    between atoms: C_2  and  C_4
REMARK    2  A    between atoms: C_8  and  C_9
REMARK    3  A    between atoms: C_9  and  O_10
REMARK    4  A    between atoms: O_10  and  C_11
REMARK    5  A    between atoms: C_15  and  C_16
REMARK                            x       y       z     vdW  Elec       q    Type
REMARK                         _______ _______ _______ _____ _____    ______ ____
ROOT
ATOM      1  O   UNL     1      48.662   6.156  13.738  0.00  0.00    +0.000 OA
ENDROOT
BRANCH   1   2
ATOM      2  C   UNL     1      47.473   6.544  13.188  0.00  0.00    +0.000 A 
ATOM      3  C   UNL     1      47.420   7.791  12.589  0.00  0.00    +0.000 A 
ATOM      4  N   UNL     1      46.307   8.315  12.024  0.00  0.00    +0.000 NA
ATOM      5  C   UNL     1      45.188   7.555  12.073  0.00  0.00    +0.000 A 
ATOM      6  C   UNL     1      45.112   6.287  12.650  0.00  0.00    +0.000 A 
ATOM      7  C   UNL     1      46.292   5.810  13.239  0.00  0.00    +0.000 A 
BRANCH   6   8
ATOM      8  C   UNL     1      43.790   5.532  12.692  0.00  0.00    +0.000 C 
ATOM      9  C   UNL     1      43.868   4.050  13.117  0.00  0.00    +0.000 C 
ATOM     10  C   UNL     1      44.409   3.147  12.003  0.00  0.00    +0.000 C 
ATOM     11  N   UNL     1      43.648   3.275  10.764  0.00  0.00    +0.000 NA
ATOM     12  C   UNL     1      43.579   4.660  10.303  0.00  0.00    +0.000 C 
ATOM     13  C   UNL     1      43.007   5.601  11.364  0.00  0.00    +0.000 C 
ATOM     14  H   UNL     1      42.699   2.925  10.915  0.00  0.00    +0.000 HD
ENDBRANCH   6   8
ENDBRANCH   1   2
BRANCH   1  15
ATOM     15  C   UNL     1      49.228   7.068  14.687  0.00  0.00    +0.000 C 
BRANCH  15  20
ATOM     16  C   UNL     1      47.997   5.083  17.667  0.00  0.00    +0.000 A 
ATOM     17  C   UNL     1      47.961   6.083  18.637  0.00  0.00    +0.000 A 
ATOM     18  C   UNL     1      48.336   7.358  18.260  0.00  0.00    +0.000 A 
ATOM     19  N   UNL     1      48.725   7.683  17.008  0.00  0.00    +0.000 NA
ATOM     20  C   UNL     1      48.782   6.691  16.081  0.00  0.00    +0.000 A 
ATOM     21  C   UNL     1      48.429   5.380  16.376  0.00  0.00    +0.000 A 
BRANCH  16  23
ATOM     22  N   UNL     1      48.287   3.048  18.962  0.00  0.00    +0.000 N 
ATOM     23  C   UNL     1      47.600   3.686  17.969  0.00  0.00    +0.000 C 
ATOM     24  O   UNL     1      46.668   3.145  17.391  0.00  0.00    +0.000 OA
ATOM     25  H   UNL     1      47.918   2.147  19.242  0.00  0.00    +0.000 HD
ATOM     26  H   UNL     1      48.858   3.543  19.629  0.00  0.00    +0.000 HD
ENDBRANCH  16  23
ENDBRANCH  15  20
ENDBRANCH   1  15
TORSDOF 5
ENDMDL
MODEL 6
REMARK VINA RESULT:    -6.770      4.307      8.738
REMARK INTER + INTRA:          -9.086
REMARK INTER:                  -8.663
REMARK INTRA:                  -0.423
REMARK UNBOUND:                -0.337
REMARK  Name = 
REMARK  5 active torsions:
REMARK  status: ('A' for Active; 'I' for Inactive)
REMARK    1  A    between atoms: C_2  and  C_4
REMARK    2  A    between atoms: C_8  and  C_9
REMARK    3  A    between atoms: C_9  and  O_10
REMARK    4  A    between atoms: O_10  and  C_11
REMARK    5  A    between atoms: C_15  and  C_16
REMARK                            x       y       z     vdW  Elec       q    Type
REMARK                         _______ _______ _______ _____ _____    ______ ____
ROOT
ATOM      1  O   UNL     1      48.065   5.181  14.712  0.00  0.00    +0.000 OA
ENDROOT
BRANCH   1   2
ATOM      2  C   UNL     1      47.327   5.574  13.632  0.00  0.00    +0.000 A 
ATOM      3  C   UNL     1      47.920   6.444  12.733  0.00  0.00    +0.000 A 
ATOM      4  N   UNL     1      47.302   6.934  11.632  0.00  0.00    +0.000 NA
ATOM      5  C   UNL     1      46.024   6.540  11.430  0.00  0.00    +0.000 A 
ATOM      6  C   UNL     1      45.317   5.673  12.262  0.00  0.00    +0.000 A 
ATOM      7  C   UNL     1      46.002   5.218  13.398  0.00  0.00    +0.000 A 
BRANCH   6   8
ATOM      8  C   UNL     1      43.862   5.327  11.967  0.00  0.00    +0.000 C 
ATOM      9  C   UNL     1      43.222   4.257  12.877  0.00  0.00    +0.000 C 
ATOM     10  C   UNL     1      43.684   2.838  12.530  0.00  0.00    +0.000 C 
ATOM     11  N   UNL     1      43.457   2.506  11.127  0.00  0.00    +0.000 NA
ATOM     12  C   UNL     1      44.080   3.474  10.226  0.00  0.00    +0.000 C 
ATOM     13  C   UNL     1      43.622   4.907  10.502  0.00  0.00    +0.000 C 
ATOM     14  H   UNL     1      42.451   2.480  10.946  0.00  0.00    +0.000 HD
ENDBRANCH   6   8
ENDBRANCH   1   2
BRANCH   1  15
ATOM     15  C   UNL     1      47.338   4.494  15.737  0.00  0.00    +0.000 C 
BRANCH  15  20
ATOM     16  C   UNL     1      48.287   5.240  19.325  0.00  0.00    +0.000 A 
ATOM     17  C   UNL     1      49.563   4.681  19.369  0.00  0.00    +0.000 A 
ATOM     18  C   UNL     1      50.047   4.094  18.216  0.00  0.00    +0.000 A 
ATOM     19  N   UNL     1      49.356   4.043  17.057  0.00  0.00    +0.000 NA
ATOM     20  C   UNL     1      48.103   4.567  17.038  0.00  0.00    +0.000 A 
ATOM     21  C   UNL     1      47.535   5.170  18.154  0.00  0.00    +0.000 A 
BRANCH  16  23
ATOM     22  N   UNL     1      47.452   5.127  21.604  0.00  0.00    +0.000 N 
ATOM     23  C   UNL     1      47.684   5.905  20.506  0.00  0.00    +0.000 C 
ATOM     24  O   UNL     1      47.449   7.105  20.516  0.00  0.00    +0.000 OA
ATOM     25  H   UNL     1      47.164   5.621  22.440  0.00  0.00    +0.000 HD
ATOM     26  H   UNL     1      47.878   4.220  21.725  0.00  0.00    +0.000 HD
ENDBRANCH  16  23
ENDBRANCH  15  20
ENDBRANCH   1  15
TORSDOF 5
ENDMDL
MODEL 7
REMARK VINA RESULT:    -6.581      4.098      7.698
REMARK INTER + INTRA:          -8.842
REMARK INTER:                  -8.351
REMARK INTRA:                  -0.491
REMARK UNBOUND:                -0.337
REMARK  Name = 
REMARK  5 active torsions:
REMARK  status: ('A' for Active; 'I' for Inactive)
REMARK    1  A    between atoms: C_2  and  C_4
REMARK    2  A    between atoms: C_8  and  C_9
REMARK    3  A    between atoms: C_9  and  O_10
REMARK    4  A    between atoms: O_10  and  C_11
REMARK    5  A    between atoms: C_15  and  C_16
REMARK                            x       y       z     vdW  Elec       q    Type
REMARK                         _______ _______ _______ _____ _____    ______ ____
ROOT
ATOM      1  O   UNL     1      48.887   6.488  14.676  0.00  0.00    +0.000 OA
ENDROOT
BRANCH   1   2
ATOM      2  C   UNL     1      47.852   6.679  13.806  0.00  0.00    +0.000 A 
ATOM      3  C   UNL     1      47.417   7.978  13.602  0.00  0.00    +0.000 A 
ATOM      4  N   UNL     1      46.390   8.314  12.787  0.00  0.00    +0.000 NA
ATOM      5  C   UNL     1      45.760   7.297  12.155  0.00  0.00    +0.000 A 
ATOM      6  C   UNL     1      46.100   5.950  12.280  0.00  0.00    +0.000 A 
ATOM      7  C   UNL     1      47.157   5.664  13.156  0.00  0.00    +0.000 A 
BRANCH   6   8
ATOM      8  C   UNL     1      45.296   4.877  11.557  0.00  0.00    +0.000 C 
ATOM      9  C   UNL     1      44.149   5.381  10.655  0.00  0.00    +0.000 C 
ATOM     10  C   UNL     1      42.925   5.830  11.459  0.00  0.00    +0.000 C 
ATOM     11  N   UNL     1      42.436   4.790  12.358  0.00  0.00    +0.000 NA
ATOM     12  C   UNL     1      43.483   4.308  13.259  0.00  0.00    +0.000 C 
ATOM     13  C   UNL     1      44.716   3.808  12.506  0.00  0.00    +0.000 C 
ATOM     14  H   UNL     1      42.084   4.005  11.805  0.00  0.00    +0.000 HD
ENDBRANCH   6   8
ENDBRANCH   1   2
BRANCH   1  15
ATOM     15  C   UNL     1      48.660   6.949  16.014  0.00  0.00    +0.000 C 
BRANCH  15  20
ATOM     16  C   UNL     1      49.305   3.520  17.483  0.00  0.00    +0.000 A 
ATOM     17  C   UNL     1      48.768   3.688  18.758  0.00  0.00    +0.000 A 
ATOM     18  C   UNL     1      48.217   4.917  19.066  0.00  0.00    +0.000 A 
ATOM     19  N   UNL     1      48.165   5.951  18.199  0.00  0.00    +0.000 NA
ATOM     20  C   UNL     1      48.718   5.780  16.970  0.00  0.00    +0.000 A 
ATOM     21  C   UNL     1      49.299   4.580  16.579  0.00  0.00    +0.000 A 
BRANCH  16  23
ATOM     22  N   UNL     1      50.850   1.685  17.873  0.00  0.00    +0.000 N 
ATOM     23  C   UNL     1      49.906   2.234  17.052  0.00  0.00    +0.000 C 
ATOM     24  O   UNL     1      49.542   1.665  16.032  0.00  0.00    +0.000 OA
ATOM     25  H   UNL     1      51.153   0.750  17.630  0.00  0.00    +0.000 HD
ATOM     26  H   UNL     1      50.970   1.978  18.831  0.00  0.00    +0.000 HD
ENDBRANCH  16  23
ENDBRANCH  15  20
ENDBRANCH   1  15
TORSDOF 5
ENDMDL
MODEL 8
REMARK VINA RESULT:    -6.519      3.978      8.085
REMARK INTER + INTRA:          -8.762
REMARK INTER:                  -8.377
REMARK INTRA:                  -0.384
REMARK UNBOUND:                -0.337
REMARK  Name = 
REMARK  5 active torsions:
REMARK  status: ('A' for Active; 'I' for Inactive)
REMARK    1  A    between atoms: C_2  and  C_4
REMARK    2  A    between atoms: C_8  and  C_9
REMARK    3  A    between atoms: C_9  and  O_10
REMARK    4  A    between atoms: O_10  and  C_11
REMARK    5  A    between atoms: C_15  and  C_16
REMARK                            x       y       z     vdW  Elec       q    Type
REMARK                         _______ _______ _______ _____ _____    ______ ____
ROOT
ATOM      1  O   UNL     1      48.691   6.444  13.938  0.00  0.00    +0.000 OA
ENDROOT
BRANCH   1   2
ATOM      2  C   UNL     1      47.565   6.888  13.305  0.00  0.00    +0.000 A 
ATOM      3  C   UNL     1      47.166   8.192  13.546  0.00  0.00    +0.000 A 
ATOM      4  N   UNL     1      46.061   8.758  13.006  0.00  0.00    +0.000 NA
ATOM      5  C   UNL     1      45.314   7.975  12.194  0.00  0.00    +0.000 A 
ATOM      6  C   UNL     1      45.608   6.649  11.876  0.00  0.00    +0.000 A 
ATOM      7  C   UNL     1      46.751   6.112  12.484  0.00  0.00    +0.000 A 
BRANCH   6   8
ATOM      8  C   UNL     1      44.675   5.840  10.984  0.00  0.00    +0.000 C 
ATOM      9  C   UNL     1      43.176   5.886  11.352  0.00  0.00    +0.000 C 
ATOM     10  C   UNL     1      42.844   5.021  12.573  0.00  0.00    +0.000 C 
ATOM     11  N   UNL     1      43.279   3.637  12.409  0.00  0.00    +0.000 NA
ATOM     12  C   UNL     1      44.704   3.544  12.096  0.00  0.00    +0.000 C 
ATOM     13  C   UNL     1      45.085   4.358  10.859  0.00  0.00    +0.000 C 
ATOM     14  H   UNL     1      42.742   3.203  11.656  0.00  0.00    +0.000 HD
ENDBRANCH   6   8
ENDBRANCH   1   2
BRANCH   1  15
ATOM     15  C   UNL     1      48.819   6.833  15.311  0.00  0.00    +0.000 C 
BRANCH  15  20
ATOM     16  C   UNL     1      48.792   4.505  18.297  0.00  0.00    +0.000 A 
ATOM     17  C   UNL     1      48.106   3.417  17.761  0.00  0.00    +0.000 A 
ATOM     18  C   UNL     1      47.695   3.502  16.445  0.00  0.00    +0.000 A 
ATOM     19  N   UNL     1      47.928   4.574  15.656  0.00  0.00    +0.000 NA
ATOM     20  C   UNL     1      48.573   5.638  16.202  0.00  0.00    +0.000 A 
ATOM     21  C   UNL     1      49.016   5.640  17.519  0.00  0.00    +0.000 A 
BRANCH  16  23
ATOM     22  N   UNL     1      48.477   3.945  20.639  0.00  0.00    +0.000 N 
ATOM     23  C   UNL     1      49.288   4.505  19.695  0.00  0.00    +0.000 C 
ATOM     24  O   UNL     1      50.393   4.943  19.984  0.00  0.00    +0.000 OA
ATOM     25  H   UNL     1      48.884   3.836  21.560  0.00  0.00    +0.000 HD
ATOM     26  H   UNL     1      47.703   3.342  20.400  0.00  0.00    +0.000 HD
ENDBRANCH  16  23
ENDBRANCH  15  20
ENDBRANCH   1  15
TORSDOF 5
ENDMDL
MODEL 9
REMARK VINA RESULT:    -6.434      3.508      5.524
REMARK INTER + INTRA:          -8.652
REMARK INTER:                  -8.236
REMARK INTRA:                  -0.416
REMARK UNBOUND:                -0.337
REMARK  Name = 
REMARK  5 active torsions:
REMARK  status: ('A' for Active; 'I' for Inactive)
REMARK    1  A    between atoms: C_2  and  C_4
REMARK    2  A    between atoms: C_8  and  C_9
REMARK    3  A    between atoms: C_9  and  O_10
REMARK    4  A    between atoms: O_10  and  C_11
REMARK    5  A    between atoms: C_15  and  C_16
REMARK                            x       y       z     vdW  Elec       q    Type
REMARK                         _______ _______ _______ _____ _____    ______ ____
ROOT
ATOM      1  O   UNL     1      47.162   5.782  13.742  0.00  0.00    +0.000 OA
ENDROOT
BRANCH   1   2
ATOM      2  C   UNL     1      48.021   5.967  14.788  0.00  0.00    +0.000 A 
ATOM      3  C   UNL     1      48.915   7.021  14.706  0.00  0.00    +0.000 A 
ATOM      4  N   UNL     1      49.836   7.310  15.655  0.00  0.00    +0.000 NA
ATOM      5  C   UNL     1      49.869   6.495  16.735  0.00  0.00    +0.000 A 
ATOM      6  C   UNL     1      49.026   5.402  16.933  0.00  0.00    +0.000 A 
ATOM      7  C   UNL     1      48.109   5.140  15.905  0.00  0.00    +0.000 A 
BRANCH   6   8
ATOM      8  C   UNL     1      49.175   4.520  18.167  0.00  0.00    +0.000 C 
ATOM      9  C   UNL     1      50.564   4.529  18.842  0.00  0.00    +0.000 C 
ATOM     10  C   UNL     1      51.599   3.709  18.065  0.00  0.00    +0.000 C 
ATOM     11  N   UNL     1      51.162   2.335  17.834  0.00  0.00    +0.000 NA
ATOM     12  C   UNL     1      49.865   2.279  17.161  0.00  0.00    +0.000 C 
ATOM     13  C   UNL     1      48.782   3.050  17.916  0.00  0.00    +0.000 C 
ATOM     14  H   UNL     1      51.095   1.848  18.730  0.00  0.00    +0.000 HD
ENDBRANCH   6   8
ENDBRANCH   1   2
BRANCH   1  15
ATOM     15  C   UNL     1      46.123   4.820  13.961  0.00  0.00    +0.000 C 
BRANCH  15  20
ATOM     16  C   UNL     1      44.548   4.717  10.521  0.00  0.00    +0.000 A 
ATOM     17  C   UNL     1      43.236   5.067  10.835  0.00  0.00    +0.000 A 
ATOM     18  C   UNL     1      42.939   5.326  12.159  0.00  0.00    +0.000 A 
ATOM     19  N   UNL     1      43.850   5.264  13.154  0.00  0.00    +0.000 NA
ATOM     20  C   UNL     1      45.118   4.894  12.836  0.00  0.00    +0.000 A 
ATOM     21  C   UNL     1      45.501   4.610  11.531  0.00  0.00    +0.000 A 
BRANCH  16  23
ATOM     22  N   UNL     1      44.274   3.471   8.453  0.00  0.00    +0.000 N 
ATOM     23  C   UNL     1      44.969   4.435   9.127  0.00  0.00    +0.000 C 
ATOM     24  O   UNL     1      45.865   5.067   8.586  0.00  0.00    +0.000 OA
ATOM     25  H   UNL     1      44.489   3.383   7.467  0.00  0.00    +0.000 HD
ATOM     26  H   UNL     1      43.376   3.134   8.764  0.00  0.00    +0.000 HD
ENDBRANCH  16  23
ENDBRANCH  15  20
ENDBRANCH   1  15
TORSDOF 5
ENDMDL
