MODEL 1
REMARK VINA RESULT:    -7.466      0.000      0.000
REMARK INTER + INTRA:         -10.131
REMARK INTER:                  -9.212
REMARK INTRA:                  -0.919
REMARK UNBOUND:                -0.919
REMARK  Name = 
REMARK  4 active torsions:
REMARK  status: ('A' for Active; 'I' for Inactive)
REMARK    1  A    between atoms: C_4  and  O_5
REMARK    2  A    between atoms: O_5  and  C_6
REMARK    3  A    between atoms: C_6  and  C_7
REMARK    4  A    between atoms: C_11  and  C_12
REMARK                            x       y       z     vdW  Elec       q    Type
REMARK                         _______ _______ _______ _____ _____    ______ ____
ROOT
ATOM      1  C   UNL     1      45.051   4.673  12.049  0.00  0.00    +0.000 A 
ATOM      2  C   UNL     1      45.355   3.569  12.843  0.00  0.00    +0.000 A 
ATOM      3  N   UNL     1      46.448   3.456  13.635  0.00  0.00    +0.000 NA
ATOM      4  C   UNL     1      47.316   4.495  13.621  0.00  0.00    +0.000 A 
ATOM      5  C   UNL     1      47.165   5.652  12.859  0.00  0.00    +0.000 A 
ATOM      6  C   UNL     1      46.000   5.709  12.076  0.00  0.00    +0.000 A 
ENDROOT
BRANCH   5   7
ATOM      7  C   UNL     1      48.145   6.759  12.874  0.00  0.00    +0.000 A 
ATOM      8  C   UNL     1      48.921   7.033  14.010  0.00  0.00    +0.000 A 
ATOM      9  C   UNL     1      49.850   8.062  13.974  0.00  0.00    +0.000 A 
ATOM     10  N   UNL     1      50.058   8.846  12.899  0.00  0.00    +0.000 NA
ATOM     11  C   UNL     1      49.302   8.587  11.813  0.00  0.00    +0.000 A 
ATOM     12  C   UNL     1      48.354   7.575  11.753  0.00  0.00    +0.000 A 
ENDBRANCH   5   7
BRANCH   1  13
ATOM     13  C   UNL     1      43.772   4.775  11.236  0.00  0.00    +0.000 C 
ATOM     14  C   UNL     1      42.507   5.213  11.964  0.00  0.00    +0.000 C 
ATOM     15  C   UNL     1      43.151   6.137  10.986  0.00  0.00    +0.000 C 
BRANCH  13  16
ATOM     16  O   UNL     1      43.505   3.731  10.262  0.00  0.00    +0.000 OA
BRANCH  16  20
ATOM     17  C   UNL     1      46.480   2.531   7.596  0.00  0.00    +0.000 A 
ATOM     18  C   UNL     1      45.842   1.616   8.433  0.00  0.00    +0.000 A 
ATOM     19  C   UNL     1      44.850   2.054   9.315  0.00  0.00    +0.000 A 
ATOM     20  C   UNL     1      44.502   3.404   9.374  0.00  0.00    +0.000 A 
ATOM     21  C   UNL     1      45.121   4.306   8.507  0.00  0.00    +0.000 A 
ATOM     22  C   UNL     1      46.116   3.873   7.629  0.00  0.00    +0.000 A 
ENDBRANCH  16  20
ENDBRANCH  13  16
ENDBRANCH   1  13
TORSDOF 4
ENDMDL
MODEL 2
REMARK VINA RESULT:    -6.771      2.733      6.485
REMARK INTER + INTRA:          -9.273
REMARK INTER:                  -8.570
REMARK INTRA:                  -0.703
REMARK UNBOUND:                -0.919
REMARK  Name = 
REMARK  4 active torsions:
REMARK  status: ('A' for Active; 'I' for Inactive)
REMARK    1  A    between atoms: C_4  and  O_5
REMARK    2  A    between atoms: O_5  and  C_6
REMARK    3  A    between atoms: C_6  and  C_7
REMARK    4  A    between atoms: C_11  and  C_12
REMARK                            x       y       z     vdW  Elec       q    Type
REMARK                         _______ _______ _______ _____ _____    ______ ____
ROOT
ATOM      1  C   UNL     1      44.985   4.907  11.068  0.00  0.00    +0.000 A 
ATOM      2  C   UNL     1      43.864   4.191  11.482  0.00  0.00    +0.000 A 
ATOM      3  N   UNL     1      43.411   3.052  10.906  0.00  0.00    +0.000 NA
ATOM      4  C   UNL     1      44.097   2.603   9.829  0.00  0.00    +0.000 A 
ATOM      5  C   UNL     1      45.218   3.224   9.281  0.00  0.00    +0.000 A 
ATOM      6  C   UNL     1      45.642   4.390   9.940  0.00  0.00    +0.000 A 
ENDROOT
BRANCH   5   7
ATOM      7  C   UNL     1      45.932   2.698   8.098  0.00  0.00    +0.000 A 
ATOM      8  C   UNL     1      46.137   3.489   6.957  0.00  0.00    +0.000 A 
ATOM      9  C   UNL     1      46.838   2.968   5.879  0.00  0.00    +0.000 A 
ATOM     10  N   UNL     1      47.340   1.718   5.845  0.00  0.00    +0.000 NA
ATOM     11  C   UNL     1      47.132   0.959   6.939  0.00  0.00    +0.000 A 
ATOM     12  C   UNL     1      46.450   1.396   8.067  0.00  0.00    +0.000 A 
ENDBRANCH   5   7
BRANCH   1  13
ATOM     13  C   UNL     1      45.489   6.140  11.799  0.00  0.00    +0.000 C 
ATOM     14  C   UNL     1      44.974   7.496  11.330  0.00  0.00    +0.000 C 
ATOM     15  C   UNL     1      44.527   6.953  12.645  0.00  0.00    +0.000 C 
BRANCH  13  16
ATOM     16  O   UNL     1      46.896   6.187  12.156  0.00  0.00    +0.000 OA
BRANCH  16  20
ATOM     17  C   UNL     1      48.070   5.159  16.024  0.00  0.00    +0.000 A 
ATOM     18  C   UNL     1      48.517   6.331  15.416  0.00  0.00    +0.000 A 
ATOM     19  C   UNL     1      48.105   6.644  14.117  0.00  0.00    +0.000 A 
ATOM     20  C   UNL     1      47.257   5.784  13.419  0.00  0.00    +0.000 A 
ATOM     21  C   UNL     1      46.785   4.631  14.050  0.00  0.00    +0.000 A 
ATOM     22  C   UNL     1      47.200   4.313  15.343  0.00  0.00    +0.000 A 
ENDBRANCH  16  20
ENDBRANCH  13  16
ENDBRANCH   1  13
TORSDOF 4
ENDMDL
MODEL 3
REMARK VINA RESULT:    -6.527      3.309      6.604
REMARK INTER + INTRA:          -8.972
REMARK INTER:                  -8.289
REMARK INTRA:                  -0.684
REMARK UNBOUND:                -0.919
REMARK  Name = 
REMARK  4 active torsions:
REMARK  status: ('A' for Active; 'I' for Inactive)
REMARK    1  A    between atoms: C_4  and  O_5
REMARK    2  A    between atoms: O_5  and  C_6
REMARK    3  A    between atoms: C_6  and  C_7
REMARK    4  A    between atoms: C_11  and  C_12
REMARK                            x       y       z     vdW  Elec       q    Type
REMARK                         _______ _______ _______ _____ _____    ______ ____
ROOT
ATOM      1  C   UNL     1      45.059   6.391  11.524  0.00  0.00    +0.000 A 
ATOM      2  C   UNL     1      43.718   6.148  11.812  0.00  0.00    +0.000 A 
ATOM      3  N   UNL     1      42.973   5.155  11.270  0.00  0.00    +0.000 NA
ATOM      4  C   UNL     1      43.588   4.363  10.360  0.00  0.00    +0.000 A 
ATOM      5  C   UNL     1      44.912   4.500   9.948  0.00  0.00    +0.000 A 
ATOM      6  C   UNL     1      45.630   5.539  10.565  0.00  0.00    +0.000 A 
ENDROOT
BRANCH   5   7
ATOM      7  C   UNL     1      45.540   3.613   8.946  0.00  0.00    +0.000 A 
ATOM      8  C   UNL     1      46.205   4.133   7.825  0.00  0.00    +0.000 A 
ATOM      9  C   UNL     1      46.806   3.269   6.922  0.00  0.00    +0.000 A 
ATOM     10  N   UNL     1      46.786   1.927   7.043  0.00  0.00    +0.000 NA
ATOM     11  C   UNL     1      46.137   1.431   8.115  0.00  0.00    +0.000 A 
ATOM     12  C   UNL     1      45.513   2.218   9.074  0.00  0.00    +0.000 A 
ENDBRANCH   5   7
BRANCH   1  13
ATOM     13  C   UNL     1      45.865   7.476  12.218  0.00  0.00    +0.000 C 
ATOM     14  C   UNL     1      46.882   7.037  13.265  0.00  0.00    +0.000 C 
ATOM     15  C   UNL     1      47.357   7.580  11.960  0.00  0.00    +0.000 C 
BRANCH  13  16
ATOM     16  O   UNL     1      45.170   8.690  12.610  0.00  0.00    +0.000 OA
BRANCH  16  20
ATOM     17  C   UNL     1      44.765  11.746   9.801  0.00  0.00    +0.000 A 
ATOM     18  C   UNL     1      43.872  10.677   9.846  0.00  0.00    +0.000 A 
ATOM     19  C   UNL     1      44.038   9.669  10.800  0.00  0.00    +0.000 A 
ATOM     20  C   UNL     1      45.102   9.719  11.702  0.00  0.00    +0.000 A 
ATOM     21  C   UNL     1      45.969  10.812  11.674  0.00  0.00    +0.000 A 
ATOM     22  C   UNL     1      45.809  11.817  10.719  0.00  0.00    +0.000 A 
ENDBRANCH  16  20
ENDBRANCH  13  16
ENDBRANCH   1  13
TORSDOF 4
ENDMDL
MODEL 4
REMARK VINA RESULT:    -6.276      2.659      6.485
REMARK INTER + INTRA:          -8.662
REMARK INTER:                  -7.883
REMARK INTRA:                  -0.779
REMARK UNBOUND:                -0.919
REMARK  Name = 
REMARK  4 active torsions:
REMARK  status: ('A' for Active; 'I' for Inactive)
REMARK    1  A    between atoms: C_4  and  O_5
REMARK    2  A    between atoms: O_5  and  C_6
REMARK    3  A    between atoms: C_6  and  C_7
REMARK    4  A    between atoms: C_11  and  C_12
REMARK                            x       y       z     vdW  Elec       q    Type
REMARK                         _______ _______ _______ _____ _____    ______ ____
ROOT
ATOM      1  C   UNL     1      45.519   6.650  11.774  0.00  0.00    +0.000 A 
ATOM      2  C   UNL     1      44.153   6.690  12.049  0.00  0.00    +0.000 A 
ATOM      3  N   UNL     1      43.225   5.868  11.502  0.00  0.00    +0.000 NA
ATOM      4  C   UNL     1      43.673   4.962  10.601  0.00  0.00    +0.000 A 
ATOM      5  C   UNL     1      45.002   4.822  10.203  0.00  0.00    +0.000 A 
ATOM      6  C   UNL     1      45.911   5.694  10.823  0.00  0.00    +0.000 A 
ENDROOT
BRANCH   5   7
ATOM      7  C   UNL     1      45.443   3.819   9.209  0.00  0.00    +0.000 A 
ATOM      8  C   UNL     1      45.246   2.446   9.421  0.00  0.00    +0.000 A 
ATOM      9  C   UNL     1      45.648   1.539   8.451  0.00  0.00    +0.000 A 
ATOM     10  N   UNL     1      46.240   1.892   7.294  0.00  0.00    +0.000 NA
ATOM     11  C   UNL     1      46.437   3.212   7.100  0.00  0.00    +0.000 A 
ATOM     12  C   UNL     1      46.062   4.192   8.009  0.00  0.00    +0.000 A 
ENDBRANCH   5   7
BRANCH   1  13
ATOM     13  C   UNL     1      46.524   7.550  12.473  0.00  0.00    +0.000 C 
ATOM     14  C   UNL     1      46.673   8.976  11.955  0.00  0.00    +0.000 C 
ATOM     15  C   UNL     1      46.030   8.737  13.280  0.00  0.00    +0.000 C 
BRANCH  13  16
ATOM     16  O   UNL     1      47.802   6.972  12.851  0.00  0.00    +0.000 OA
BRANCH  16  20
ATOM     17  C   UNL     1      48.083   4.911  16.466  0.00  0.00    +0.000 A 
ATOM     18  C   UNL     1      48.782   6.098  16.249  0.00  0.00    +0.000 A 
ATOM     19  C   UNL     1      48.665   6.762  15.025  0.00  0.00    +0.000 A 
ATOM     20  C   UNL     1      47.862   6.238  14.011  0.00  0.00    +0.000 A 
ATOM     21  C   UNL     1      47.138   5.069  14.249  0.00  0.00    +0.000 A 
ATOM     22  C   UNL     1      47.257   4.401  15.469  0.00  0.00    +0.000 A 
ENDBRANCH  16  20
ENDBRANCH  13  16
ENDBRANCH   1  13
TORSDOF 4
ENDMDL
MODEL 5
REMARK VINA RESULT:    -6.220      3.029      3.558
REMARK INTER + INTRA:          -8.594
REMARK INTER:                  -7.977
REMARK INTRA:                  -0.617
REMARK UNBOUND:                -0.919
REMARK  Name = 
REMARK  4 active torsions:
REMARK  status: ('A' for Active; 'I' for Inactive)
REMARK    1  A    between atoms: C_4  and  O_5
REMARK    2  A    between atoms: O_5  and  C_6
REMARK    3  A    between atoms: C_6  and  C_7
REMARK    4  A    between atoms: C_11  and  C_12
REMARK                            x       y       z     vdW  Elec       q    Type
REMARK                         _______ _______ _______ _____ _____    ______ ____
ROOT
ATOM      1  C   UNL     1      45.020   6.317  12.298  0.00  0.00    +0.000 A 
ATOM      2  C   UNL     1      46.216   6.146  12.993  0.00  0.00    +0.000 A 
ATOM      3  N   UNL     1      47.064   7.144  13.339  0.00  0.00    +0.000 NA
ATOM      4  C   UNL     1      46.721   8.395  12.949  0.00  0.00    +0.000 A 
ATOM      5  C   UNL     1      45.575   8.718  12.225  0.00  0.00    +0.000 A 
ATOM      6  C   UNL     1      44.733   7.637  11.916  0.00  0.00    +0.000 A 
ENDROOT
BRANCH   5   7
ATOM      7  C   UNL     1      45.245  10.100  11.815  0.00  0.00    +0.000 A 
ATOM      8  C   UNL     1      46.231  11.097  11.746  0.00  0.00    +0.000 A 
ATOM      9  C   UNL     1      45.887  12.374  11.330  0.00  0.00    +0.000 A 
ATOM     10  N   UNL     1      44.636  12.739  10.988  0.00  0.00    +0.000 NA
ATOM     11  C   UNL     1      43.690  11.781  11.066  0.00  0.00    +0.000 A 
ATOM     12  C   UNL     1      43.941  10.475  11.464  0.00  0.00    +0.000 A 
ENDBRANCH   5   7
BRANCH   1  13
ATOM     13  C   UNL     1      44.072   5.168  12.000  0.00  0.00    +0.000 C 
ATOM     14  C   UNL     1      42.872   4.987  12.923  0.00  0.00    +0.000 C 
ATOM     15  C   UNL     1      42.661   5.467  11.526  0.00  0.00    +0.000 C 
BRANCH  13  16
ATOM     16  O   UNL     1      44.652   3.896  11.607  0.00  0.00    +0.000 OA
BRANCH  16  20
ATOM     17  C   UNL     1      45.759   3.224   7.642  0.00  0.00    +0.000 A 
ATOM     18  C   UNL     1      45.338   2.181   8.467  0.00  0.00    +0.000 A 
ATOM     19  C   UNL     1      44.976   2.442   9.791  0.00  0.00    +0.000 A 
ATOM     20  C   UNL     1      45.044   3.740  10.299  0.00  0.00    +0.000 A 
ATOM     21  C   UNL     1      45.431   4.783   9.456  0.00  0.00    +0.000 A 
ATOM     22  C   UNL     1      45.799   4.524   8.135  0.00  0.00    +0.000 A 
ENDBRANCH  16  20
ENDBRANCH  13  16
ENDBRANCH   1  13
TORSDOF 4
ENDMDL
MODEL 6
REMARK VINA RESULT:    -5.952      3.048      7.310
REMARK INTER + INTRA:          -8.263
REMARK INTER:                  -7.524
REMARK INTRA:                  -0.739
REMARK UNBOUND:                -0.919
REMARK  Name = 
REMARK  4 active torsions:
REMARK  status: ('A' for Active; 'I' for Inactive)
REMARK    1  A    between atoms: C_4  and  O_5
REMARK    2  A    between atoms: O_5  and  C_6
REMARK    3  A    between atoms: C_6  and  C_7
REMARK    4  A    between atoms: C_11  and  C_12
REMARK                            x       y       z     vdW  Elec       q    Type
REMARK                         _______ _______ _______ _____ _____    ______ ____
ROOT
ATOM      1  C   UNL     1      47.538   7.418  13.553  0.00  0.00    +0.000 A 
ATOM      2  C   UNL     1      46.852   8.625  13.436  0.00  0.00    +0.000 A 
ATOM      3  N   UNL     1      45.605   8.766  12.925  0.00  0.00    +0.000 NA
ATOM      4  C   UNL     1      45.005   7.639  12.472  0.00  0.00    +0.000 A 
ATOM      5  C   UNL     1      45.575   6.367  12.494  0.00  0.00    +0.000 A 
ATOM      6  C   UNL     1      46.861   6.293  13.054  0.00  0.00    +0.000 A 
ENDROOT
BRANCH   5   7
ATOM      7  C   UNL     1      44.881   5.166  11.982  0.00  0.00    +0.000 A 
ATOM      8  C   UNL     1      44.184   4.304  12.842  0.00  0.00    +0.000 A 
ATOM      9  C   UNL     1      43.522   3.203  12.319  0.00  0.00    +0.000 A 
ATOM     10  N   UNL     1      43.509   2.889  11.009  0.00  0.00    +0.000 NA
ATOM     11  C   UNL     1      44.190   3.714  10.188  0.00  0.00    +0.000 A 
ATOM     12  C   UNL     1      44.875   4.842  10.619  0.00  0.00    +0.000 A 
ENDBRANCH   5   7
BRANCH   1  13
ATOM     13  C   UNL     1      48.908   7.311  14.203  0.00  0.00    +0.000 C 
ATOM     14  C   UNL     1      50.109   7.792  13.397  0.00  0.00    +0.000 C 
ATOM     15  C   UNL     1      49.656   8.575  14.583  0.00  0.00    +0.000 C 
BRANCH  13  16
ATOM     16  O   UNL     1      49.206   6.106  14.957  0.00  0.00    +0.000 OA
BRANCH  16  20
ATOM     17  C   UNL     1      47.327   5.406  18.615  0.00  0.00    +0.000 A 
ATOM     18  C   UNL     1      47.203   4.513  17.551  0.00  0.00    +0.000 A 
ATOM     19  C   UNL     1      47.846   4.780  16.338  0.00  0.00    +0.000 A 
ATOM     20  C   UNL     1      48.601   5.942  16.181  0.00  0.00    +0.000 A 
ATOM     21  C   UNL     1      48.749   6.812  17.262  0.00  0.00    +0.000 A 
ATOM     22  C   UNL     1      48.104   6.551  18.472  0.00  0.00    +0.000 A 
ENDBRANCH  16  20
ENDBRANCH  13  16
ENDBRANCH   1  13
TORSDOF 4
ENDMDL
MODEL 7
REMARK VINA RESULT:    -5.549      2.803      7.371
REMARK INTER + INTRA:          -7.765
REMARK INTER:                  -7.014
REMARK INTRA:                  -0.752
REMARK UNBOUND:                -0.919
REMARK  Name = 
REMARK  4 active torsions:
REMARK  status: ('A' for Active; 'I' for Inactive)
REMARK    1  A    between atoms: C_4  and  O_5
REMARK    2  A    between atoms: O_5  and  C_6
REMARK    3  A    between atoms: C_6  and  C_7
REMARK    4  A    between atoms: C_11  and  C_12
REMARK                            x       y       z     vdW  Elec       q    Type
REMARK                         _______ _______ _______ _____ _____    ______ ____
ROOT
ATOM      1  C   UNL     1      47.625   7.642  12.615  0.00  0.00    +0.000 A 
ATOM      2  C   UNL     1      46.812   8.764  12.761  0.00  0.00    +0.000 A 
ATOM      3  N   UNL     1      45.466   8.775  12.606  0.00  0.00    +0.000 NA
ATOM      4  C   UNL     1      44.886   7.603  12.255  0.00  0.00    +0.000 A 
ATOM      5  C   UNL     1      45.568   6.406  12.045  0.00  0.00    +0.000 A 
ATOM      6  C   UNL     1      46.958   6.463  12.241  0.00  0.00    +0.000 A 
ENDROOT
BRANCH   5   7
ATOM      7  C   UNL     1      44.890   5.151  11.657  0.00  0.00    +0.000 A 
ATOM      8  C   UNL     1      44.204   4.370  12.601  0.00  0.00    +0.000 A 
ATOM      9  C   UNL     1      43.556   3.214  12.192  0.00  0.00    +0.000 A 
ATOM     10  N   UNL     1      43.548   2.769  10.920  0.00  0.00    +0.000 NA
ATOM     11  C   UNL     1      44.217   3.516  10.020  0.00  0.00    +0.000 A 
ATOM     12  C   UNL     1      44.888   4.691  10.334  0.00  0.00    +0.000 A 
ENDBRANCH   5   7
BRANCH   1  13
ATOM     13  C   UNL     1      49.122   7.672  12.873  0.00  0.00    +0.000 C 
ATOM     14  C   UNL     1      50.046   7.614  11.662  0.00  0.00    +0.000 C 
ATOM     15  C   UNL     1      49.930   8.882  12.439  0.00  0.00    +0.000 C 
BRANCH  13  16
ATOM     16  O   UNL     1      49.633   6.892  13.986  0.00  0.00    +0.000 OA
BRANCH  16  20
ATOM     17  C   UNL     1      48.424   7.714  17.892  0.00  0.00    +0.000 A 
ATOM     18  C   UNL     1      48.524   6.405  17.422  0.00  0.00    +0.000 A 
ATOM     19  C   UNL     1      48.931   6.166  16.106  0.00  0.00    +0.000 A 
ATOM     20  C   UNL     1      49.227   7.231  15.254  0.00  0.00    +0.000 A 
ATOM     21  C   UNL     1      49.159   8.536  15.745  0.00  0.00    +0.000 A 
ATOM     22  C   UNL     1      48.747   8.778  17.056  0.00  0.00    +0.000 A 
ENDBRANCH  16  20
ENDBRANCH  13  16
ENDBRANCH   1  13
TORSDOF 4
ENDMDL
MODEL 8
REMARK VINA RESULT:    -5.509      4.264      8.446
REMARK INTER + INTRA:          -7.716
REMARK INTER:                  -7.068
REMARK INTRA:                  -0.647
REMARK UNBOUND:                -0.919
REMARK  Name = 
REMARK  4 active torsions:
REMARK  status: ('A' for Active; 'I' for Inactive)
REMARK    1  A    between atoms: C_4  and  O_5
REMARK    2  A    between atoms: O_5  and  C_6
REMARK    3  A    between atoms: C_6  and  C_7
REMARK    4  A    between atoms: C_11  and  C_12
REMARK                            x       y       z     vdW  Elec       q    Type
REMARK                         _______ _______ _______ _____ _____    ______ ____
ROOT
ATOM      1  C   UNL     1      47.711   5.069  15.697  0.00  0.00    +0.000 A 
ATOM      2  C   UNL     1      48.455   6.098  15.123  0.00  0.00    +0.000 A 
ATOM      3  N   UNL     1      48.191   6.675  13.925  0.00  0.00    +0.000 NA
ATOM      4  C   UNL     1      47.136   6.183  13.234  0.00  0.00    +0.000 A 
ATOM      5  C   UNL     1      46.318   5.139  13.663  0.00  0.00    +0.000 A 
ATOM      6  C   UNL     1      46.638   4.601  14.920  0.00  0.00    +0.000 A 
ENDROOT
BRANCH   5   7
ATOM      7  C   UNL     1      45.178   4.632  12.869  0.00  0.00    +0.000 A 
ATOM      8  C   UNL     1      45.249   3.405  12.192  0.00  0.00    +0.000 A 
ATOM      9  C   UNL     1      44.147   2.950  11.482  0.00  0.00    +0.000 A 
ATOM     10  N   UNL     1      42.986   3.626  11.385  0.00  0.00    +0.000 NA
ATOM     11  C   UNL     1      42.927   4.809  12.028  0.00  0.00    +0.000 A 
ATOM     12  C   UNL     1      43.974   5.342  12.769  0.00  0.00    +0.000 A 
ENDBRANCH   5   7
BRANCH   1  13
ATOM     13  C   UNL     1      48.010   4.509  17.077  0.00  0.00    +0.000 C 
ATOM     14  C   UNL     1      48.505   3.070  17.161  0.00  0.00    +0.000 C 
ATOM     15  C   UNL     1      49.444   4.191  17.459  0.00  0.00    +0.000 C 
BRANCH  13  16
ATOM     16  O   UNL     1      47.088   4.831  18.152  0.00  0.00    +0.000 OA
BRANCH  16  20
ATOM     17  C   UNL     1      48.180   7.841  20.825  0.00  0.00    +0.000 A 
ATOM     18  C   UNL     1      47.776   8.136  19.523  0.00  0.00    +0.000 A 
ATOM     19  C   UNL     1      47.418   7.102  18.653  0.00  0.00    +0.000 A 
ATOM     20  C   UNL     1      47.474   5.773  19.075  0.00  0.00    +0.000 A 
ATOM     21  C   UNL     1      47.844   5.490  20.391  0.00  0.00    +0.000 A 
ATOM     22  C   UNL     1      48.208   6.520  21.260  0.00  0.00    +0.000 A 
ENDBRANCH  16  20
ENDBRANCH  13  16
ENDBRANCH   1  13
TORSDOF 4
ENDMDL
MODEL 9
REMARK VINA RESULT:    -5.486      2.924      6.734
REMARK INTER + INTRA:          -7.688
REMARK INTER:                  -7.082
REMARK INTRA:                  -0.606
REMARK UNBOUND:                -0.919
REMARK  Name = 
REMARK  4 active torsions:
REMARK  status: ('A' for Active; 'I' for Inactive)
REMARK    1  A    between atoms: C_4  and  O_5
REMARK    2  A    between atoms: O_5  and  C_6
REMARK    3  A    between atoms: C_6  and  C_7
REMARK    4  A    between atoms: C_11  and  C_12
REMARK                            x       y       z     vdW  Elec       q    Type
REMARK                         _______ _______ _______ _____ _____    ______ ____
ROOT
ATOM      1  C   UNL     1      48.091   6.998  13.380  0.00  0.00    +0.000 A 
ATOM      2  C   UNL     1      48.465   6.397  14.580  0.00  0.00    +0.000 A 
ATOM      3  N   UNL     1      47.863   5.315  15.130  0.00  0.00    +0.000 NA
ATOM      4  C   UNL     1      46.800   4.809  14.462  0.00  0.00    +0.000 A 
ATOM      5  C   UNL     1      46.290   5.317  13.268  0.00  0.00    +0.000 A 
ATOM      6  C   UNL     1      46.975   6.428  12.747  0.00  0.00    +0.000 A 
ENDROOT
BRANCH   5   7
ATOM      7  C   UNL     1      45.122   4.732  12.577  0.00  0.00    +0.000 A 
ATOM      8  C   UNL     1      45.166   3.438  12.036  0.00  0.00    +0.000 A 
ATOM      9  C   UNL     1      44.039   2.913  11.421  0.00  0.00    +0.000 A 
ATOM     10  N   UNL     1      42.876   3.581  11.294  0.00  0.00    +0.000 NA
ATOM     11  C   UNL     1      42.841   4.828  11.805  0.00  0.00    +0.000 A 
ATOM     12  C   UNL     1      43.915   5.433  12.444  0.00  0.00    +0.000 A 
ENDBRANCH   5   7
BRANCH   1  13
ATOM     13  C   UNL     1      48.851   8.167  12.775  0.00  0.00    +0.000 C 
ATOM     14  C   UNL     1      50.367   8.045  12.674  0.00  0.00    +0.000 C 
ATOM     15  C   UNL     1      49.540   7.996  11.433  0.00  0.00    +0.000 C 
BRANCH  13  16
ATOM     16  O   UNL     1      48.436   9.509  13.146  0.00  0.00    +0.000 OA
BRANCH  16  20
ATOM     17  C   UNL     1      45.783  11.519  10.632  0.00  0.00    +0.000 A 
ATOM     18  C   UNL     1      45.341  10.545  11.527  0.00  0.00    +0.000 A 
ATOM     19  C   UNL     1      46.258   9.890  12.354  0.00  0.00    +0.000 A 
ATOM     20  C   UNL     1      47.618  10.195  12.281  0.00  0.00    +0.000 A 
ATOM     21  C   UNL     1      48.047  11.197  11.409  0.00  0.00    +0.000 A 
ATOM     22  C   UNL     1      47.134  11.848  10.578  0.00  0.00    +0.000 A 
ENDBRANCH  16  20
ENDBRANCH  13  16
ENDBRANCH   1  13
TORSDOF 4
ENDMDL
