MODEL 1
REMARK VINA RESULT:    -7.856      0.000      0.000
REMARK INTER + INTRA:          -9.424
REMARK INTER:                  -9.234
REMARK INTRA:                  -0.190
REMARK UNBOUND:                -0.190
REMARK  Name = 
REMARK  3 active torsions:
REMARK  status: ('A' for Active; 'I' for Inactive)
REMARK    1  A    between atoms: C_6  and  C_7
REMARK    2  A    between atoms: C_7  and  N_8
REMARK    3  A    between atoms: C_13  and  C_14
REMARK                            x       y       z     vdW  Elec       q    Type
REMARK                         _______ _______ _______ _____ _____    ______ ____
ROOT
ATOM      1  N   UNL     1      44.922   6.052  10.283  0.00  0.00    +0.000 N 
ATOM      2  C   UNL     1      44.775   4.729   9.924  0.00  0.00    +0.000 A 
ATOM      3  N   UNL     1      44.020   3.913  10.665  0.00  0.00    +0.000 NA
ATOM      4  C   UNL     1      44.036   2.612  10.347  0.00  0.00    +0.000 A 
ATOM      5  C   UNL     1      44.792   2.097   9.326  0.00  0.00    +0.000 A 
ATOM      6  C   UNL     1      45.503   3.004   8.559  0.00  0.00    +0.000 A 
ATOM      7  N   UNL     1      45.493   4.319   8.870  0.00  0.00    +0.000 NA
ATOM      8  H   UNL     1      45.739   6.440   9.829  0.00  0.00    +0.000 HD
ENDROOT
BRANCH   6   9
ATOM      9  C   UNL     1      46.236   2.598   7.328  0.00  0.00    +0.000 A 
ATOM     10  C   UNL     1      46.511   3.576   6.337  0.00  0.00    +0.000 A 
ATOM     11  C   UNL     1      47.236   3.292   5.175  0.00  0.00    +0.000 A 
ATOM     12  C   UNL     1      47.731   2.016   4.971  0.00  0.00    +0.000 A 
ATOM     13  C   UNL     1      47.474   1.022   5.911  0.00  0.00    +0.000 A 
ATOM     14  C   UNL     1      46.727   1.299   7.071  0.00  0.00    +0.000 A 
ATOM     15 CL   UNL     1      46.416  -0.065   8.097  0.00  0.00    +0.000 Cl
ENDBRANCH   6   9
BRANCH   1  16
ATOM     16  C   UNL     1      44.714   6.402  11.681  0.00  0.00    +0.000 C 
BRANCH  16  22
ATOM     17  N   UNL     1      46.904   3.839  15.047  0.00  0.00    +0.000 N 
ATOM     18  C   UNL     1      46.956   4.903  14.171  0.00  0.00    +0.000 A 
ATOM     19  N   UNL     1      48.097   5.590  14.123  0.00  0.00    +0.000 NA
ATOM     20  C   UNL     1      48.120   6.635  13.279  0.00  0.00    +0.000 A 
ATOM     21  C   UNL     1      47.056   7.004  12.491  0.00  0.00    +0.000 A 
ATOM     22  C   UNL     1      45.916   6.232  12.600  0.00  0.00    +0.000 A 
ATOM     23  N   UNL     1      45.860   5.186  13.462  0.00  0.00    +0.000 NA
ATOM     24  H   UNL     1      47.635   3.947  15.737  0.00  0.00    +0.000 HD
ATOM     25  H   UNL     1      45.961   3.728  15.387  0.00  0.00    +0.000 HD
ENDBRANCH  16  22
ENDBRANCH   1  16
TORSDOF 3
ENDMDL
MODEL 2
REMARK VINA RESULT:    -7.336      2.816      7.356
REMARK INTER + INTRA:          -8.812
REMARK INTER:                  -8.471
REMARK INTRA:                  -0.342
REMARK UNBOUND:                -0.190
REMARK  Name = 
REMARK  3 active torsions:
REMARK  status: ('A' for Active; 'I' for Inactive)
REMARK    1  A    between atoms: C_6  and  C_7
REMARK    2  A    between atoms: C_7  and  N_8
REMARK    3  A    between atoms: C_13  and  C_14
REMARK                            x       y       z     vdW  Elec       q    Type
REMARK                         _______ _______ _______ _____ _____    ______ ____
ROOT
ATOM      1  N   UNL     1      44.704   2.785  11.593  0.00  0.00    +0.000 N 
ATOM      2  C   UNL     1      44.891   4.064  12.073  0.00  0.00    +0.000 A 
ATOM      3  N   UNL     1      44.183   5.078  11.568  0.00  0.00    +0.000 NA
ATOM      4  C   UNL     1      44.514   6.312  11.973  0.00  0.00    +0.000 A 
ATOM      5  C   UNL     1      45.538   6.567  12.849  0.00  0.00    +0.000 A 
ATOM      6  C   UNL     1      46.190   5.468  13.380  0.00  0.00    +0.000 A 
ATOM      7  N   UNL     1      45.863   4.218  12.981  0.00  0.00    +0.000 NA
ATOM      8  H   UNL     1      45.501   2.209  11.836  0.00  0.00    +0.000 HD
ENDROOT
BRANCH   6   9
ATOM      9  C   UNL     1      47.210   5.596  14.457  0.00  0.00    +0.000 A 
ATOM     10  C   UNL     1      47.191   4.673  15.536  0.00  0.00    +0.000 A 
ATOM     11  C   UNL     1      48.141   4.692  16.562  0.00  0.00    +0.000 A 
ATOM     12  C   UNL     1      49.160   5.627  16.537  0.00  0.00    +0.000 A 
ATOM     13  C   UNL     1      49.210   6.559  15.505  0.00  0.00    +0.000 A 
ATOM     14  C   UNL     1      48.244   6.558  14.482  0.00  0.00    +0.000 A 
ATOM     15 CL   UNL     1      48.391   7.838  13.320  0.00  0.00    +0.000 Cl
ENDBRANCH   6   9
BRANCH   1  16
ATOM     16  C   UNL     1      44.168   2.636  10.247  0.00  0.00    +0.000 C 
BRANCH  16  22
ATOM     17  N   UNL     1      47.184   0.375   7.334  0.00  0.00    +0.000 N 
ATOM     18  C   UNL     1      46.560   1.555   7.682  0.00  0.00    +0.000 A 
ATOM     19  N   UNL     1      46.802   2.615   6.911  0.00  0.00    +0.000 NA
ATOM     20  C   UNL     1      46.203   3.760   7.279  0.00  0.00    +0.000 A 
ATOM     21  C   UNL     1      45.378   3.873   8.373  0.00  0.00    +0.000 A 
ATOM     22  C   UNL     1      45.178   2.722   9.111  0.00  0.00    +0.000 A 
ATOM     23  N   UNL     1      45.792   1.560   8.773  0.00  0.00    +0.000 NA
ATOM     24  H   UNL     1      47.970   0.585   6.732  0.00  0.00    +0.000 HD
ATOM     25  H   UNL     1      47.371  -0.166   8.165  0.00  0.00    +0.000 HD
ENDBRANCH  16  22
ENDBRANCH   1  16
TORSDOF 3
ENDMDL
MODEL 3
REMARK VINA RESULT:    -7.226      2.691      4.664
REMARK INTER + INTRA:          -8.683
REMARK INTER:                  -8.084
REMARK INTRA:                  -0.599
REMARK UNBOUND:                -0.190
REMARK  Name = 
REMARK  3 active torsions:
REMARK  status: ('A' for Active; 'I' for Inactive)
REMARK    1  A    between atoms: C_6  and  C_7
REMARK    2  A    between atoms: C_7  and  N_8
REMARK    3  A    between atoms: C_13  and  C_14
REMARK                            x       y       z     vdW  Elec       q    Type
REMARK                         _______ _______ _______ _____ _____    ______ ____
ROOT
ATOM      1  N   UNL     1      48.398   6.323  13.768  0.00  0.00    +0.000 N 
ATOM      2  C   UNL     1      47.256   6.618  13.054  0.00  0.00    +0.000 A 
ATOM      3  N   UNL     1      46.590   7.751  13.294  0.00  0.00    +0.000 NA
ATOM      4  C   UNL     1      45.414   7.910  12.673  0.00  0.00    +0.000 A 
ATOM      5  C   UNL     1      44.873   6.969  11.835  0.00  0.00    +0.000 A 
ATOM      6  C   UNL     1      45.642   5.846  11.582  0.00  0.00    +0.000 A 
ATOM      7  N   UNL     1      46.832   5.677  12.202  0.00  0.00    +0.000 NA
ATOM      8  H   UNL     1      48.596   5.333  13.701  0.00  0.00    +0.000 HD
ENDROOT
BRANCH   6   9
ATOM      9  C   UNL     1      45.247   4.826  10.573  0.00  0.00    +0.000 A 
ATOM     10  C   UNL     1      45.658   4.995   9.225  0.00  0.00    +0.000 A 
ATOM     11  C   UNL     1      45.372   4.061   8.224  0.00  0.00    +0.000 A 
ATOM     12  C   UNL     1      44.677   2.907   8.542  0.00  0.00    +0.000 A 
ATOM     13  C   UNL     1      44.242   2.706   9.849  0.00  0.00    +0.000 A 
ATOM     14  C   UNL     1      44.510   3.654  10.854  0.00  0.00    +0.000 A 
ATOM     15 CL   UNL     1      43.824   3.302  12.408  0.00  0.00    +0.000 Cl
ENDBRANCH   6   9
BRANCH   1  16
ATOM     16  C   UNL     1      48.559   6.941  15.077  0.00  0.00    +0.000 C 
BRANCH  16  22
ATOM     17  N   UNL     1      47.008   3.106  17.440  0.00  0.00    +0.000 N 
ATOM     18  C   UNL     1      47.975   4.079  17.300  0.00  0.00    +0.000 A 
ATOM     19  N   UNL     1      49.025   4.008  18.118  0.00  0.00    +0.000 NA
ATOM     20  C   UNL     1      49.945   4.977  17.981  0.00  0.00    +0.000 A 
ATOM     21  C   UNL     1      49.851   5.996  17.062  0.00  0.00    +0.000 A 
ATOM     22  C   UNL     1      48.733   5.988  16.251  0.00  0.00    +0.000 A 
ATOM     23  N   UNL     1      47.779   5.033  16.387  0.00  0.00    +0.000 NA
ATOM     24  H   UNL     1      47.103   2.678  18.351  0.00  0.00    +0.000 HD
ATOM     25  H   UNL     1      46.105   3.490  17.202  0.00  0.00    +0.000 HD
ENDBRANCH  16  22
ENDBRANCH   1  16
TORSDOF 3
ENDMDL
MODEL 4
REMARK VINA RESULT:    -7.019      4.459      9.389
REMARK INTER + INTRA:          -8.439
REMARK INTER:                  -7.962
REMARK INTRA:                  -0.478
REMARK UNBOUND:                -0.190
REMARK  Name = 
REMARK  3 active torsions:
REMARK  status: ('A' for Active; 'I' for Inactive)
REMARK    1  A    between atoms: C_6  and  C_7
REMARK    2  A    between atoms: C_7  and  N_8
REMARK    3  A    between atoms: C_13  and  C_14
REMARK                            x       y       z     vdW  Elec       q    Type
REMARK                         _______ _______ _______ _____ _____    ______ ____
ROOT
ATOM      1  N   UNL     1      46.748   4.805  14.082  0.00  0.00    +0.000 N 
ATOM      2  C   UNL     1      47.399   4.297  15.185  0.00  0.00    +0.000 A 
ATOM      3  N   UNL     1      47.756   3.010  15.219  0.00  0.00    +0.000 NA
ATOM      4  C   UNL     1      48.253   2.546  16.373  0.00  0.00    +0.000 A 
ATOM      5  C   UNL     1      48.387   3.318  17.499  0.00  0.00    +0.000 A 
ATOM      6  C   UNL     1      48.056   4.656  17.378  0.00  0.00    +0.000 A 
ATOM      7  N   UNL     1      47.557   5.136  16.217  0.00  0.00    +0.000 NA
ATOM      8  H   UNL     1      46.281   5.669  14.328  0.00  0.00    +0.000 HD
ENDROOT
BRANCH   6   9
ATOM      9  C   UNL     1      48.304   5.636  18.472  0.00  0.00    +0.000 A 
ATOM     10  C   UNL     1      47.315   5.811  19.475  0.00  0.00    +0.000 A 
ATOM     11  C   UNL     1      47.489   6.673  20.563  0.00  0.00    +0.000 A 
ATOM     12  C   UNL     1      48.671   7.380  20.697  0.00  0.00    +0.000 A 
ATOM     13  C   UNL     1      49.662   7.248  19.729  0.00  0.00    +0.000 A 
ATOM     14  C   UNL     1      49.483   6.398  18.622  0.00  0.00    +0.000 A 
ATOM     15 CL   UNL     1      50.771   6.412  17.460  0.00  0.00    +0.000 Cl
ENDBRANCH   6   9
BRANCH   1  16
ATOM     16  C   UNL     1      46.010   3.873  13.240  0.00  0.00    +0.000 C 
BRANCH  16  22
ATOM     17  N   UNL     1      44.018   4.432   8.949  0.00  0.00    +0.000 N 
ATOM     18  C   UNL     1      43.934   4.636  10.311  0.00  0.00    +0.000 A 
ATOM     19  N   UNL     1      42.824   5.214  10.767  0.00  0.00    +0.000 NA
ATOM     20  C   UNL     1      42.771   5.424  12.093  0.00  0.00    +0.000 A 
ATOM     21  C   UNL     1      43.777   5.072  12.962  0.00  0.00    +0.000 A 
ATOM     22  C   UNL     1      44.888   4.472  12.403  0.00  0.00    +0.000 A 
ATOM     23  N   UNL     1      44.974   4.271  11.064  0.00  0.00    +0.000 NA
ATOM     24  H   UNL     1      43.356   5.040   8.486  0.00  0.00    +0.000 HD
ATOM     25  H   UNL     1      44.982   4.492   8.657  0.00  0.00    +0.000 HD
ENDBRANCH  16  22
ENDBRANCH   1  16
TORSDOF 3
ENDMDL
MODEL 5
REMARK VINA RESULT:    -6.795      4.421      9.222
REMARK INTER + INTRA:          -8.176
REMARK INTER:                  -7.687
REMARK INTRA:                  -0.489
REMARK UNBOUND:                -0.190
REMARK  Name = 
REMARK  3 active torsions:
REMARK  status: ('A' for Active; 'I' for Inactive)
REMARK    1  A    between atoms: C_6  and  C_7
REMARK    2  A    between atoms: C_7  and  N_8
REMARK    3  A    between atoms: C_13  and  C_14
REMARK                            x       y       z     vdW  Elec       q    Type
REMARK                         _______ _______ _______ _____ _____    ______ ____
ROOT
ATOM      1  N   UNL     1      46.485   3.903  14.478  0.00  0.00    +0.000 N 
ATOM      2  C   UNL     1      47.347   4.875  14.940  0.00  0.00    +0.000 A 
ATOM      3  N   UNL     1      47.685   5.900  14.153  0.00  0.00    +0.000 NA
ATOM      4  C   UNL     1      48.636   6.728  14.606  0.00  0.00    +0.000 A 
ATOM      5  C   UNL     1      49.272   6.557  15.809  0.00  0.00    +0.000 A 
ATOM      6  C   UNL     1      48.831   5.512  16.601  0.00  0.00    +0.000 A 
ATOM      7  N   UNL     1      47.871   4.671  16.155  0.00  0.00    +0.000 NA
ATOM      8  H   UNL     1      46.576   3.069  15.044  0.00  0.00    +0.000 HD
ENDROOT
BRANCH   6   9
ATOM      9  C   UNL     1      49.324   5.310  17.992  0.00  0.00    +0.000 A 
ATOM     10  C   UNL     1      50.668   4.900  18.194  0.00  0.00    +0.000 A 
ATOM     11  C   UNL     1      51.224   4.736  19.467  0.00  0.00    +0.000 A 
ATOM     12  C   UNL     1      50.458   4.995  20.589  0.00  0.00    +0.000 A 
ATOM     13  C   UNL     1      49.130   5.386  20.438  0.00  0.00    +0.000 A 
ATOM     14  C   UNL     1      48.560   5.532  19.160  0.00  0.00    +0.000 A 
ATOM     15 CL   UNL     1      46.873   5.936  19.141  0.00  0.00    +0.000 Cl
ENDBRANCH   6   9
BRANCH   1  16
ATOM     16  C   UNL     1      46.383   3.716  13.038  0.00  0.00    +0.000 C 
BRANCH  16  22
ATOM     17  N   UNL     1      43.928   4.503   9.031  0.00  0.00    +0.000 N 
ATOM     18  C   UNL     1      43.967   4.566  10.408  0.00  0.00    +0.000 A 
ATOM     19  N   UNL     1      42.864   4.993  11.024  0.00  0.00    +0.000 NA
ATOM     20  C   UNL     1      42.929   5.068  12.363  0.00  0.00    +0.000 A 
ATOM     21  C   UNL     1      44.042   4.727  13.095  0.00  0.00    +0.000 A 
ATOM     22  C   UNL     1      45.137   4.287  12.375  0.00  0.00    +0.000 A 
ATOM     23  N   UNL     1      45.104   4.227  11.021  0.00  0.00    +0.000 NA
ATOM     24  H   UNL     1      43.175   5.090   8.698  0.00  0.00    +0.000 HD
ATOM     25  H   UNL     1      44.850   4.679   8.659  0.00  0.00    +0.000 HD
ENDBRANCH  16  22
ENDBRANCH   1  16
TORSDOF 3
ENDMDL
MODEL 6
REMARK VINA RESULT:    -6.790      4.194      9.139
REMARK INTER + INTRA:          -8.170
REMARK INTER:                  -7.670
REMARK INTRA:                  -0.500
REMARK UNBOUND:                -0.190
REMARK  Name = 
REMARK  3 active torsions:
REMARK  status: ('A' for Active; 'I' for Inactive)
REMARK    1  A    between atoms: C_6  and  C_7
REMARK    2  A    between atoms: C_7  and  N_8
REMARK    3  A    between atoms: C_13  and  C_14
REMARK                            x       y       z     vdW  Elec       q    Type
REMARK                         _______ _______ _______ _____ _____    ______ ____
ROOT
ATOM      1  N   UNL     1      46.251   3.974  14.398  0.00  0.00    +0.000 N 
ATOM      2  C   UNL     1      47.133   4.919  14.878  0.00  0.00    +0.000 A 
ATOM      3  N   UNL     1      47.580   5.888  14.075  0.00  0.00    +0.000 NA
ATOM      4  C   UNL     1      48.542   6.684  14.558  0.00  0.00    +0.000 A 
ATOM      5  C   UNL     1      49.086   6.535  15.808  0.00  0.00    +0.000 A 
ATOM      6  C   UNL     1      48.535   5.551  16.611  0.00  0.00    +0.000 A 
ATOM      7  N   UNL     1      47.562   4.743  16.134  0.00  0.00    +0.000 NA
ATOM      8  H   UNL     1      46.257   3.162  15.003  0.00  0.00    +0.000 HD
ENDROOT
BRANCH   6   9
ATOM      9  C   UNL     1      48.921   5.386  18.040  0.00  0.00    +0.000 A 
ATOM     10  C   UNL     1      48.005   5.780  19.050  0.00  0.00    +0.000 A 
ATOM     11  C   UNL     1      48.268   5.615  20.414  0.00  0.00    +0.000 A 
ATOM     12  C   UNL     1      49.454   5.030  20.818  0.00  0.00    +0.000 A 
ATOM     13  C   UNL     1      50.388   4.641  19.861  0.00  0.00    +0.000 A 
ATOM     14  C   UNL     1      50.137   4.825  18.489  0.00  0.00    +0.000 A 
ATOM     15 CL   UNL     1      51.434   4.372  17.430  0.00  0.00    +0.000 Cl
ENDBRANCH   6   9
BRANCH   1  16
ATOM     16  C   UNL     1      46.236   3.727  12.963  0.00  0.00    +0.000 C 
BRANCH  16  22
ATOM     17  N   UNL     1      44.045   4.368   8.781  0.00  0.00    +0.000 N 
ATOM     18  C   UNL     1      44.016   4.526  10.151  0.00  0.00    +0.000 A 
ATOM     19  N   UNL     1      42.911   5.059  10.674  0.00  0.00    +0.000 NA
ATOM     20  C   UNL     1      42.910   5.224  12.006  0.00  0.00    +0.000 A 
ATOM     21  C   UNL     1      43.962   4.872  12.820  0.00  0.00    +0.000 A 
ATOM     22  C   UNL     1      45.063   4.321  12.195  0.00  0.00    +0.000 A 
ATOM     23  N   UNL     1      45.097   4.166  10.848  0.00  0.00    +0.000 NA
ATOM     24  H   UNL     1      43.348   4.973   8.367  0.00  0.00    +0.000 HD
ATOM     25  H   UNL     1      44.994   4.464   8.451  0.00  0.00    +0.000 HD
ENDBRANCH  16  22
ENDBRANCH   1  16
TORSDOF 3
ENDMDL
MODEL 7
REMARK VINA RESULT:    -6.578      3.265      8.028
REMARK INTER + INTRA:          -7.921
REMARK INTER:                  -7.509
REMARK INTRA:                  -0.412
REMARK UNBOUND:                -0.190
REMARK  Name = 
REMARK  3 active torsions:
REMARK  status: ('A' for Active; 'I' for Inactive)
REMARK    1  A    between atoms: C_6  and  C_7
REMARK    2  A    between atoms: C_7  and  N_8
REMARK    3  A    between atoms: C_13  and  C_14
REMARK                            x       y       z     vdW  Elec       q    Type
REMARK                         _______ _______ _______ _____ _____    ______ ____
ROOT
ATOM      1  N   UNL     1      45.790   5.313  11.959  0.00  0.00    +0.000 N 
ATOM      2  C   UNL     1      46.243   6.422  12.641  0.00  0.00    +0.000 A 
ATOM      3  N   UNL     1      45.674   7.613  12.438  0.00  0.00    +0.000 NA
ATOM      4  C   UNL     1      46.253   8.672  13.019  0.00  0.00    +0.000 A 
ATOM      5  C   UNL     1      47.390   8.584  13.781  0.00  0.00    +0.000 A 
ATOM      6  C   UNL     1      47.893   7.314  14.002  0.00  0.00    +0.000 A 
ATOM      7  N   UNL     1      47.315   6.238  13.422  0.00  0.00    +0.000 NA
ATOM      8  H   UNL     1      46.495   4.588  11.979  0.00  0.00    +0.000 HD
ENDROOT
BRANCH   6   9
ATOM      9  C   UNL     1      49.025   7.061  14.936  0.00  0.00    +0.000 A 
ATOM     10  C   UNL     1      48.799   6.270  16.092  0.00  0.00    +0.000 A 
ATOM     11  C   UNL     1      49.816   5.943  16.995  0.00  0.00    +0.000 A 
ATOM     12  C   UNL     1      51.107   6.384  16.762  0.00  0.00    +0.000 A 
ATOM     13  C   UNL     1      51.371   7.174  15.647  0.00  0.00    +0.000 A 
ATOM     14  C   UNL     1      50.346   7.522  14.748  0.00  0.00    +0.000 A 
ATOM     15 CL   UNL     1      50.818   8.586  13.461  0.00  0.00    +0.000 Cl
ENDBRANCH   6   9
BRANCH   1  16
ATOM     16  C   UNL     1      45.101   5.530  10.695  0.00  0.00    +0.000 C 
BRANCH  16  22
ATOM     17  N   UNL     1      46.831   4.004   6.526  0.00  0.00    +0.000 N 
ATOM     18  C   UNL     1      46.143   3.706   7.684  0.00  0.00    +0.000 A 
ATOM     19  N   UNL     1      45.760   2.440   7.850  0.00  0.00    +0.000 NA
ATOM     20  C   UNL     1      45.073   2.175   8.973  0.00  0.00    +0.000 A 
ATOM     21  C   UNL     1      44.767   3.122   9.923  0.00  0.00    +0.000 A 
ATOM     22  C   UNL     1      45.209   4.406   9.672  0.00  0.00    +0.000 A 
ATOM     23  N   UNL     1      45.884   4.703   8.534  0.00  0.00    +0.000 NA
ATOM     24  H   UNL     1      46.659   3.275   5.847  0.00  0.00    +0.000 HD
ATOM     25  H   UNL     1      46.629   4.952   6.247  0.00  0.00    +0.000 HD
ENDBRANCH  16  22
ENDBRANCH   1  16
TORSDOF 3
ENDMDL
MODEL 8
REMARK VINA RESULT:    -6.543      4.097      7.197
REMARK INTER + INTRA:          -7.880
REMARK INTER:                  -7.309
REMARK INTRA:                  -0.572
REMARK UNBOUND:                -0.190
REMARK  Name = 
REMARK  3 active torsions:
REMARK  status: ('A' for Active; 'I' for Inactive)
REMARK    1  A    between atoms: C_6  and  C_7
REMARK    2  A    between atoms: C_7  and  N_8
REMARK    3  A    between atoms: C_13  and  C_14
REMARK                            x       y       z     vdW  Elec       q    Type
REMARK                         _______ _______ _______ _____ _____    ______ ____
ROOT
ATOM      1  N   UNL     1      45.889   6.255  13.307  0.00  0.00    +0.000 N 
ATOM      2  C   UNL     1      46.542   7.418  12.958  0.00  0.00    +0.000 A 
ATOM      3  N   UNL     1      45.854   8.553  12.805  0.00  0.00    +0.000 NA
ATOM      4  C   UNL     1      46.521   9.610  12.325  0.00  0.00    +0.000 A 
ATOM      5  C   UNL     1      47.847   9.568  11.976  0.00  0.00    +0.000 A 
ATOM      6  C   UNL     1      48.515   8.380  12.217  0.00  0.00    +0.000 A 
ATOM      7  N   UNL     1      47.852   7.307  12.704  0.00  0.00    +0.000 NA
ATOM      8  H   UNL     1      46.469   5.457  13.080  0.00  0.00    +0.000 HD
ENDROOT
BRANCH   6   9
ATOM      9  C   UNL     1      49.987   8.247  12.034  0.00  0.00    +0.000 A 
ATOM     10  C   UNL     1      50.482   7.659  10.841  0.00  0.00    +0.000 A 
ATOM     11  C   UNL     1      51.849   7.542  10.567  0.00  0.00    +0.000 A 
ATOM     12  C   UNL     1      52.774   8.027  11.474  0.00  0.00    +0.000 A 
ATOM     13  C   UNL     1      52.333   8.600  12.663  0.00  0.00    +0.000 A 
ATOM     14  C   UNL     1      50.960   8.701  12.952  0.00  0.00    +0.000 A 
ATOM     15 CL   UNL     1      50.575   9.356  14.512  0.00  0.00    +0.000 Cl
ENDBRANCH   6   9
BRANCH   1  16
ATOM     16  C   UNL     1      44.471   6.152  12.993  0.00  0.00    +0.000 C 
BRANCH  16  22
ATOM     17  N   UNL     1      44.200   4.265   8.626  0.00  0.00    +0.000 N 
ATOM     18  C   UNL     1      44.035   4.093   9.985  0.00  0.00    +0.000 A 
ATOM     19  N   UNL     1      43.665   2.882  10.400  0.00  0.00    +0.000 NA
ATOM     20  C   UNL     1      43.488   2.741  11.724  0.00  0.00    +0.000 A 
ATOM     21  C   UNL     1      43.674   3.757  12.632  0.00  0.00    +0.000 A 
ATOM     22  C   UNL     1      44.064   4.977  12.114  0.00  0.00    +0.000 A 
ATOM     23  N   UNL     1      44.225   5.150  10.779  0.00  0.00    +0.000 NA
ATOM     24  H   UNL     1      43.709   3.526   8.141  0.00  0.00    +0.000 HD
ATOM     25  H   UNL     1      43.970   5.215   8.375  0.00  0.00    +0.000 HD
ENDBRANCH  16  22
ENDBRANCH   1  16
TORSDOF 3
ENDMDL
MODEL 9
REMARK VINA RESULT:    -6.488      4.068      5.860
REMARK INTER + INTRA:          -7.815
REMARK INTER:                  -7.194
REMARK INTRA:                  -0.621
REMARK UNBOUND:                -0.190
REMARK  Name = 
REMARK  3 active torsions:
REMARK  status: ('A' for Active; 'I' for Inactive)
REMARK    1  A    between atoms: C_6  and  C_7
REMARK    2  A    between atoms: C_7  and  N_8
REMARK    3  A    between atoms: C_13  and  C_14
REMARK                            x       y       z     vdW  Elec       q    Type
REMARK                         _______ _______ _______ _____ _____    ______ ____
ROOT
ATOM      1  N   UNL     1      44.102   9.344  11.513  0.00  0.00    +0.000 N 
ATOM      2  C   UNL     1      44.843   8.225  11.831  0.00  0.00    +0.000 A 
ATOM      3  N   UNL     1      45.767   8.285  12.794  0.00  0.00    +0.000 NA
ATOM      4  C   UNL     1      46.550   7.210  12.954  0.00  0.00    +0.000 A 
ATOM      5  C   UNL     1      46.453   6.086  12.175  0.00  0.00    +0.000 A 
ATOM      6  C   UNL     1      45.435   6.065  11.238  0.00  0.00    +0.000 A 
ATOM      7  N   UNL     1      44.637   7.144  11.069  0.00  0.00    +0.000 NA
ATOM      8  H   UNL     1      43.692   9.231  10.595  0.00  0.00    +0.000 HD
ENDROOT
BRANCH   6   9
ATOM      9  C   UNL     1      45.118   4.849  10.438  0.00  0.00    +0.000 A 
ATOM     10  C   UNL     1      45.543   4.786   9.085  0.00  0.00    +0.000 A 
ATOM     11  C   UNL     1      45.330   3.662   8.279  0.00  0.00    +0.000 A 
ATOM     12  C   UNL     1      44.699   2.550   8.806  0.00  0.00    +0.000 A 
ATOM     13  C   UNL     1      44.254   2.573  10.125  0.00  0.00    +0.000 A 
ATOM     14  C   UNL     1      44.447   3.709  10.933  0.00  0.00    +0.000 A 
ATOM     15 CL   UNL     1      43.757   3.616  12.521  0.00  0.00    +0.000 Cl
ENDBRANCH   6   9
BRANCH   1  16
ATOM     16  C   UNL     1      44.671  10.646  11.828  0.00  0.00    +0.000 C 
BRANCH  16  22
ATOM     17  N   UNL     1      48.672  12.325   9.861  0.00  0.00    +0.000 N 
ATOM     18  C   UNL     1      47.317  12.101   9.741  0.00  0.00    +0.000 A 
ATOM     19  N   UNL     1      46.751  12.431   8.579  0.00  0.00    +0.000 NA
ATOM     20  C   UNL     1      45.427  12.226   8.489  0.00  0.00    +0.000 A 
ATOM     21  C   UNL     1      44.664  11.703   9.508  0.00  0.00    +0.000 A 
ATOM     22  C   UNL     1      45.334  11.384  10.673  0.00  0.00    +0.000 A 
ATOM     23  N   UNL     1      46.666  11.605  10.796  0.00  0.00    +0.000 NA
ATOM     24  H   UNL     1      48.957  12.994   9.158  0.00  0.00    +0.000 HD
ATOM     25  H   UNL     1      48.895  12.542  10.821  0.00  0.00    +0.000 HD
ENDBRANCH  16  22
ENDBRANCH   1  16
TORSDOF 3
ENDMDL
