MODEL 1
REMARK VINA RESULT:    -6.639      0.000      0.000
REMARK INTER + INTRA:          -9.637
REMARK INTER:                  -8.579
REMARK INTRA:                  -1.058
REMARK UNBOUND:                -1.058
REMARK  Name = 
REMARK  5 active torsions:
REMARK  status: ('A' for Active; 'I' for Inactive)
REMARK    1  A    between atoms: C_2  and  C_4
REMARK    2  A    between atoms: C_10  and  O_11
REMARK    3  A    between atoms: O_11  and  C_12
REMARK    4  A    between atoms: C_12  and  C_13
REMARK    5  A    between atoms: C_17  and  N_18
REMARK                            x       y       z     vdW  Elec       q    Type
REMARK                         _______ _______ _______ _____ _____    ______ ____
ROOT
ATOM      1  O   UNL     1      49.238   6.164  15.257  0.00  0.00    +0.000 OA
ENDROOT
BRANCH   1   8
ATOM      2  C   UNL     1      48.139   5.246  17.116  0.00  0.00    +0.000 A 
ATOM      3  C   UNL     1      47.595   5.312  18.414  0.00  0.00    +0.000 A 
ATOM      4  C   UNL     1      47.617   6.498  19.133  0.00  0.00    +0.000 A 
ATOM      5  C   UNL     1      48.201   7.620  18.566  0.00  0.00    +0.000 A 
ATOM      6  C   UNL     1      48.767   7.576  17.277  0.00  0.00    +0.000 A 
ATOM      7 CL   UNL     1      49.463   9.083  16.785  0.00  0.00    +0.000 Cl
ATOM      8  C   UNL     1      48.741   6.384  16.519  0.00  0.00    +0.000 A 
BRANCH   2  10
ATOM      9  N   UNL     1      46.961   3.680  15.641  0.00  0.00    +0.000 N 
ATOM     10  C   UNL     1      48.028   3.906  16.461  0.00  0.00    +0.000 C 
ATOM     11  O   UNL     1      48.848   3.020  16.671  0.00  0.00    +0.000 OA
ATOM     12  H   UNL     1      46.972   2.824  15.103  0.00  0.00    +0.000 HD
ATOM     13  H   UNL     1      46.423   4.460  15.287  0.00  0.00    +0.000 HD
ENDBRANCH   2  10
ENDBRANCH   1   8
BRANCH   1  14
ATOM     14  C   UNL     1      49.142   7.152  14.239  0.00  0.00    +0.000 C 
BRANCH  14  15
ATOM     15  C   UNL     1      47.744   7.181  13.663  0.00  0.00    +0.000 A 
ATOM     16  C   UNL     1      47.019   8.375  13.599  0.00  0.00    +0.000 A 
ATOM     17  C   UNL     1      45.786   8.404  12.956  0.00  0.00    +0.000 A 
ATOM     18  C   UNL     1      45.282   7.245  12.356  0.00  0.00    +0.000 A 
ATOM     19  C   UNL     1      45.976   6.027  12.389  0.00  0.00    +0.000 A 
ATOM     20  C   UNL     1      47.201   6.023  13.071  0.00  0.00    +0.000 A 
BRANCH  19  21
ATOM     21  N   UNL     1      45.482   4.901  11.763  0.00  0.00    +0.000 N 
ATOM     22  C   UNL     1      45.073   4.863  10.351  0.00  0.00    +0.000 C 
ATOM     23  C   UNL     1      43.603   4.433  10.238  0.00  0.00    +0.000 C 
ATOM     24  O   UNL     1      43.368   3.179  10.902  0.00  0.00    +0.000 OA
ATOM     25  C   UNL     1      43.701   3.284  12.296  0.00  0.00    +0.000 C 
ATOM     26  C   UNL     1      45.177   3.669  12.507  0.00  0.00    +0.000 C 
ENDBRANCH  19  21
ENDBRANCH  14  15
ENDBRANCH   1  14
TORSDOF 5
ENDMDL
MODEL 2
REMARK VINA RESULT:    -6.588      2.097      3.164
REMARK INTER + INTRA:          -9.571
REMARK INTER:                  -8.665
REMARK INTRA:                  -0.907
REMARK UNBOUND:                -1.058
REMARK  Name = 
REMARK  5 active torsions:
REMARK  status: ('A' for Active; 'I' for Inactive)
REMARK    1  A    between atoms: C_2  and  C_4
REMARK    2  A    between atoms: C_10  and  O_11
REMARK    3  A    between atoms: O_11  and  C_12
REMARK    4  A    between atoms: C_12  and  C_13
REMARK    5  A    between atoms: C_17  and  N_18
REMARK                            x       y       z     vdW  Elec       q    Type
REMARK                         _______ _______ _______ _____ _____    ______ ____
ROOT
ATOM      1  O   UNL     1      47.660   5.364  13.989  0.00  0.00    +0.000 OA
ENDROOT
BRANCH   1   8
ATOM      2  C   UNL     1      48.009   5.110  16.296  0.00  0.00    +0.000 A 
ATOM      3  C   UNL     1      48.476   5.544  17.551  0.00  0.00    +0.000 A 
ATOM      4  C   UNL     1      49.072   6.788  17.696  0.00  0.00    +0.000 A 
ATOM      5  C   UNL     1      49.222   7.598  16.580  0.00  0.00    +0.000 A 
ATOM      6  C   UNL     1      48.778   7.180  15.311  0.00  0.00    +0.000 A 
ATOM      7 CL   UNL     1      49.093   8.339  14.063  0.00  0.00    +0.000 Cl
ATOM      8  C   UNL     1      48.152   5.926  15.143  0.00  0.00    +0.000 A 
BRANCH   2  10
ATOM      9  N   UNL     1      47.698   2.894  15.294  0.00  0.00    +0.000 N 
ATOM     10  C   UNL     1      47.376   3.755  16.300  0.00  0.00    +0.000 C 
ATOM     11  O   UNL     1      46.567   3.429  17.162  0.00  0.00    +0.000 OA
ATOM     12  H   UNL     1      47.370   1.941  15.384  0.00  0.00    +0.000 HD
ATOM     13  H   UNL     1      48.519   3.064  14.728  0.00  0.00    +0.000 HD
ENDBRANCH   2  10
ENDBRANCH   1   8
BRANCH   1  14
ATOM     14  C   UNL     1      46.696   6.037  13.189  0.00  0.00    +0.000 C 
BRANCH  14  15
ATOM     15  C   UNL     1      45.657   5.062  12.684  0.00  0.00    +0.000 A 
ATOM     16  C   UNL     1      44.534   4.748  13.454  0.00  0.00    +0.000 A 
ATOM     17  C   UNL     1      43.530   3.945  12.921  0.00  0.00    +0.000 A 
ATOM     18  C   UNL     1      43.636   3.470  11.609  0.00  0.00    +0.000 A 
ATOM     19  C   UNL     1      44.741   3.765  10.798  0.00  0.00    +0.000 A 
ATOM     20  C   UNL     1      45.749   4.550  11.373  0.00  0.00    +0.000 A 
BRANCH  19  21
ATOM     21  N   UNL     1      44.813   3.318   9.495  0.00  0.00    +0.000 N 
ATOM     22  C   UNL     1      44.783   1.898   9.112  0.00  0.00    +0.000 C 
ATOM     23  C   UNL     1      46.050   1.535   8.325  0.00  0.00    +0.000 C 
ATOM     24  O   UNL     1      46.228   2.396   7.186  0.00  0.00    +0.000 OA
ATOM     25  C   UNL     1      46.337   3.765   7.611  0.00  0.00    +0.000 C 
ATOM     26  C   UNL     1      45.084   4.233   8.374  0.00  0.00    +0.000 C 
ENDBRANCH  19  21
ENDBRANCH  14  15
ENDBRANCH   1  14
TORSDOF 5
ENDMDL
MODEL 3
REMARK VINA RESULT:    -6.512      1.524      1.955
REMARK INTER + INTRA:          -9.474
REMARK INTER:                  -8.519
REMARK INTRA:                  -0.955
REMARK UNBOUND:                -1.058
REMARK  Name = 
REMARK  5 active torsions:
REMARK  status: ('A' for Active; 'I' for Inactive)
REMARK    1  A    between atoms: C_2  and  C_4
REMARK    2  A    between atoms: C_10  and  O_11
REMARK    3  A    between atoms: O_11  and  C_12
REMARK    4  A    between atoms: C_12  and  C_13
REMARK    5  A    between atoms: C_17  and  N_18
REMARK                            x       y       z     vdW  Elec       q    Type
REMARK                         _______ _______ _______ _____ _____    ______ ____
ROOT
ATOM      1  O   UNL     1      48.029   6.305  15.414  0.00  0.00    +0.000 OA
ENDROOT
BRANCH   1   8
ATOM      2  C   UNL     1      48.665   4.478  16.743  0.00  0.00    +0.000 A 
ATOM      3  C   UNL     1      49.554   3.790  17.592  0.00  0.00    +0.000 A 
ATOM      4  C   UNL     1      50.759   4.363  17.971  0.00  0.00    +0.000 A 
ATOM      5  C   UNL     1      51.091   5.619  17.487  0.00  0.00    +0.000 A 
ATOM      6  C   UNL     1      50.228   6.320  16.624  0.00  0.00    +0.000 A 
ATOM      7 CL   UNL     1      50.859   7.854  16.125  0.00  0.00    +0.000 Cl
ATOM      8  C   UNL     1      48.988   5.765  16.238  0.00  0.00    +0.000 A 
BRANCH   2  10
ATOM      9  N   UNL     1      47.110   3.484  15.129  0.00  0.00    +0.000 N 
ATOM     10  C   UNL     1      47.400   3.742  16.436  0.00  0.00    +0.000 C 
ATOM     11  O   UNL     1      46.626   3.401  17.323  0.00  0.00    +0.000 OA
ATOM     12  H   UNL     1      46.326   2.871  14.947  0.00  0.00    +0.000 HD
ATOM     13  H   UNL     1      47.836   3.551  14.428  0.00  0.00    +0.000 HD
ENDBRANCH   2  10
ENDBRANCH   1   8
BRANCH   1  14
ATOM     14  C   UNL     1      48.310   6.617  14.056  0.00  0.00    +0.000 C 
BRANCH  14  15
ATOM     15  C   UNL     1      47.044   7.031  13.339  0.00  0.00    +0.000 A 
ATOM     16  C   UNL     1      46.889   8.333  12.852  0.00  0.00    +0.000 A 
ATOM     17  C   UNL     1      45.772   8.659  12.090  0.00  0.00    +0.000 A 
ATOM     18  C   UNL     1      44.816   7.680  11.793  0.00  0.00    +0.000 A 
ATOM     19  C   UNL     1      44.934   6.361  12.253  0.00  0.00    +0.000 A 
ATOM     20  C   UNL     1      46.054   6.071  13.044  0.00  0.00    +0.000 A 
BRANCH  19  21
ATOM     21  N   UNL     1      44.002   5.400  11.923  0.00  0.00    +0.000 N 
ATOM     22  C   UNL     1      43.325   4.542  12.908  0.00  0.00    +0.000 C 
ATOM     23  C   UNL     1      43.589   3.063  12.591  0.00  0.00    +0.000 C 
ATOM     24  O   UNL     1      43.210   2.737  11.242  0.00  0.00    +0.000 OA
ATOM     25  C   UNL     1      43.955   3.538  10.309  0.00  0.00    +0.000 C 
ATOM     26  C   UNL     1      43.714   5.044  10.524  0.00  0.00    +0.000 C 
ENDBRANCH  19  21
ENDBRANCH  14  15
ENDBRANCH   1  14
TORSDOF 5
ENDMDL
MODEL 4
REMARK VINA RESULT:    -6.330      4.232      5.867
REMARK INTER + INTRA:          -9.239
REMARK INTER:                  -8.184
REMARK INTRA:                  -1.054
REMARK UNBOUND:                -1.058
REMARK  Name = 
REMARK  5 active torsions:
REMARK  status: ('A' for Active; 'I' for Inactive)
REMARK    1  A    between atoms: C_2  and  C_4
REMARK    2  A    between atoms: C_10  and  O_11
REMARK    3  A    between atoms: O_11  and  C_12
REMARK    4  A    between atoms: C_12  and  C_13
REMARK    5  A    between atoms: C_17  and  N_18
REMARK                            x       y       z     vdW  Elec       q    Type
REMARK                         _______ _______ _______ _____ _____    ______ ____
ROOT
ATOM      1  O   UNL     1      45.909   7.624  11.804  0.00  0.00    +0.000 OA
ENDROOT
BRANCH   1   8
ATOM      2  C   UNL     1      46.417   9.914  11.712  0.00  0.00    +0.000 A 
ATOM      3  C   UNL     1      47.304  11.006  11.746  0.00  0.00    +0.000 A 
ATOM      4  C   UNL     1      48.670  10.807  11.893  0.00  0.00    +0.000 A 
ATOM      5  C   UNL     1      49.152   9.515  12.024  0.00  0.00    +0.000 A 
ATOM      6  C   UNL     1      48.284   8.406  12.010  0.00  0.00    +0.000 A 
ATOM      7 CL   UNL     1      49.103   6.894  12.219  0.00  0.00    +0.000 Cl
ATOM      8  C   UNL     1      46.893   8.583  11.845  0.00  0.00    +0.000 A 
BRANCH   2  10
ATOM      9  N   UNL     1      44.120  10.037  12.563  0.00  0.00    +0.000 N 
ATOM     10  C   UNL     1      44.979  10.284  11.533  0.00  0.00    +0.000 C 
ATOM     11  O   UNL     1      44.568  10.768  10.484  0.00  0.00    +0.000 OA
ATOM     12  H   UNL     1      43.185  10.414  12.481  0.00  0.00    +0.000 HD
ATOM     13  H   UNL     1      44.483   9.861  13.491  0.00  0.00    +0.000 HD
ENDBRANCH   2  10
ENDBRANCH   1   8
BRANCH   1  14
ATOM     14  C   UNL     1      45.619   6.810  12.932  0.00  0.00    +0.000 C 
BRANCH  14  15
ATOM     15  C   UNL     1      44.964   5.518  12.496  0.00  0.00    +0.000 A 
ATOM     16  C   UNL     1      44.018   4.884  13.307  0.00  0.00    +0.000 A 
ATOM     17  C   UNL     1      43.339   3.766  12.835  0.00  0.00    +0.000 A 
ATOM     18  C   UNL     1      43.587   3.289  11.543  0.00  0.00    +0.000 A 
ATOM     19  C   UNL     1      44.521   3.897  10.692  0.00  0.00    +0.000 A 
ATOM     20  C   UNL     1      45.211   5.003  11.207  0.00  0.00    +0.000 A 
BRANCH  19  21
ATOM     21  N   UNL     1      44.729   3.437   9.408  0.00  0.00    +0.000 N 
ATOM     22  C   UNL     1      44.722   2.014   9.037  0.00  0.00    +0.000 C 
ATOM     23  C   UNL     1      46.063   1.628   8.395  0.00  0.00    +0.000 C 
ATOM     24  O   UNL     1      46.372   2.476   7.274  0.00  0.00    +0.000 OA
ATOM     25  C   UNL     1      46.452   3.848   7.696  0.00  0.00    +0.000 C 
ATOM     26  C   UNL     1      45.130   4.337   8.315  0.00  0.00    +0.000 C 
ENDBRANCH  19  21
ENDBRANCH  14  15
ENDBRANCH   1  14
TORSDOF 5
ENDMDL
MODEL 5
REMARK VINA RESULT:    -6.206      1.993      3.015
REMARK INTER + INTRA:          -9.077
REMARK INTER:                  -7.931
REMARK INTRA:                  -1.147
REMARK UNBOUND:                -1.058
REMARK  Name = 
REMARK  5 active torsions:
REMARK  status: ('A' for Active; 'I' for Inactive)
REMARK    1  A    between atoms: C_2  and  C_4
REMARK    2  A    between atoms: C_10  and  O_11
REMARK    3  A    between atoms: O_11  and  C_12
REMARK    4  A    between atoms: C_12  and  C_13
REMARK    5  A    between atoms: C_17  and  N_18
REMARK                            x       y       z     vdW  Elec       q    Type
REMARK                         _______ _______ _______ _____ _____    ______ ____
ROOT
ATOM      1  O   UNL     1      48.847   5.706  17.056  0.00  0.00    +0.000 OA
ENDROOT
BRANCH   1   8
ATOM      2  C   UNL     1      49.227   3.397  16.869  0.00  0.00    +0.000 A 
ATOM      3  C   UNL     1      50.014   2.238  17.009  0.00  0.00    +0.000 A 
ATOM      4  C   UNL     1      51.289   2.306  17.553  0.00  0.00    +0.000 A 
ATOM      5  C   UNL     1      51.790   3.538  17.943  0.00  0.00    +0.000 A 
ATOM      6  C   UNL     1      51.030   4.715  17.798  0.00  0.00    +0.000 A 
ATOM      7 CL   UNL     1      51.866   6.137  18.325  0.00  0.00    +0.000 Cl
ATOM      8  C   UNL     1      49.724   4.667  17.263  0.00  0.00    +0.000 A 
BRANCH   2  10
ATOM      9  N   UNL     1      46.789   3.285  17.101  0.00  0.00    +0.000 N 
ATOM     10  C   UNL     1      47.872   3.164  16.282  0.00  0.00    +0.000 C 
ATOM     11  O   UNL     1      47.730   2.842  15.107  0.00  0.00    +0.000 OA
ATOM     12  H   UNL     1      45.877   3.258  16.662  0.00  0.00    +0.000 HD
ATOM     13  H   UNL     1      46.877   3.766  17.986  0.00  0.00    +0.000 HD
ENDBRANCH   2  10
ENDBRANCH   1   8
BRANCH   1  14
ATOM     14  C   UNL     1      49.281   6.945  16.511  0.00  0.00    +0.000 C 
BRANCH  14  15
ATOM     15  C   UNL     1      48.920   7.032  15.045  0.00  0.00    +0.000 A 
ATOM     16  C   UNL     1      49.846   7.491  14.104  0.00  0.00    +0.000 A 
ATOM     17  C   UNL     1      49.536   7.448  12.749  0.00  0.00    +0.000 A 
ATOM     18  C   UNL     1      48.308   6.927  12.327  0.00  0.00    +0.000 A 
ATOM     19  C   UNL     1      47.351   6.449  13.234  0.00  0.00    +0.000 A 
ATOM     20  C   UNL     1      47.680   6.534  14.594  0.00  0.00    +0.000 A 
BRANCH  19  21
ATOM     21  N   UNL     1      46.160   5.906  12.801  0.00  0.00    +0.000 N 
ATOM     22  C   UNL     1      45.508   4.750  13.435  0.00  0.00    +0.000 C 
ATOM     23  C   UNL     1      45.320   3.621  12.411  0.00  0.00    +0.000 C 
ATOM     24  O   UNL     1      44.601   4.077  11.251  0.00  0.00    +0.000 OA
ATOM     25  C   UNL     1      45.313   5.150  10.614  0.00  0.00    +0.000 C 
ATOM     26  C   UNL     1      45.509   6.351  11.558  0.00  0.00    +0.000 C 
ENDBRANCH  19  21
ENDBRANCH  14  15
ENDBRANCH   1  14
TORSDOF 5
ENDMDL
MODEL 6
REMARK VINA RESULT:    -6.135      2.359      7.226
REMARK INTER + INTRA:          -8.986
REMARK INTER:                  -7.895
REMARK INTRA:                  -1.090
REMARK UNBOUND:                -1.058
REMARK  Name = 
REMARK  5 active torsions:
REMARK  status: ('A' for Active; 'I' for Inactive)
REMARK    1  A    between atoms: C_2  and  C_4
REMARK    2  A    between atoms: C_10  and  O_11
REMARK    3  A    between atoms: O_11  and  C_12
REMARK    4  A    between atoms: C_12  and  C_13
REMARK    5  A    between atoms: C_17  and  N_18
REMARK                            x       y       z     vdW  Elec       q    Type
REMARK                         _______ _______ _______ _____ _____    ______ ____
ROOT
ATOM      1  O   UNL     1      46.120   4.482  14.427  0.00  0.00    +0.000 OA
ENDROOT
BRANCH   1   8
ATOM      2  C   UNL     1      44.925   4.988  12.472  0.00  0.00    +0.000 A 
ATOM      3  C   UNL     1      44.743   5.661  11.248  0.00  0.00    +0.000 A 
ATOM      4  C   UNL     1      45.708   6.534  10.769  0.00  0.00    +0.000 A 
ATOM      5  C   UNL     1      46.852   6.754  11.520  0.00  0.00    +0.000 A 
ATOM      6  C   UNL     1      47.050   6.106  12.754  0.00  0.00    +0.000 A 
ATOM      7 CL   UNL     1      48.533   6.552  13.530  0.00  0.00    +0.000 Cl
ATOM      8  C   UNL     1      46.090   5.199  13.255  0.00  0.00    +0.000 A 
BRANCH   2  10
ATOM      9  N   UNL     1      43.981   2.731  12.646  0.00  0.00    +0.000 N 
ATOM     10  C   UNL     1      43.807   4.068  12.849  0.00  0.00    +0.000 C 
ATOM     11  O   UNL     1      42.751   4.495  13.301  0.00  0.00    +0.000 OA
ATOM     12  H   UNL     1      43.276   2.114  13.029  0.00  0.00    +0.000 HD
ATOM     13  H   UNL     1      44.910   2.359  12.498  0.00  0.00    +0.000 HD
ENDBRANCH   2  10
ENDBRANCH   1   8
BRANCH   1  14
ATOM     14  C   UNL     1      47.080   3.456  14.644  0.00  0.00    +0.000 C 
BRANCH  14  15
ATOM     15  C   UNL     1      47.733   3.623  15.998  0.00  0.00    +0.000 A 
ATOM     16  C   UNL     1      48.487   2.590  16.562  0.00  0.00    +0.000 A 
ATOM     17  C   UNL     1      49.179   2.807  17.750  0.00  0.00    +0.000 A 
ATOM     18  C   UNL     1      49.136   4.062  18.367  0.00  0.00    +0.000 A 
ATOM     19  C   UNL     1      48.398   5.128  17.834  0.00  0.00    +0.000 A 
ATOM     20  C   UNL     1      47.687   4.870  16.653  0.00  0.00    +0.000 A 
BRANCH  19  21
ATOM     21  N   UNL     1      48.394   6.370  18.435  0.00  0.00    +0.000 N 
ATOM     22  C   UNL     1      49.546   7.284  18.434  0.00  0.00    +0.000 C 
ATOM     23  C   UNL     1      49.957   7.619  19.875  0.00  0.00    +0.000 C 
ATOM     24  O   UNL     1      48.851   8.146  20.629  0.00  0.00    +0.000 OA
ATOM     25  C   UNL     1      47.780   7.189  20.676  0.00  0.00    +0.000 C 
ATOM     26  C   UNL     1      47.270   6.826  19.269  0.00  0.00    +0.000 C 
ENDBRANCH  19  21
ENDBRANCH  14  15
ENDBRANCH   1  14
TORSDOF 5
ENDMDL
MODEL 7
REMARK VINA RESULT:    -6.070      2.725      6.600
REMARK INTER + INTRA:          -8.903
REMARK INTER:                  -8.097
REMARK INTRA:                  -0.806
REMARK UNBOUND:                -1.058
REMARK  Name = 
REMARK  5 active torsions:
REMARK  status: ('A' for Active; 'I' for Inactive)
REMARK    1  A    between atoms: C_2  and  C_4
REMARK    2  A    between atoms: C_10  and  O_11
REMARK    3  A    between atoms: O_11  and  C_12
REMARK    4  A    between atoms: C_12  and  C_13
REMARK    5  A    between atoms: C_17  and  N_18
REMARK                            x       y       z     vdW  Elec       q    Type
REMARK                         _______ _______ _______ _____ _____    ______ ____
ROOT
ATOM      1  O   UNL     1      45.014   6.130  11.276  0.00  0.00    +0.000 OA
ENDROOT
BRANCH   1   8
ATOM      2  C   UNL     1      43.981   4.047  11.598  0.00  0.00    +0.000 A 
ATOM      3  C   UNL     1      43.659   2.731  11.214  0.00  0.00    +0.000 A 
ATOM      4  C   UNL     1      44.149   2.198  10.031  0.00  0.00    +0.000 A 
ATOM      5  C   UNL     1      44.946   2.985   9.215  0.00  0.00    +0.000 A 
ATOM      6  C   UNL     1      45.268   4.309   9.568  0.00  0.00    +0.000 A 
ATOM      7 CL   UNL     1      46.252   5.110   8.388  0.00  0.00    +0.000 Cl
ATOM      8  C   UNL     1      44.797   4.868  10.776  0.00  0.00    +0.000 A 
BRANCH   2  10
ATOM      9  N   UNL     1      42.798   5.701  12.969  0.00  0.00    +0.000 N 
ATOM     10  C   UNL     1      43.394   4.477  12.905  0.00  0.00    +0.000 C 
ATOM     11  O   UNL     1      43.468   3.769  13.904  0.00  0.00    +0.000 OA
ATOM     12  H   UNL     1      42.290   5.919  13.816  0.00  0.00    +0.000 HD
ATOM     13  H   UNL     1      42.532   6.178  12.118  0.00  0.00    +0.000 HD
ENDBRANCH   2  10
ENDBRANCH   1   8
BRANCH   1  14
ATOM     14  C   UNL     1      46.107   6.925  10.835  0.00  0.00    +0.000 C 
BRANCH  14  15
ATOM     15  C   UNL     1      47.219   6.907  11.861  0.00  0.00    +0.000 A 
ATOM     16  C   UNL     1      48.358   7.699  11.697  0.00  0.00    +0.000 A 
ATOM     17  C   UNL     1      49.311   7.761  12.709  0.00  0.00    +0.000 A 
ATOM     18  C   UNL     1      49.118   7.047  13.897  0.00  0.00    +0.000 A 
ATOM     19  C   UNL     1      47.987   6.245  14.108  0.00  0.00    +0.000 A 
ATOM     20  C   UNL     1      47.061   6.179  13.058  0.00  0.00    +0.000 A 
BRANCH  19  21
ATOM     21  N   UNL     1      47.794   5.576  15.299  0.00  0.00    +0.000 N 
ATOM     22  C   UNL     1      48.442   5.951  16.564  0.00  0.00    +0.000 C 
ATOM     23  C   UNL     1      49.261   4.771  17.109  0.00  0.00    +0.000 C 
ATOM     24  O   UNL     1      48.453   3.589  17.248  0.00  0.00    +0.000 OA
ATOM     25  C   UNL     1      47.906   3.209  15.973  0.00  0.00    +0.000 C 
ATOM     26  C   UNL     1      47.029   4.320  15.369  0.00  0.00    +0.000 C 
ENDBRANCH  19  21
ENDBRANCH  14  15
ENDBRANCH   1  14
TORSDOF 5
ENDMDL
MODEL 8
REMARK VINA RESULT:    -5.988      4.724      7.044
REMARK INTER + INTRA:          -8.796
REMARK INTER:                  -7.786
REMARK INTRA:                  -1.011
REMARK UNBOUND:                -1.058
REMARK  Name = 
REMARK  5 active torsions:
REMARK  status: ('A' for Active; 'I' for Inactive)
REMARK    1  A    between atoms: C_2  and  C_4
REMARK    2  A    between atoms: C_10  and  O_11
REMARK    3  A    between atoms: O_11  and  C_12
REMARK    4  A    between atoms: C_12  and  C_13
REMARK    5  A    between atoms: C_17  and  N_18
REMARK                            x       y       z     vdW  Elec       q    Type
REMARK                         _______ _______ _______ _____ _____    ______ ____
ROOT
ATOM      1  O   UNL     1      44.729   6.195  11.142  0.00  0.00    +0.000 OA
ENDROOT
BRANCH   1   8
ATOM      2  C   UNL     1      43.824   4.068  11.550  0.00  0.00    +0.000 A 
ATOM      3  C   UNL     1      43.605   2.713  11.233  0.00  0.00    +0.000 A 
ATOM      4  C   UNL     1      44.175   2.148  10.101  0.00  0.00    +0.000 A 
ATOM      5  C   UNL     1      44.949   2.941   9.269  0.00  0.00    +0.000 A 
ATOM      6  C   UNL     1      45.169   4.302   9.554  0.00  0.00    +0.000 A 
ATOM      7 CL   UNL     1      46.143   5.101   8.364  0.00  0.00    +0.000 Cl
ATOM      8  C   UNL     1      44.615   4.895  10.710  0.00  0.00    +0.000 A 
BRANCH   2  10
ATOM      9  N   UNL     1      42.488   5.716  12.780  0.00  0.00    +0.000 N 
ATOM     10  C   UNL     1      43.160   4.529  12.808  0.00  0.00    +0.000 C 
ATOM     11  O   UNL     1      43.236   3.882  13.847  0.00  0.00    +0.000 OA
ATOM     12  H   UNL     1      41.934   5.947  13.595  0.00  0.00    +0.000 HD
ATOM     13  H   UNL     1      42.228   6.128  11.894  0.00  0.00    +0.000 HD
ENDBRANCH   2  10
ENDBRANCH   1   8
BRANCH   1  14
ATOM     14  C   UNL     1      45.936   6.685  11.710  0.00  0.00    +0.000 C 
BRANCH  14  15
ATOM     15  C   UNL     1      45.892   8.193  11.820  0.00  0.00    +0.000 A 
ATOM     16  C   UNL     1      47.016   8.915  12.232  0.00  0.00    +0.000 A 
ATOM     17  C   UNL     1      46.993  10.306  12.209  0.00  0.00    +0.000 A 
ATOM     18  C   UNL     1      45.855  10.980  11.755  0.00  0.00    +0.000 A 
ATOM     19  C   UNL     1      44.707  10.298  11.325  0.00  0.00    +0.000 A 
ATOM     20  C   UNL     1      44.750   8.898  11.389  0.00  0.00    +0.000 A 
BRANCH  19  21
ATOM     21  N   UNL     1      43.606  10.976  10.846  0.00  0.00    +0.000 N 
ATOM     22  C   UNL     1      43.243  12.342  11.255  0.00  0.00    +0.000 C 
ATOM     23  C   UNL     1      41.829  12.357  11.855  0.00  0.00    +0.000 C 
ATOM     24  O   UNL     1      40.867  11.792  10.946  0.00  0.00    +0.000 OA
ATOM     25  C   UNL     1      41.212  10.431  10.638  0.00  0.00    +0.000 C 
ATOM     26  C   UNL     1      42.604  10.324   9.988  0.00  0.00    +0.000 C 
ENDBRANCH  19  21
ENDBRANCH  14  15
ENDBRANCH   1  14
TORSDOF 5
ENDMDL
MODEL 9
REMARK VINA RESULT:    -5.891      2.836      6.511
REMARK INTER + INTRA:          -8.671
REMARK INTER:                  -7.430
REMARK INTRA:                  -1.240
REMARK UNBOUND:                -1.058
REMARK  Name = 
REMARK  5 active torsions:
REMARK  status: ('A' for Active; 'I' for Inactive)
REMARK    1  A    between atoms: C_2  and  C_4
REMARK    2  A    between atoms: C_10  and  O_11
REMARK    3  A    between atoms: O_11  and  C_12
REMARK    4  A    between atoms: C_12  and  C_13
REMARK    5  A    between atoms: C_17  and  N_18
REMARK                            x       y       z     vdW  Elec       q    Type
REMARK                         _______ _______ _______ _____ _____    ______ ____
ROOT
ATOM      1  O   UNL     1      45.310   6.558  13.302  0.00  0.00    +0.000 OA
ENDROOT
BRANCH   1   8
ATOM      2  C   UNL     1      45.522   4.271  12.816  0.00  0.00    +0.000 A 
ATOM      3  C   UNL     1      45.166   3.094  12.132  0.00  0.00    +0.000 A 
ATOM      4  C   UNL     1      44.173   3.109  11.163  0.00  0.00    +0.000 A 
ATOM      5  C   UNL     1      43.518   4.299  10.888  0.00  0.00    +0.000 A 
ATOM      6  C   UNL     1      43.844   5.487  11.570  0.00  0.00    +0.000 A 
ATOM      7 CL   UNL     1      42.879   6.841  11.084  0.00  0.00    +0.000 Cl
ATOM      8  C   UNL     1      44.863   5.499  12.548  0.00  0.00    +0.000 A 
BRANCH   2  10
ATOM      9  N   UNL     1      46.416   4.585  15.078  0.00  0.00    +0.000 N 
ATOM     10  C   UNL     1      46.619   4.102  13.819  0.00  0.00    +0.000 C 
ATOM     11  O   UNL     1      47.683   3.572  13.521  0.00  0.00    +0.000 OA
ATOM     12  H   UNL     1      47.107   4.344  15.777  0.00  0.00    +0.000 HD
ATOM     13  H   UNL     1      45.480   4.806  15.389  0.00  0.00    +0.000 HD
ENDBRANCH   2  10
ENDBRANCH   1   8
BRANCH   1  14
ATOM     14  C   UNL     1      45.937   7.684  12.701  0.00  0.00    +0.000 C 
BRANCH  14  15
ATOM     15  C   UNL     1      47.441   7.574  12.817  0.00  0.00    +0.000 A 
ATOM     16  C   UNL     1      48.255   7.657  11.684  0.00  0.00    +0.000 A 
ATOM     17  C   UNL     1      49.639   7.676  11.825  0.00  0.00    +0.000 A 
ATOM     18  C   UNL     1      50.214   7.633  13.100  0.00  0.00    +0.000 A 
ATOM     19  C   UNL     1      49.437   7.556  14.264  0.00  0.00    +0.000 A 
ATOM     20  C   UNL     1      48.047   7.507  14.088  0.00  0.00    +0.000 A 
BRANCH  19  21
ATOM     21  N   UNL     1      50.017   7.549  15.516  0.00  0.00    +0.000 N 
ATOM     22  C   UNL     1      51.449   7.308  15.753  0.00  0.00    +0.000 C 
ATOM     23  C   UNL     1      51.634   6.101  16.685  0.00  0.00    +0.000 C 
ATOM     24  O   UNL     1      50.904   6.267  17.913  0.00  0.00    +0.000 OA
ATOM     25  C   UNL     1      49.500   6.415  17.641  0.00  0.00    +0.000 C 
ATOM     26  C   UNL     1      49.214   7.635  16.746  0.00  0.00    +0.000 C 
ENDBRANCH  19  21
ENDBRANCH  14  15
ENDBRANCH   1  14
TORSDOF 5
ENDMDL
