MODEL 1
REMARK VINA RESULT:    -7.532      0.000      0.000
REMARK INTER + INTRA:         -12.272
REMARK INTER:                 -10.614
REMARK INTRA:                  -1.658
REMARK UNBOUND:                -1.658
REMARK  Name = 
REMARK  9 active torsions:
REMARK  status: ('A' for Active; 'I' for Inactive)
REMARK    1  A    between atoms: C_1  and  C_2
REMARK    2  A    between atoms: C_2  and  N_3
REMARK    3  A    between atoms: C_2  and  C_26
REMARK    4  A    between atoms: N_3  and  C_4
REMARK    5  A    between atoms: C_4  and  C_5
REMARK    6  A    between atoms: C_9  and  C_10
REMARK    7  A    between atoms: C_10  and  N_11
REMARK    8  A    between atoms: N_11  and  C_12
REMARK    9  A    between atoms: C_13  and  C_15
REMARK                            x       y       z     vdW  Elec       q    Type
REMARK                         _______ _______ _______ _____ _____    ______ ____
ROOT
ATOM      1  C   UNL     1      46.713   6.049  12.821  0.00  0.00    +0.000 A 
ATOM      2  C   UNL     1      47.014   6.877  11.730  0.00  0.00    +0.000 A 
ATOM      3  C   UNL     1      48.168   7.659  11.721  0.00  0.00    +0.000 A 
ATOM      4  C   UNL     1      49.026   7.651  12.816  0.00  0.00    +0.000 A 
ATOM      5  C   UNL     1      48.714   6.886  13.944  0.00  0.00    +0.000 A 
ATOM      6  C   UNL     1      47.564   6.075  13.934  0.00  0.00    +0.000 A 
ENDROOT
BRANCH   1   7
ATOM      7  C   UNL     1      45.539   5.097  12.743  0.00  0.00    +0.000 C 
BRANCH   7   8
ATOM      8  N   UNL     1      44.625   5.424  11.659  0.00  0.00    +0.000 NA
ATOM      9  H   UNL     1      43.907   6.061  12.008  0.00  0.00    +0.000 HD
BRANCH   8  11
ATOM     10  C   UNL     1      43.745   3.127  12.138  0.00  0.00    +0.000 C 
ATOM     11  C   UNL     1      43.935   4.246  11.103  0.00  0.00    +0.000 C 
BRANCH  11  12
ATOM     12  C   UNL     1      44.731   3.722   9.914  0.00  0.00    +0.000 A 
ATOM     13  C   UNL     1      44.823   2.345   9.661  0.00  0.00    +0.000 A 
ATOM     14  C   UNL     1      45.520   1.877   8.543  0.00  0.00    +0.000 A 
ATOM     15  C   UNL     1      46.133   2.775   7.672  0.00  0.00    +0.000 A 
ATOM     16  C   UNL     1      46.059   4.143   7.918  0.00  0.00    +0.000 A 
ATOM     17  C   UNL     1      45.364   4.613   9.031  0.00  0.00    +0.000 A 
ENDBRANCH  11  12
ENDBRANCH   8  11
ENDBRANCH   7   8
ENDBRANCH   1   7
BRANCH   5  18
ATOM     18  C   UNL     1      49.614   6.908  15.152  0.00  0.00    +0.000 C 
BRANCH  18  19
ATOM     19  N   UNL     1      49.123   7.576  16.366  0.00  0.00    +0.000 N 
ATOM     20  C   UNL     1      49.204   9.031  16.448  0.00  0.00    +0.000 C 
ATOM     21  C   UNL     1      48.560   6.881  17.461  0.00  0.00    +0.000 C 
ATOM     22  O   UNL     1      48.081   7.471  18.424  0.00  0.00    +0.000 OA
BRANCH  21  23
ATOM     23  C   UNL     1      48.584   5.409  17.430  0.00  0.00    +0.000 A 
ATOM     24  C   UNL     1      47.452   4.619  17.333  0.00  0.00    +0.000 A 
ATOM     25  S   UNL     1      47.798   2.971  17.049  0.00  0.00    +0.000 S 
ATOM     26  C   UNL     1      49.462   3.236  17.288  0.00  0.00    +0.000 A 
ATOM     27  N   UNL     1      50.347   2.207  17.203  0.00  0.00    +0.000 NA
ATOM     28  C   UNL     1      51.567   2.536  17.473  0.00  0.00    +0.000 A 
ATOM     29  N   UNL     1      51.979   3.799  17.823  0.00  0.00    +0.000 N 
ATOM     30  C   UNL     1      51.118   4.882  17.910  0.00  0.00    +0.000 A 
ATOM     31  O   UNL     1      51.540   5.976  18.263  0.00  0.00    +0.000 OA
ATOM     32  C   UNL     1      49.742   4.561  17.576  0.00  0.00    +0.000 A 
ATOM     33  H   UNL     1      52.939   3.982  18.064  0.00  0.00    +0.000 HD
ENDBRANCH  21  23
ENDBRANCH  18  19
ENDBRANCH   5  18
TORSDOF 7
ENDMDL
MODEL 2
REMARK VINA RESULT:    -7.482      2.399      3.565
REMARK INTER + INTRA:         -12.202
REMARK INTER:                 -10.767
REMARK INTRA:                  -1.435
REMARK UNBOUND:                -1.658
REMARK  Name = 
REMARK  9 active torsions:
REMARK  status: ('A' for Active; 'I' for Inactive)
REMARK    1  A    between atoms: C_1  and  C_2
REMARK    2  A    between atoms: C_2  and  N_3
REMARK    3  A    between atoms: C_2  and  C_26
REMARK    4  A    between atoms: N_3  and  C_4
REMARK    5  A    between atoms: C_4  and  C_5
REMARK    6  A    between atoms: C_9  and  C_10
REMARK    7  A    between atoms: C_10  and  N_11
REMARK    8  A    between atoms: N_11  and  C_12
REMARK    9  A    between atoms: C_13  and  C_15
REMARK                            x       y       z     vdW  Elec       q    Type
REMARK                         _______ _______ _______ _____ _____    ______ ____
ROOT
ATOM      1  C   UNL     1      45.468   5.347  11.909  0.00  0.00    +0.000 A 
ATOM      2  C   UNL     1      45.767   4.214  12.680  0.00  0.00    +0.000 A 
ATOM      3  C   UNL     1      46.650   4.293  13.756  0.00  0.00    +0.000 A 
ATOM      4  C   UNL     1      47.274   5.499  14.061  0.00  0.00    +0.000 A 
ATOM      5  C   UNL     1      47.045   6.626  13.266  0.00  0.00    +0.000 A 
ATOM      6  C   UNL     1      46.129   6.547  12.201  0.00  0.00    +0.000 A 
ENDROOT
BRANCH   1   7
ATOM      7  C   UNL     1      44.393   5.272  10.845  0.00  0.00    +0.000 C 
BRANCH   7   8
ATOM      8  N   UNL     1      44.927   4.926   9.536  0.00  0.00    +0.000 NA
ATOM      9  H   UNL     1      44.623   5.626   8.856  0.00  0.00    +0.000 HD
BRANCH   8  11
ATOM     10  C   UNL     1      43.999   2.690  10.183  0.00  0.00    +0.000 C 
ATOM     11  C   UNL     1      44.470   3.612   9.049  0.00  0.00    +0.000 C 
BRANCH  11  12
ATOM     12  C   UNL     1      45.604   2.948   8.279  0.00  0.00    +0.000 A 
ATOM     13  C   UNL     1      45.867   1.578   8.426  0.00  0.00    +0.000 A 
ATOM     14  C   UNL     1      46.883   0.969   7.683  0.00  0.00    +0.000 A 
ATOM     15  C   UNL     1      47.647   1.721   6.791  0.00  0.00    +0.000 A 
ATOM     16  C   UNL     1      47.403   3.084   6.645  0.00  0.00    +0.000 A 
ATOM     17  C   UNL     1      46.390   3.692   7.383  0.00  0.00    +0.000 A 
ENDBRANCH  11  12
ENDBRANCH   8  11
ENDBRANCH   7   8
ENDBRANCH   1   7
BRANCH   5  18
ATOM     18  C   UNL     1      47.752   7.924  13.561  0.00  0.00    +0.000 C 
BRANCH  18  19
ATOM     19  N   UNL     1      49.222   7.931  13.525  0.00  0.00    +0.000 N 
ATOM     20  C   UNL     1      49.897   7.524  12.297  0.00  0.00    +0.000 C 
ATOM     21  C   UNL     1      50.022   8.327  14.621  0.00  0.00    +0.000 C 
ATOM     22  O   UNL     1      51.244   8.405  14.535  0.00  0.00    +0.000 OA
BRANCH  21  23
ATOM     23  C   UNL     1      49.348   8.627  15.896  0.00  0.00    +0.000 A 
ATOM     24  C   UNL     1      49.041   9.905  16.327  0.00  0.00    +0.000 A 
ATOM     25  S   UNL     1      48.028   9.932  17.702  0.00  0.00    +0.000 S 
ATOM     26  C   UNL     1      48.174   8.248  17.894  0.00  0.00    +0.000 A 
ATOM     27  N   UNL     1      47.551   7.611  18.920  0.00  0.00    +0.000 NA
ATOM     28  C   UNL     1      47.800   6.345  18.986  0.00  0.00    +0.000 A 
ATOM     29  N   UNL     1      48.620   5.661  18.120  0.00  0.00    +0.000 N 
ATOM     30  C   UNL     1      49.267   6.263  17.052  0.00  0.00    +0.000 A 
ATOM     31  O   UNL     1      50.013   5.608  16.337  0.00  0.00    +0.000 OA
ATOM     32  C   UNL     1      48.979   7.681  16.921  0.00  0.00    +0.000 A 
ATOM     33  H   UNL     1      48.809   4.682  18.252  0.00  0.00    +0.000 HD
ENDBRANCH  21  23
ENDBRANCH  18  19
ENDBRANCH   5  18
TORSDOF 7
ENDMDL
MODEL 3
REMARK VINA RESULT:    -7.249      3.037      8.391
REMARK INTER + INTRA:         -11.874
REMARK INTER:                 -10.434
REMARK INTRA:                  -1.439
REMARK UNBOUND:                -1.658
REMARK  Name = 
REMARK  9 active torsions:
REMARK  status: ('A' for Active; 'I' for Inactive)
REMARK    1  A    between atoms: C_1  and  C_2
REMARK    2  A    between atoms: C_2  and  N_3
REMARK    3  A    between atoms: C_2  and  C_26
REMARK    4  A    between atoms: N_3  and  C_4
REMARK    5  A    between atoms: C_4  and  C_5
REMARK    6  A    between atoms: C_9  and  C_10
REMARK    7  A    between atoms: C_10  and  N_11
REMARK    8  A    between atoms: N_11  and  C_12
REMARK    9  A    between atoms: C_13  and  C_15
REMARK                            x       y       z     vdW  Elec       q    Type
REMARK                         _______ _______ _______ _____ _____    ______ ____
ROOT
ATOM      1  C   UNL     1      48.548   5.916  16.278  0.00  0.00    +0.000 A 
ATOM      2  C   UNL     1      47.835   4.804  16.749  0.00  0.00    +0.000 A 
ATOM      3  C   UNL     1      47.018   4.064  15.897  0.00  0.00    +0.000 A 
ATOM      4  C   UNL     1      46.874   4.441  14.565  0.00  0.00    +0.000 A 
ATOM      5  C   UNL     1      47.520   5.585  14.087  0.00  0.00    +0.000 A 
ATOM      6  C   UNL     1      48.368   6.309  14.945  0.00  0.00    +0.000 A 
ENDROOT
BRANCH   1   7
ATOM      7  C   UNL     1      49.545   6.611  17.181  0.00  0.00    +0.000 C 
BRANCH   7   8
ATOM      8  N   UNL     1      50.110   5.717  18.181  0.00  0.00    +0.000 NA
ATOM      9  H   UNL     1      50.030   6.152  19.102  0.00  0.00    +0.000 HD
BRANCH   8  11
ATOM     10  C   UNL     1      52.090   6.089  16.690  0.00  0.00    +0.000 C 
ATOM     11  C   UNL     1      51.537   5.421  17.958  0.00  0.00    +0.000 C 
BRANCH  11  12
ATOM     12  C   UNL     1      51.720   3.911  17.870  0.00  0.00    +0.000 A 
ATOM     13  C   UNL     1      50.689   3.089  17.393  0.00  0.00    +0.000 A 
ATOM     14  C   UNL     1      50.882   1.709  17.275  0.00  0.00    +0.000 A 
ATOM     15  C   UNL     1      52.101   1.138  17.635  0.00  0.00    +0.000 A 
ATOM     16  C   UNL     1      53.129   1.942  18.121  0.00  0.00    +0.000 A 
ATOM     17  C   UNL     1      52.940   3.317  18.237  0.00  0.00    +0.000 A 
ENDBRANCH  11  12
ENDBRANCH   8  11
ENDBRANCH   7   8
ENDBRANCH   1   7
BRANCH   5  18
ATOM     18  C   UNL     1      47.332   6.025  12.659  0.00  0.00    +0.000 C 
BRANCH  18  19
ATOM     19  N   UNL     1      46.321   7.055  12.382  0.00  0.00    +0.000 N 
ATOM     20  C   UNL     1      46.638   8.449  12.676  0.00  0.00    +0.000 C 
ATOM     21  C   UNL     1      45.052   6.767  11.831  0.00  0.00    +0.000 C 
ATOM     22  O   UNL     1      44.259   7.656  11.531  0.00  0.00    +0.000 OA
BRANCH  21  23
ATOM     23  C   UNL     1      44.685   5.354  11.642  0.00  0.00    +0.000 A 
ATOM     24  C   UNL     1      44.150   4.553  12.636  0.00  0.00    +0.000 A 
ATOM     25  S   UNL     1      43.577   3.050  12.061  0.00  0.00    +0.000 S 
ATOM     26  C   UNL     1      44.246   3.336  10.524  0.00  0.00    +0.000 A 
ATOM     27  N   UNL     1      44.130   2.410   9.535  0.00  0.00    +0.000 NA
ATOM     28  C   UNL     1      44.741   2.726   8.441  0.00  0.00    +0.000 A 
ATOM     29  N   UNL     1      45.461   3.881   8.250  0.00  0.00    +0.000 N 
ATOM     30  C   UNL     1      45.599   4.859   9.222  0.00  0.00    +0.000 A 
ATOM     31  O   UNL     1      46.283   5.850   9.005  0.00  0.00    +0.000 OA
ATOM     32  C   UNL     1      44.891   4.559  10.455  0.00  0.00    +0.000 A 
ATOM     33  H   UNL     1      45.952   4.047   7.388  0.00  0.00    +0.000 HD
ENDBRANCH  21  23
ENDBRANCH  18  19
ENDBRANCH   5  18
TORSDOF 7
ENDMDL
MODEL 4
REMARK VINA RESULT:    -7.227      3.209      7.751
REMARK INTER + INTRA:         -11.842
REMARK INTER:                 -10.343
REMARK INTRA:                  -1.499
REMARK UNBOUND:                -1.658
REMARK  Name = 
REMARK  9 active torsions:
REMARK  status: ('A' for Active; 'I' for Inactive)
REMARK    1  A    between atoms: C_1  and  C_2
REMARK    2  A    between atoms: C_2  and  N_3
REMARK    3  A    between atoms: C_2  and  C_26
REMARK    4  A    between atoms: N_3  and  C_4
REMARK    5  A    between atoms: C_4  and  C_5
REMARK    6  A    between atoms: C_9  and  C_10
REMARK    7  A    between atoms: C_10  and  N_11
REMARK    8  A    between atoms: N_11  and  C_12
REMARK    9  A    between atoms: C_13  and  C_15
REMARK                            x       y       z     vdW  Elec       q    Type
REMARK                         _______ _______ _______ _____ _____    ______ ____
ROOT
ATOM      1  C   UNL     1      49.521   7.412  14.943  0.00  0.00    +0.000 A 
ATOM      2  C   UNL     1      50.508   7.972  14.118  0.00  0.00    +0.000 A 
ATOM      3  C   UNL     1      50.337   8.031  12.736  0.00  0.00    +0.000 A 
ATOM      4  C   UNL     1      49.191   7.504  12.151  0.00  0.00    +0.000 A 
ATOM      5  C   UNL     1      48.223   6.880  12.944  0.00  0.00    +0.000 A 
ATOM      6  C   UNL     1      48.387   6.851  14.341  0.00  0.00    +0.000 A 
ENDROOT
BRANCH   1   7
ATOM      7  C   UNL     1      49.660   7.496  16.448  0.00  0.00    +0.000 C 
BRANCH   7   8
ATOM      8  N   UNL     1      48.382   7.377  17.135  0.00  0.00    +0.000 NA
ATOM      9  H   UNL     1      48.112   8.293  17.498  0.00  0.00    +0.000 HD
BRANCH   8  11
ATOM     10  C   UNL     1      49.578   6.735  19.241  0.00  0.00    +0.000 C 
ATOM     11  C   UNL     1      48.419   6.445  18.277  0.00  0.00    +0.000 C 
BRANCH  11  12
ATOM     12  C   UNL     1      48.529   5.021  17.748  0.00  0.00    +0.000 A 
ATOM     13  C   UNL     1      47.503   4.461  16.972  0.00  0.00    +0.000 A 
ATOM     14  C   UNL     1      47.632   3.168  16.455  0.00  0.00    +0.000 A 
ATOM     15  C   UNL     1      48.782   2.423  16.710  0.00  0.00    +0.000 A 
ATOM     16  C   UNL     1      49.802   2.962  17.488  0.00  0.00    +0.000 A 
ATOM     17  C   UNL     1      49.677   4.251  18.003  0.00  0.00    +0.000 A 
ENDBRANCH  11  12
ENDBRANCH   8  11
ENDBRANCH   7   8
ENDBRANCH   1   7
BRANCH   5  18
ATOM     18  C   UNL     1      47.000   6.265  12.313  0.00  0.00    +0.000 C 
BRANCH  18  19
ATOM     19  N   UNL     1      45.872   7.150  11.989  0.00  0.00    +0.000 N 
ATOM     20  C   UNL     1      46.036   8.590  12.164  0.00  0.00    +0.000 C 
ATOM     21  C   UNL     1      44.632   6.679  11.502  0.00  0.00    +0.000 C 
ATOM     22  O   UNL     1      43.737   7.447  11.160  0.00  0.00    +0.000 OA
BRANCH  21  23
ATOM     23  C   UNL     1      44.424   5.223  11.436  0.00  0.00    +0.000 A 
ATOM     24  C   UNL     1      43.905   4.467  12.472  0.00  0.00    +0.000 A 
ATOM     25  S   UNL     1      43.528   2.864  12.019  0.00  0.00    +0.000 S 
ATOM     26  C   UNL     1      44.269   3.074  10.502  0.00  0.00    +0.000 A 
ATOM     27  N   UNL     1      44.315   2.052   9.607  0.00  0.00    +0.000 NA
ATOM     28  C   UNL     1      44.965   2.327   8.525  0.00  0.00    +0.000 A 
ATOM     29  N   UNL     1      45.576   3.530   8.261  0.00  0.00    +0.000 N 
ATOM     30  C   UNL     1      45.547   4.604   9.136  0.00  0.00    +0.000 A 
ATOM     31  O   UNL     1      46.141   5.638   8.860  0.00  0.00    +0.000 OA
ATOM     32  C   UNL     1      44.790   4.347  10.349  0.00  0.00    +0.000 A 
ATOM     33  H   UNL     1      46.106   3.666   7.417  0.00  0.00    +0.000 HD
ENDBRANCH  21  23
ENDBRANCH  18  19
ENDBRANCH   5  18
TORSDOF 7
ENDMDL
MODEL 5
REMARK VINA RESULT:    -7.205      2.617      3.441
REMARK INTER + INTRA:         -11.811
REMARK INTER:                 -10.410
REMARK INTRA:                  -1.401
REMARK UNBOUND:                -1.658
REMARK  Name = 
REMARK  9 active torsions:
REMARK  status: ('A' for Active; 'I' for Inactive)
REMARK    1  A    between atoms: C_1  and  C_2
REMARK    2  A    between atoms: C_2  and  N_3
REMARK    3  A    between atoms: C_2  and  C_26
REMARK    4  A    between atoms: N_3  and  C_4
REMARK    5  A    between atoms: C_4  and  C_5
REMARK    6  A    between atoms: C_9  and  C_10
REMARK    7  A    between atoms: C_10  and  N_11
REMARK    8  A    between atoms: N_11  and  C_12
REMARK    9  A    between atoms: C_13  and  C_15
REMARK                            x       y       z     vdW  Elec       q    Type
REMARK                         _______ _______ _______ _____ _____    ______ ____
ROOT
ATOM      1  C   UNL     1      45.792   5.592  11.748  0.00  0.00    +0.000 A 
ATOM      2  C   UNL     1      45.569   4.832  12.906  0.00  0.00    +0.000 A 
ATOM      3  C   UNL     1      46.446   4.902  13.988  0.00  0.00    +0.000 A 
ATOM      4  C   UNL     1      47.578   5.708  13.919  0.00  0.00    +0.000 A 
ATOM      5  C   UNL     1      47.858   6.423  12.750  0.00  0.00    +0.000 A 
ATOM      6  C   UNL     1      46.954   6.372  11.674  0.00  0.00    +0.000 A 
ENDROOT
BRANCH   1   7
ATOM      7  C   UNL     1      44.749   5.617  10.651  0.00  0.00    +0.000 C 
BRANCH   7   8
ATOM      8  N   UNL     1      45.270   5.150   9.374  0.00  0.00    +0.000 NA
ATOM      9  H   UNL     1      45.086   5.857   8.660  0.00  0.00    +0.000 HD
BRANCH   8  11
ATOM     10  C   UNL     1      44.048   3.076  10.070  0.00  0.00    +0.000 C 
ATOM     11  C   UNL     1      44.652   3.892   8.918  0.00  0.00    +0.000 C 
BRANCH  11  12
ATOM     12  C   UNL     1      45.701   3.062   8.189  0.00  0.00    +0.000 A 
ATOM     13  C   UNL     1      45.843   1.691   8.453  0.00  0.00    +0.000 A 
ATOM     14  C   UNL     1      46.779   0.929   7.748  0.00  0.00    +0.000 A 
ATOM     15  C   UNL     1      47.583   1.526   6.779  0.00  0.00    +0.000 A 
ATOM     16  C   UNL     1      47.460   2.887   6.516  0.00  0.00    +0.000 A 
ATOM     17  C   UNL     1      46.526   3.649   7.216  0.00  0.00    +0.000 A 
ENDBRANCH  11  12
ENDBRANCH   8  11
ENDBRANCH   7   8
ENDBRANCH   1   7
BRANCH   5  18
ATOM     18  C   UNL     1      49.106   7.262  12.651  0.00  0.00    +0.000 C 
BRANCH  18  19
ATOM     19  N   UNL     1      48.986   8.708  12.886  0.00  0.00    +0.000 N 
ATOM     20  C   UNL     1      48.646   9.576  11.764  0.00  0.00    +0.000 C 
ATOM     21  C   UNL     1      49.170   9.306  14.154  0.00  0.00    +0.000 C 
ATOM     22  O   UNL     1      48.979  10.504  14.338  0.00  0.00    +0.000 OA
BRANCH  21  23
ATOM     23  C   UNL     1      49.626   8.449  15.262  0.00  0.00    +0.000 A 
ATOM     24  C   UNL     1      48.842   8.107  16.349  0.00  0.00    +0.000 A 
ATOM     25  S   UNL     1      49.536   6.895  17.332  0.00  0.00    +0.000 S 
ATOM     26  C   UNL     1      50.998   6.971  16.465  0.00  0.00    +0.000 A 
ATOM     27  N   UNL     1      52.050   6.183  16.810  0.00  0.00    +0.000 NA
ATOM     28  C   UNL     1      53.118   6.390  16.113  0.00  0.00    +0.000 A 
ATOM     29  N   UNL     1      53.228   7.319  15.106  0.00  0.00    +0.000 N 
ATOM     30  C   UNL     1      52.181   8.137  14.709  0.00  0.00    +0.000 A 
ATOM     31  O   UNL     1      52.352   8.970  13.829  0.00  0.00    +0.000 OA
ATOM     32  C   UNL     1      50.950   7.905  15.444  0.00  0.00    +0.000 A 
ATOM     33  H   UNL     1      54.102   7.464  14.629  0.00  0.00    +0.000 HD
ENDBRANCH  21  23
ENDBRANCH  18  19
ENDBRANCH   5  18
TORSDOF 7
ENDMDL
MODEL 6
REMARK VINA RESULT:    -7.166      1.923      2.979
REMARK INTER + INTRA:         -11.757
REMARK INTER:                 -10.626
REMARK INTRA:                  -1.131
REMARK UNBOUND:                -1.658
REMARK  Name = 
REMARK  9 active torsions:
REMARK  status: ('A' for Active; 'I' for Inactive)
REMARK    1  A    between atoms: C_1  and  C_2
REMARK    2  A    between atoms: C_2  and  N_3
REMARK    3  A    between atoms: C_2  and  C_26
REMARK    4  A    between atoms: N_3  and  C_4
REMARK    5  A    between atoms: C_4  and  C_5
REMARK    6  A    between atoms: C_9  and  C_10
REMARK    7  A    between atoms: C_10  and  N_11
REMARK    8  A    between atoms: N_11  and  C_12
REMARK    9  A    between atoms: C_13  and  C_15
REMARK                            x       y       z     vdW  Elec       q    Type
REMARK                         _______ _______ _______ _____ _____    ______ ____
ROOT
ATOM      1  C   UNL     1      45.984   5.536  11.805  0.00  0.00    +0.000 A 
ATOM      2  C   UNL     1      45.650   4.480  12.666  0.00  0.00    +0.000 A 
ATOM      3  C   UNL     1      46.330   4.294  13.868  0.00  0.00    +0.000 A 
ATOM      4  C   UNL     1      47.378   5.140  14.217  0.00  0.00    +0.000 A 
ATOM      5  C   UNL     1      47.775   6.158  13.344  0.00  0.00    +0.000 A 
ATOM      6  C   UNL     1      47.065   6.360  12.147  0.00  0.00    +0.000 A 
ENDROOT
BRANCH   1   7
ATOM      7  C   UNL     1      45.135   5.809  10.582  0.00  0.00    +0.000 C 
BRANCH   7   8
ATOM      8  N   UNL     1      45.707   5.249   9.367  0.00  0.00    +0.000 NA
ATOM      9  H   UNL     1      45.806   5.991   8.671  0.00  0.00    +0.000 HD
BRANCH   8  11
ATOM     10  C   UNL     1      44.005   3.462   9.800  0.00  0.00    +0.000 C 
ATOM     11  C   UNL     1      44.875   4.190   8.766  0.00  0.00    +0.000 C 
BRANCH  11  12
ATOM     12  C   UNL     1      45.781   3.193   8.057  0.00  0.00    +0.000 A 
ATOM     13  C   UNL     1      46.633   3.605   7.021  0.00  0.00    +0.000 A 
ATOM     14  C   UNL     1      47.492   2.690   6.405  0.00  0.00    +0.000 A 
ATOM     15  C   UNL     1      47.508   1.358   6.814  0.00  0.00    +0.000 A 
ATOM     16  C   UNL     1      46.660   0.933   7.833  0.00  0.00    +0.000 A 
ATOM     17  C   UNL     1      45.803   1.843   8.449  0.00  0.00    +0.000 A 
ENDBRANCH  11  12
ENDBRANCH   8  11
ENDBRANCH   7   8
ENDBRANCH   1   7
BRANCH   5  18
ATOM     18  C   UNL     1      48.939   7.049  13.693  0.00  0.00    +0.000 C 
BRANCH  18  19
ATOM     19  N   UNL     1      48.712   8.135  14.658  0.00  0.00    +0.000 N 
ATOM     20  C   UNL     1      47.641   9.092  14.399  0.00  0.00    +0.000 C 
ATOM     21  C   UNL     1      49.471   8.295  15.839  0.00  0.00    +0.000 C 
ATOM     22  O   UNL     1      49.204   9.159  16.669  0.00  0.00    +0.000 OA
BRANCH  21  23
ATOM     23  C   UNL     1      50.624   7.402  16.045  0.00  0.00    +0.000 A 
ATOM     24  C   UNL     1      51.871   7.605  15.481  0.00  0.00    +0.000 A 
ATOM     25  S   UNL     1      53.076   6.569  16.106  0.00  0.00    +0.000 S 
ATOM     26  C   UNL     1      51.915   5.669  16.964  0.00  0.00    +0.000 A 
ATOM     27  N   UNL     1      52.284   4.597  17.714  0.00  0.00    +0.000 NA
ATOM     28  C   UNL     1      51.297   3.965  18.256  0.00  0.00    +0.000 A 
ATOM     29  N   UNL     1      49.973   4.307  18.112  0.00  0.00    +0.000 N 
ATOM     30  C   UNL     1      49.547   5.397  17.369  0.00  0.00    +0.000 A 
ATOM     31  O   UNL     1      48.352   5.630  17.248  0.00  0.00    +0.000 OA
ATOM     32  C   UNL     1      50.633   6.157  16.775  0.00  0.00    +0.000 A 
ATOM     33  H   UNL     1      49.246   3.747  18.524  0.00  0.00    +0.000 HD
ENDBRANCH  21  23
ENDBRANCH  18  19
ENDBRANCH   5  18
TORSDOF 7
ENDMDL
MODEL 7
REMARK VINA RESULT:    -6.983      3.606      4.933
REMARK INTER + INTRA:         -11.499
REMARK INTER:                 -10.061
REMARK INTRA:                  -1.439
REMARK UNBOUND:                -1.658
REMARK  Name = 
REMARK  9 active torsions:
REMARK  status: ('A' for Active; 'I' for Inactive)
REMARK    1  A    between atoms: C_1  and  C_2
REMARK    2  A    between atoms: C_2  and  N_3
REMARK    3  A    between atoms: C_2  and  C_26
REMARK    4  A    between atoms: N_3  and  C_4
REMARK    5  A    between atoms: C_4  and  C_5
REMARK    6  A    between atoms: C_9  and  C_10
REMARK    7  A    between atoms: C_10  and  N_11
REMARK    8  A    between atoms: N_11  and  C_12
REMARK    9  A    between atoms: C_13  and  C_15
REMARK                            x       y       z     vdW  Elec       q    Type
REMARK                         _______ _______ _______ _____ _____    ______ ____
ROOT
ATOM      1  C   UNL     1      45.756   5.683  12.245  0.00  0.00    +0.000 A 
ATOM      2  C   UNL     1      46.133   5.108  13.467  0.00  0.00    +0.000 A 
ATOM      3  C   UNL     1      47.322   5.477  14.095  0.00  0.00    +0.000 A 
ATOM      4  C   UNL     1      48.170   6.404  13.496  0.00  0.00    +0.000 A 
ATOM      5  C   UNL     1      47.849   6.940  12.245  0.00  0.00    +0.000 A 
ATOM      6  C   UNL     1      46.633   6.587  11.632  0.00  0.00    +0.000 A 
ENDROOT
BRANCH   1   7
ATOM      7  C   UNL     1      44.392   5.380  11.660  0.00  0.00    +0.000 C 
BRANCH   7   8
ATOM      8  N   UNL     1      44.432   5.194  10.216  0.00  0.00    +0.000 NA
ATOM      9  H   UNL     1      43.791   5.857   9.776  0.00  0.00    +0.000 HD
BRANCH   8  11
ATOM     10  C   UNL     1      43.815   2.888  10.977  0.00  0.00    +0.000 C 
ATOM     11  C   UNL     1      44.026   3.842   9.792  0.00  0.00    +0.000 C 
BRANCH  11  12
ATOM     12  C   UNL     1      45.087   3.278   8.856  0.00  0.00    +0.000 A 
ATOM     13  C   UNL     1      45.809   4.121   7.998  0.00  0.00    +0.000 A 
ATOM     14  C   UNL     1      46.811   3.600   7.173  0.00  0.00    +0.000 A 
ATOM     15  C   UNL     1      47.099   2.237   7.195  0.00  0.00    +0.000 A 
ATOM     16  C   UNL     1      46.382   1.388   8.034  0.00  0.00    +0.000 A 
ATOM     17  C   UNL     1      45.384   1.905   8.858  0.00  0.00    +0.000 A 
ENDBRANCH  11  12
ENDBRANCH   8  11
ENDBRANCH   7   8
ENDBRANCH   1   7
BRANCH   5  18
ATOM     18  C   UNL     1      48.784   7.909  11.569  0.00  0.00    +0.000 C 
BRANCH  18  19
ATOM     19  N   UNL     1      48.749   9.315  11.997  0.00  0.00    +0.000 N 
ATOM     20  C   UNL     1      47.453   9.960  12.186  0.00  0.00    +0.000 C 
ATOM     21  C   UNL     1      49.911  10.078  12.251  0.00  0.00    +0.000 C 
ATOM     22  O   UNL     1      49.851  11.223  12.690  0.00  0.00    +0.000 OA
BRANCH  21  23
ATOM     23  C   UNL     1      51.217   9.467  11.951  0.00  0.00    +0.000 A 
ATOM     24  C   UNL     1      51.809   9.481  10.700  0.00  0.00    +0.000 A 
ATOM     25  S   UNL     1      53.429   8.939  10.710  0.00  0.00    +0.000 S 
ATOM     26  C   UNL     1      53.299   8.451  12.334  0.00  0.00    +0.000 A 
ATOM     27  N   UNL     1      54.353   7.873  12.970  0.00  0.00    +0.000 NA
ATOM     28  C   UNL     1      54.097   7.490  14.177  0.00  0.00    +0.000 A 
ATOM     29  N   UNL     1      52.881   7.629  14.802  0.00  0.00    +0.000 N 
ATOM     30  C   UNL     1      51.781   8.222  14.201  0.00  0.00    +0.000 A 
ATOM     31  O   UNL     1      50.713   8.283  14.796  0.00  0.00    +0.000 OA
ATOM     32  C   UNL     1      52.041   8.702  12.855  0.00  0.00    +0.000 A 
ATOM     33  H   UNL     1      52.732   7.269  15.730  0.00  0.00    +0.000 HD
ENDBRANCH  21  23
ENDBRANCH  18  19
ENDBRANCH   5  18
TORSDOF 7
ENDMDL
MODEL 8
REMARK VINA RESULT:    -6.709      4.214      6.104
REMARK INTER + INTRA:         -11.113
REMARK INTER:                  -9.806
REMARK INTRA:                  -1.306
REMARK UNBOUND:                -1.658
REMARK  Name = 
REMARK  9 active torsions:
REMARK  status: ('A' for Active; 'I' for Inactive)
REMARK    1  A    between atoms: C_1  and  C_2
REMARK    2  A    between atoms: C_2  and  N_3
REMARK    3  A    between atoms: C_2  and  C_26
REMARK    4  A    between atoms: N_3  and  C_4
REMARK    5  A    between atoms: C_4  and  C_5
REMARK    6  A    between atoms: C_9  and  C_10
REMARK    7  A    between atoms: C_10  and  N_11
REMARK    8  A    between atoms: N_11  and  C_12
REMARK    9  A    between atoms: C_13  and  C_15
REMARK                            x       y       z     vdW  Elec       q    Type
REMARK                         _______ _______ _______ _____ _____    ______ ____
ROOT
ATOM      1  C   UNL     1      45.575   6.520  11.500  0.00  0.00    +0.000 A 
ATOM      2  C   UNL     1      44.910   7.694  11.884  0.00  0.00    +0.000 A 
ATOM      3  C   UNL     1      45.624   8.834  12.251  0.00  0.00    +0.000 A 
ATOM      4  C   UNL     1      47.015   8.810  12.271  0.00  0.00    +0.000 A 
ATOM      5  C   UNL     1      47.700   7.632  11.958  0.00  0.00    +0.000 A 
ATOM      6  C   UNL     1      46.974   6.495  11.558  0.00  0.00    +0.000 A 
ENDROOT
BRANCH   1   7
ATOM      7  C   UNL     1      44.783   5.348  10.960  0.00  0.00    +0.000 C 
BRANCH   7   8
ATOM      8  N   UNL     1      45.099   5.051   9.571  0.00  0.00    +0.000 NA
ATOM      9  H   UNL     1      44.718   5.790   8.977  0.00  0.00    +0.000 HD
BRANCH   8  11
ATOM     10  C   UNL     1      44.050   2.882  10.258  0.00  0.00    +0.000 C 
ATOM     11  C   UNL     1      44.531   3.773   9.104  0.00  0.00    +0.000 C 
BRANCH  11  12
ATOM     12  C   UNL     1      45.581   3.036   8.283  0.00  0.00    +0.000 A 
ATOM     13  C   UNL     1      45.846   1.677   8.509  0.00  0.00    +0.000 A 
ATOM     14  C   UNL     1      46.781   0.999   7.720  0.00  0.00    +0.000 A 
ATOM     15  C   UNL     1      47.460   1.670   6.705  0.00  0.00    +0.000 A 
ATOM     16  C   UNL     1      47.214   3.021   6.478  0.00  0.00    +0.000 A 
ATOM     17  C   UNL     1      46.282   3.699   7.261  0.00  0.00    +0.000 A 
ENDBRANCH  11  12
ENDBRANCH   8  11
ENDBRANCH   7   8
ENDBRANCH   1   7
BRANCH   5  18
ATOM     18  C   UNL     1      49.205   7.585  12.022  0.00  0.00    +0.000 C 
BRANCH  18  19
ATOM     19  N   UNL     1      49.864   8.194  13.186  0.00  0.00    +0.000 N 
ATOM     20  C   UNL     1      49.730   7.548  14.488  0.00  0.00    +0.000 C 
ATOM     21  C   UNL     1      50.639   9.374  13.110  0.00  0.00    +0.000 C 
ATOM     22  O   UNL     1      51.248   9.813  14.081  0.00  0.00    +0.000 OA
BRANCH  21  23
ATOM     23  C   UNL     1      50.680  10.091  11.824  0.00  0.00    +0.000 A 
ATOM     24  C   UNL     1      49.777  11.072  11.455  0.00  0.00    +0.000 A 
ATOM     25  S   UNL     1      50.227  11.910  10.037  0.00  0.00    +0.000 S 
ATOM     26  C   UNL     1      51.507  10.826   9.753  0.00  0.00    +0.000 A 
ATOM     27  N   UNL     1      52.305  10.967   8.661  0.00  0.00    +0.000 NA
ATOM     28  C   UNL     1      53.194  10.038   8.532  0.00  0.00    +0.000 A 
ATOM     29  N   UNL     1      53.352   8.979   9.395  0.00  0.00    +0.000 N 
ATOM     30  C   UNL     1      52.573   8.799  10.527  0.00  0.00    +0.000 A 
ATOM     31  O   UNL     1      52.738   7.816  11.237  0.00  0.00    +0.000 OA
ATOM     32  C   UNL     1      51.586   9.846  10.728  0.00  0.00    +0.000 A 
ATOM     33  H   UNL     1      54.035   8.263   9.214  0.00  0.00    +0.000 HD
ENDBRANCH  21  23
ENDBRANCH  18  19
ENDBRANCH   5  18
TORSDOF 7
ENDMDL
MODEL 9
REMARK VINA RESULT:    -6.495      1.798      2.515
REMARK INTER + INTRA:         -10.811
REMARK INTER:                  -9.583
REMARK INTRA:                  -1.228
REMARK UNBOUND:                -1.658
REMARK  Name = 
REMARK  9 active torsions:
REMARK  status: ('A' for Active; 'I' for Inactive)
REMARK    1  A    between atoms: C_1  and  C_2
REMARK    2  A    between atoms: C_2  and  N_3
REMARK    3  A    between atoms: C_2  and  C_26
REMARK    4  A    between atoms: N_3  and  C_4
REMARK    5  A    between atoms: C_4  and  C_5
REMARK    6  A    between atoms: C_9  and  C_10
REMARK    7  A    between atoms: C_10  and  N_11
REMARK    8  A    between atoms: N_11  and  C_12
REMARK    9  A    between atoms: C_13  and  C_15
REMARK                            x       y       z     vdW  Elec       q    Type
REMARK                         _______ _______ _______ _____ _____    ______ ____
ROOT
ATOM      1  C   UNL     1      48.092   6.716  13.008  0.00  0.00    +0.000 A 
ATOM      2  C   UNL     1      48.705   7.214  11.848  0.00  0.00    +0.000 A 
ATOM      3  C   UNL     1      49.905   7.920  11.920  0.00  0.00    +0.000 A 
ATOM      4  C   UNL     1      50.497   8.168  13.154  0.00  0.00    +0.000 A 
ATOM      5  C   UNL     1      49.871   7.741  14.330  0.00  0.00    +0.000 A 
ATOM      6  C   UNL     1      48.677   7.002  14.248  0.00  0.00    +0.000 A 
ENDROOT
BRANCH   1   7
ATOM      7  C   UNL     1      46.874   5.824  12.892  0.00  0.00    +0.000 C 
BRANCH   7   8
ATOM      8  N   UNL     1      45.966   6.253  11.838  0.00  0.00    +0.000 NA
ATOM      9  H   UNL     1      45.617   7.188  12.057  0.00  0.00    +0.000 HD
BRANCH   8  11
ATOM     10  C   UNL     1      44.525   4.521  12.935  0.00  0.00    +0.000 C 
ATOM     11  C   UNL     1      44.794   5.371  11.685  0.00  0.00    +0.000 C 
BRANCH  11  12
ATOM     12  C   UNL     1      45.011   4.466  10.479  0.00  0.00    +0.000 A 
ATOM     13  C   UNL     1      44.643   3.113  10.521  0.00  0.00    +0.000 A 
ATOM     14  C   UNL     1      44.806   2.300   9.395  0.00  0.00    +0.000 A 
ATOM     15  C   UNL     1      45.340   2.829   8.220  0.00  0.00    +0.000 A 
ATOM     16  C   UNL     1      45.720   4.167   8.170  0.00  0.00    +0.000 A 
ATOM     17  C   UNL     1      45.557   4.979   9.291  0.00  0.00    +0.000 A 
ENDBRANCH  11  12
ENDBRANCH   8  11
ENDBRANCH   7   8
ENDBRANCH   1   7
BRANCH   5  18
ATOM     18  C   UNL     1      50.483   8.046  15.673  0.00  0.00    +0.000 C 
BRANCH  18  19
ATOM     19  N   UNL     1      51.543   7.156  16.166  0.00  0.00    +0.000 N 
ATOM     20  C   UNL     1      52.861   7.220  15.541  0.00  0.00    +0.000 C 
ATOM     21  C   UNL     1      51.359   6.244  17.230  0.00  0.00    +0.000 C 
ATOM     22  O   UNL     1      52.285   5.575  17.677  0.00  0.00    +0.000 OA
BRANCH  21  23
ATOM     23  C   UNL     1      50.003   6.095  17.784  0.00  0.00    +0.000 A 
ATOM     24  C   UNL     1      49.380   7.045  18.574  0.00  0.00    +0.000 A 
ATOM     25  S   UNL     1      47.725   6.724  18.846  0.00  0.00    +0.000 S 
ATOM     26  C   UNL     1      47.861   5.192  18.118  0.00  0.00    +0.000 A 
ATOM     27  N   UNL     1      46.784   4.367  18.035  0.00  0.00    +0.000 NA
ATOM     28  C   UNL     1      47.042   3.210  17.521  0.00  0.00    +0.000 A 
ATOM     29  N   UNL     1      48.282   2.805  17.087  0.00  0.00    +0.000 N 
ATOM     30  C   UNL     1      49.407   3.613  17.139  0.00  0.00    +0.000 A 
ATOM     31  O   UNL     1      50.492   3.182  16.771  0.00  0.00    +0.000 OA
ATOM     32  C   UNL     1      49.148   4.938  17.675  0.00  0.00    +0.000 A 
ATOM     33  H   UNL     1      48.428   1.873  16.736  0.00  0.00    +0.000 HD
ENDBRANCH  21  23
ENDBRANCH  18  19
ENDBRANCH   5  18
TORSDOF 7
ENDMDL
