MODEL 1
REMARK VINA RESULT:    -6.853      0.000      0.000
REMARK INTER + INTRA:         -10.465
REMARK INTER:                  -9.857
REMARK INTRA:                  -0.608
REMARK UNBOUND:                -0.608
REMARK  Name = 
REMARK  9 active torsions:
REMARK  status: ('A' for Active; 'I' for Inactive)
REMARK    1  A    between atoms: C_1  and  C_2
REMARK    2  A    between atoms: C_2  and  N_3
REMARK    3  A    between atoms: N_3  and  C_4
REMARK    4  A    between atoms: N_3  and  C_14
REMARK    5  A    between atoms: C_4  and  C_5
REMARK    6  A    between atoms: C_5  and  C_6
REMARK    7  A    between atoms: C_10  and  C_11
REMARK    8  A    between atoms: C_11  and  N_12
REMARK    9  A    between atoms: C_18  and  C_19
REMARK                            x       y       z     vdW  Elec       q    Type
REMARK                         _______ _______ _______ _____ _____    ______ ____
ROOT
ATOM      1  N   UNL     1      44.457   5.846  10.879  0.00  0.00    +0.000 N 
ENDROOT
BRANCH   1   2
ATOM      2  C   UNL     1      45.198   6.719  11.692  0.00  0.00    +0.000 A 
ATOM      3  C   UNL     1      44.930   8.090  11.797  0.00  0.00    +0.000 A 
ATOM      4  C   UNL     1      45.661   8.918  12.657  0.00  0.00    +0.000 A 
ATOM      5  C   UNL     1      46.691   8.388  13.429  0.00  0.00    +0.000 A 
ATOM      6  C   UNL     1      47.004   7.030  13.338  0.00  0.00    +0.000 A 
ATOM      7  C   UNL     1      46.271   6.221  12.457  0.00  0.00    +0.000 A 
BRANCH   6   8
ATOM      8  C   UNL     1      48.100   6.505  14.203  0.00  0.00    +0.000 C 
ATOM      9  N   UNL     1      47.784   5.685  15.251  0.00  0.00    +0.000 N 
ATOM     10  O   UNL     1      49.271   6.804  14.000  0.00  0.00    +0.000 OA
ATOM     11  H   UNL     1      46.857   5.382  15.500  0.00  0.00    +0.000 HD
ATOM     12  H   UNL     1      48.554   5.371  15.825  0.00  0.00    +0.000 HD
ENDBRANCH   6   8
ENDBRANCH   1   2
BRANCH   1  14
ATOM     13  C   UNL     1      42.962   5.086  12.771  0.00  0.00    +0.000 C 
ATOM     14  C   UNL     1      43.113   5.426  11.295  0.00  0.00    +0.000 C 
ENDBRANCH   1  14
BRANCH   1  15
ATOM     15  C   UNL     1      45.274   5.034   9.945  0.00  0.00    +0.000 C 
BRANCH  15  16
ATOM     16  C   UNL     1      44.514   4.053   9.044  0.00  0.00    +0.000 C 
BRANCH  16  17
ATOM     17  C   UNL     1      45.364   3.000   8.346  0.00  0.00    +0.000 A 
ATOM     18  C   UNL     1      45.519   1.681   8.798  0.00  0.00    +0.000 A 
ATOM     19  C   UNL     1      46.297   0.765   8.080  0.00  0.00    +0.000 A 
ATOM     20  C   UNL     1      46.917   1.145   6.891  0.00  0.00    +0.000 A 
ATOM     21  C   UNL     1      46.782   2.453   6.416  0.00  0.00    +0.000 A 
ATOM     22  C   UNL     1      46.018   3.369   7.159  0.00  0.00    +0.000 A 
BRANCH  21  23
ATOM     23  C   UNL     1      47.449   2.886   5.135  0.00  0.00    +0.000 C 
BRANCH  23  24
ATOM     24  N   UNL     1      48.054   1.754   4.440  0.00  0.00    +0.000 NA
ATOM     25  H   UNL     1      47.324   1.262   3.926  0.00  0.00    +0.000 HD
ATOM     26  H   UNL     1      48.423   1.100   5.123  0.00  0.00    +0.000 HD
ENDBRANCH  23  24
ENDBRANCH  21  23
ENDBRANCH  16  17
ENDBRANCH  15  16
ENDBRANCH   1  15
TORSDOF 8
ENDMDL
MODEL 2
REMARK VINA RESULT:    -6.313      4.588      8.317
REMARK INTER + INTRA:          -9.689
REMARK INTER:                  -8.336
REMARK INTRA:                  -1.352
REMARK UNBOUND:                -0.608
REMARK  Name = 
REMARK  9 active torsions:
REMARK  status: ('A' for Active; 'I' for Inactive)
REMARK    1  A    between atoms: C_1  and  C_2
REMARK    2  A    between atoms: C_2  and  N_3
REMARK    3  A    between atoms: N_3  and  C_4
REMARK    4  A    between atoms: N_3  and  C_14
REMARK    5  A    between atoms: C_4  and  C_5
REMARK    6  A    between atoms: C_5  and  C_6
REMARK    7  A    between atoms: C_10  and  C_11
REMARK    8  A    between atoms: C_11  and  N_12
REMARK    9  A    between atoms: C_18  and  C_19
REMARK                            x       y       z     vdW  Elec       q    Type
REMARK                         _______ _______ _______ _____ _____    ______ ____
ROOT
ATOM      1  N   UNL     1      48.654   8.110  13.721  0.00  0.00    +0.000 N 
ENDROOT
BRANCH   1   2
ATOM      2  C   UNL     1      47.511   7.344  13.443  0.00  0.00    +0.000 A 
ATOM      3  C   UNL     1      46.311   7.891  12.970  0.00  0.00    +0.000 A 
ATOM      4  C   UNL     1      45.208   7.087  12.658  0.00  0.00    +0.000 A 
ATOM      5  C   UNL     1      45.282   5.707  12.823  0.00  0.00    +0.000 A 
ATOM      6  C   UNL     1      46.451   5.123  13.313  0.00  0.00    +0.000 A 
ATOM      7  C   UNL     1      47.539   5.948  13.636  0.00  0.00    +0.000 A 
BRANCH   6   8
ATOM      8  C   UNL     1      46.489   3.639  13.449  0.00  0.00    +0.000 C 
ATOM      9  N   UNL     1      45.607   2.882  12.727  0.00  0.00    +0.000 N 
ATOM     10  O   UNL     1      47.283   3.088  14.202  0.00  0.00    +0.000 OA
ATOM     11  H   UNL     1      44.920   3.237  12.083  0.00  0.00    +0.000 HD
ATOM     12  H   UNL     1      45.651   1.882  12.867  0.00  0.00    +0.000 HD
ENDBRANCH   6   8
ENDBRANCH   1   2
BRANCH   1  14
ATOM     13  C   UNL     1      49.878   8.169  11.510  0.00  0.00    +0.000 C 
ATOM     14  C   UNL     1      49.903   7.844  12.997  0.00  0.00    +0.000 C 
ENDBRANCH   1  14
BRANCH   1  15
ATOM     15  C   UNL     1      48.647   8.763  15.052  0.00  0.00    +0.000 C 
BRANCH  15  16
ATOM     16  C   UNL     1      49.523   8.122  16.136  0.00  0.00    +0.000 C 
BRANCH  16  17
ATOM     17  C   UNL     1      48.786   7.294  17.179  0.00  0.00    +0.000 A 
ATOM     18  C   UNL     1      48.145   7.830  18.307  0.00  0.00    +0.000 A 
ATOM     19  C   UNL     1      47.463   7.001  19.205  0.00  0.00    +0.000 A 
ATOM     20  C   UNL     1      47.394   5.628  18.983  0.00  0.00    +0.000 A 
ATOM     21  C   UNL     1      48.024   5.063  17.869  0.00  0.00    +0.000 A 
ATOM     22  C   UNL     1      48.725   5.904  16.988  0.00  0.00    +0.000 A 
BRANCH  21  23
ATOM     23  C   UNL     1      47.966   3.579  17.614  0.00  0.00    +0.000 C 
BRANCH  23  24
ATOM     24  N   UNL     1      46.590   3.119  17.454  0.00  0.00    +0.000 NA
ATOM     25  H   UNL     1      46.555   2.468  16.670  0.00  0.00    +0.000 HD
ATOM     26  H   UNL     1      45.999   3.907  17.205  0.00  0.00    +0.000 HD
ENDBRANCH  23  24
ENDBRANCH  21  23
ENDBRANCH  16  17
ENDBRANCH  15  16
ENDBRANCH   1  15
TORSDOF 8
ENDMDL
MODEL 3
REMARK VINA RESULT:    -6.191      3.122      6.977
REMARK INTER + INTRA:          -9.514
REMARK INTER:                  -8.297
REMARK INTRA:                  -1.216
REMARK UNBOUND:                -0.608
REMARK  Name = 
REMARK  9 active torsions:
REMARK  status: ('A' for Active; 'I' for Inactive)
REMARK    1  A    between atoms: C_1  and  C_2
REMARK    2  A    between atoms: C_2  and  N_3
REMARK    3  A    between atoms: N_3  and  C_4
REMARK    4  A    between atoms: N_3  and  C_14
REMARK    5  A    between atoms: C_4  and  C_5
REMARK    6  A    between atoms: C_5  and  C_6
REMARK    7  A    between atoms: C_10  and  C_11
REMARK    8  A    between atoms: C_11  and  N_12
REMARK    9  A    between atoms: C_18  and  C_19
REMARK                            x       y       z     vdW  Elec       q    Type
REMARK                         _______ _______ _______ _____ _____    ______ ____
ROOT
ATOM      1  N   UNL     1      46.587   4.916  13.637  0.00  0.00    +0.000 N 
ENDROOT
BRANCH   1   2
ATOM      2  C   UNL     1      45.423   4.725  12.876  0.00  0.00    +0.000 A 
ATOM      3  C   UNL     1      44.161   5.194  13.263  0.00  0.00    +0.000 A 
ATOM      4  C   UNL     1      43.033   5.025  12.451  0.00  0.00    +0.000 A 
ATOM      5  C   UNL     1      43.145   4.370  11.228  0.00  0.00    +0.000 A 
ATOM      6  C   UNL     1      44.380   3.869  10.814  0.00  0.00    +0.000 A 
ATOM      7  C   UNL     1      45.495   4.032  11.650  0.00  0.00    +0.000 A 
BRANCH   6   8
ATOM      8  C   UNL     1      44.453   3.196   9.485  0.00  0.00    +0.000 C 
ATOM      9  N   UNL     1      44.558   1.834   9.434  0.00  0.00    +0.000 N 
ATOM     10  O   UNL     1      44.432   3.841   8.443  0.00  0.00    +0.000 OA
ATOM     11  H   UNL     1      44.582   1.217  10.230  0.00  0.00    +0.000 HD
ATOM     12  H   UNL     1      44.628   1.421   8.514  0.00  0.00    +0.000 HD
ENDBRANCH   6   8
ENDBRANCH   1   2
BRANCH   1  14
ATOM     13  C   UNL     1      47.570   4.602  15.945  0.00  0.00    +0.000 C 
ATOM     14  C   UNL     1      46.911   3.981  14.722  0.00  0.00    +0.000 C 
ENDBRANCH   1  14
BRANCH   1  15
ATOM     15  C   UNL     1      47.111   6.304  13.620  0.00  0.00    +0.000 C 
BRANCH  15  16
ATOM     16  C   UNL     1      47.337   6.934  12.239  0.00  0.00    +0.000 C 
BRANCH  16  17
ATOM     17  C   UNL     1      46.710   8.304  12.026  0.00  0.00    +0.000 A 
ATOM     18  C   UNL     1      47.394   9.520  12.177  0.00  0.00    +0.000 A 
ATOM     19  C   UNL     1      46.751  10.739  11.933  0.00  0.00    +0.000 A 
ATOM     20  C   UNL     1      45.422  10.764  11.517  0.00  0.00    +0.000 A 
ATOM     21  C   UNL     1      44.713   9.569  11.358  0.00  0.00    +0.000 A 
ATOM     22  C   UNL     1      45.364   8.353  11.629  0.00  0.00    +0.000 A 
BRANCH  21  23
ATOM     23  C   UNL     1      43.272   9.574  10.913  0.00  0.00    +0.000 C 
BRANCH  23  24
ATOM     24  N   UNL     1      42.712   8.226  10.908  0.00  0.00    +0.000 NA
ATOM     25  H   UNL     1      43.204   7.668  11.604  0.00  0.00    +0.000 HD
ATOM     26  H   UNL     1      42.889   7.792  10.007  0.00  0.00    +0.000 HD
ENDBRANCH  23  24
ENDBRANCH  21  23
ENDBRANCH  16  17
ENDBRANCH  15  16
ENDBRANCH   1  15
TORSDOF 8
ENDMDL
MODEL 4
REMARK VINA RESULT:    -6.130      2.941      8.065
REMARK INTER + INTRA:          -9.425
REMARK INTER:                  -8.727
REMARK INTRA:                  -0.699
REMARK UNBOUND:                -0.608
REMARK  Name = 
REMARK  9 active torsions:
REMARK  status: ('A' for Active; 'I' for Inactive)
REMARK    1  A    between atoms: C_1  and  C_2
REMARK    2  A    between atoms: C_2  and  N_3
REMARK    3  A    between atoms: N_3  and  C_4
REMARK    4  A    between atoms: N_3  and  C_14
REMARK    5  A    between atoms: C_4  and  C_5
REMARK    6  A    between atoms: C_5  and  C_6
REMARK    7  A    between atoms: C_10  and  C_11
REMARK    8  A    between atoms: C_11  and  N_12
REMARK    9  A    between atoms: C_18  and  C_19
REMARK                            x       y       z     vdW  Elec       q    Type
REMARK                         _______ _______ _______ _____ _____    ______ ____
ROOT
ATOM      1  N   UNL     1      46.343   6.787  12.942  0.00  0.00    +0.000 N 
ENDROOT
BRANCH   1   2
ATOM      2  C   UNL     1      45.417   6.002  12.237  0.00  0.00    +0.000 A 
ATOM      3  C   UNL     1      44.160   5.649  12.743  0.00  0.00    +0.000 A 
ATOM      4  C   UNL     1      43.246   4.905  11.987  0.00  0.00    +0.000 A 
ATOM      5  C   UNL     1      43.578   4.488  10.701  0.00  0.00    +0.000 A 
ATOM      6  C   UNL     1      44.830   4.800  10.168  0.00  0.00    +0.000 A 
ATOM      7  C   UNL     1      45.738   5.532  10.947  0.00  0.00    +0.000 A 
BRANCH   6   8
ATOM      8  C   UNL     1      45.129   4.352   8.777  0.00  0.00    +0.000 C 
ATOM      9  N   UNL     1      44.335   3.400   8.199  0.00  0.00    +0.000 N 
ATOM     10  O   UNL     1      46.077   4.810   8.150  0.00  0.00    +0.000 OA
ATOM     11  H   UNL     1      43.535   2.964   8.629  0.00  0.00    +0.000 HD
ATOM     12  H   UNL     1      44.587   3.109   7.265  0.00  0.00    +0.000 HD
ENDBRANCH   6   8
ENDBRANCH   1   2
BRANCH   1  14
ATOM     13  C   UNL     1      45.411   9.122  12.674  0.00  0.00    +0.000 C 
ATOM     14  C   UNL     1      46.592   8.172  12.525  0.00  0.00    +0.000 C 
ENDBRANCH   1  14
BRANCH   1  15
ATOM     15  C   UNL     1      47.344   6.012  13.713  0.00  0.00    +0.000 C 
BRANCH  15  16
ATOM     16  C   UNL     1      48.415   6.821  14.456  0.00  0.00    +0.000 C 
BRANCH  16  17
ATOM     17  C   UNL     1      48.683   6.401  15.895  0.00  0.00    +0.000 A 
ATOM     18  C   UNL     1      49.276   7.227  16.863  0.00  0.00    +0.000 A 
ATOM     19  C   UNL     1      49.461   6.774  18.174  0.00  0.00    +0.000 A 
ATOM     20  C   UNL     1      49.041   5.498  18.545  0.00  0.00    +0.000 A 
ATOM     21  C   UNL     1      48.448   4.652  17.603  0.00  0.00    +0.000 A 
ATOM     22  C   UNL     1      48.290   5.111  16.284  0.00  0.00    +0.000 A 
BRANCH  21  23
ATOM     23  C   UNL     1      47.991   3.266  17.983  0.00  0.00    +0.000 C 
BRANCH  23  24
ATOM     24  N   UNL     1      46.603   3.039  17.595  0.00  0.00    +0.000 NA
ATOM     25  H   UNL     1      46.548   2.155  17.089  0.00  0.00    +0.000 HD
ATOM     26  H   UNL     1      46.311   3.765  16.948  0.00  0.00    +0.000 HD
ENDBRANCH  23  24
ENDBRANCH  21  23
ENDBRANCH  16  17
ENDBRANCH  15  16
ENDBRANCH   1  15
TORSDOF 8
ENDMDL
MODEL 5
REMARK VINA RESULT:    -6.010      2.893      5.486
REMARK INTER + INTRA:          -9.253
REMARK INTER:                  -8.482
REMARK INTRA:                  -0.771
REMARK UNBOUND:                -0.608
REMARK  Name = 
REMARK  9 active torsions:
REMARK  status: ('A' for Active; 'I' for Inactive)
REMARK    1  A    between atoms: C_1  and  C_2
REMARK    2  A    between atoms: C_2  and  N_3
REMARK    3  A    between atoms: N_3  and  C_4
REMARK    4  A    between atoms: N_3  and  C_14
REMARK    5  A    between atoms: C_4  and  C_5
REMARK    6  A    between atoms: C_5  and  C_6
REMARK    7  A    between atoms: C_10  and  C_11
REMARK    8  A    between atoms: C_11  and  N_12
REMARK    9  A    between atoms: C_18  and  C_19
REMARK                            x       y       z     vdW  Elec       q    Type
REMARK                         _______ _______ _______ _____ _____    ______ ____
ROOT
ATOM      1  N   UNL     1      48.648   6.750  14.015  0.00  0.00    +0.000 N 
ENDROOT
BRANCH   1   2
ATOM      2  C   UNL     1      48.603   6.532  15.401  0.00  0.00    +0.000 A 
ATOM      3  C   UNL     1      48.954   7.504  16.347  0.00  0.00    +0.000 A 
ATOM      4  C   UNL     1      48.849   7.263  17.722  0.00  0.00    +0.000 A 
ATOM      5  C   UNL     1      48.395   6.031  18.183  0.00  0.00    +0.000 A 
ATOM      6  C   UNL     1      48.055   5.027  17.274  0.00  0.00    +0.000 A 
ATOM      7  C   UNL     1      48.184   5.282  15.900  0.00  0.00    +0.000 A 
BRANCH   6   8
ATOM      8  C   UNL     1      47.551   3.733  17.816  0.00  0.00    +0.000 C 
ATOM      9  N   UNL     1      48.178   3.175  18.896  0.00  0.00    +0.000 N 
ATOM     10  O   UNL     1      46.598   3.157  17.306  0.00  0.00    +0.000 OA
ATOM     11  H   UNL     1      48.965   3.569  19.385  0.00  0.00    +0.000 HD
ATOM     12  H   UNL     1      47.819   2.287  19.217  0.00  0.00    +0.000 HD
ENDBRANCH   6   8
ENDBRANCH   1   2
BRANCH   1  14
ATOM     13  C   UNL     1      49.457   8.005  11.975  0.00  0.00    +0.000 C 
ATOM     14  C   UNL     1      49.288   7.961  13.487  0.00  0.00    +0.000 C 
ENDBRANCH   1  14
BRANCH   1  15
ATOM     15  C   UNL     1      47.618   6.011  13.244  0.00  0.00    +0.000 C 
BRANCH  15  16
ATOM     16  C   UNL     1      46.251   6.692  13.099  0.00  0.00    +0.000 C 
BRANCH  16  17
ATOM     17  C   UNL     1      45.166   5.862  12.426  0.00  0.00    +0.000 A 
ATOM     18  C   UNL     1      43.945   5.519  13.028  0.00  0.00    +0.000 A 
ATOM     19  C   UNL     1      42.987   4.776  12.329  0.00  0.00    +0.000 A 
ATOM     20  C   UNL     1      43.223   4.380  11.014  0.00  0.00    +0.000 A 
ATOM     21  C   UNL     1      44.431   4.705  10.389  0.00  0.00    +0.000 A 
ATOM     22  C   UNL     1      45.394   5.432  11.109  0.00  0.00    +0.000 A 
BRANCH  21  23
ATOM     23  C   UNL     1      44.708   4.282   8.969  0.00  0.00    +0.000 C 
BRANCH  23  24
ATOM     24  N   UNL     1      45.855   4.994   8.415  0.00  0.00    +0.000 NA
ATOM     25  H   UNL     1      45.558   5.933   8.153  0.00  0.00    +0.000 HD
ATOM     26  H   UNL     1      46.156   4.534   7.560  0.00  0.00    +0.000 HD
ENDBRANCH  23  24
ENDBRANCH  21  23
ENDBRANCH  16  17
ENDBRANCH  15  16
ENDBRANCH   1  15
TORSDOF 8
ENDMDL
MODEL 6
REMARK VINA RESULT:    -5.975      3.509      5.350
REMARK INTER + INTRA:          -9.203
REMARK INTER:                  -7.787
REMARK INTRA:                  -1.416
REMARK UNBOUND:                -0.608
REMARK  Name = 
REMARK  9 active torsions:
REMARK  status: ('A' for Active; 'I' for Inactive)
REMARK    1  A    between atoms: C_1  and  C_2
REMARK    2  A    between atoms: C_2  and  N_3
REMARK    3  A    between atoms: N_3  and  C_4
REMARK    4  A    between atoms: N_3  and  C_14
REMARK    5  A    between atoms: C_4  and  C_5
REMARK    6  A    between atoms: C_5  and  C_6
REMARK    7  A    between atoms: C_10  and  C_11
REMARK    8  A    between atoms: C_11  and  N_12
REMARK    9  A    between atoms: C_18  and  C_19
REMARK                            x       y       z     vdW  Elec       q    Type
REMARK                         _______ _______ _______ _____ _____    ______ ____
ROOT
ATOM      1  N   UNL     1      47.437   8.161  12.883  0.00  0.00    +0.000 N 
ENDROOT
BRANCH   1   2
ATOM      2  C   UNL     1      47.866   7.413  13.991  0.00  0.00    +0.000 A 
ATOM      3  C   UNL     1      48.673   7.936  15.010  0.00  0.00    +0.000 A 
ATOM      4  C   UNL     1      49.039   7.171  16.123  0.00  0.00    +0.000 A 
ATOM      5  C   UNL     1      48.609   5.852  16.236  0.00  0.00    +0.000 A 
ATOM      6  C   UNL     1      47.821   5.285  15.233  0.00  0.00    +0.000 A 
ATOM      7  C   UNL     1      47.480   6.063  14.116  0.00  0.00    +0.000 A 
BRANCH   6   8
ATOM      8  C   UNL     1      47.366   3.877  15.412  0.00  0.00    +0.000 C 
ATOM      9  N   UNL     1      47.011   3.446  16.660  0.00  0.00    +0.000 N 
ATOM     10  O   UNL     1      47.315   3.099  14.466  0.00  0.00    +0.000 OA
ATOM     11  H   UNL     1      47.017   4.005  17.497  0.00  0.00    +0.000 HD
ATOM     12  H   UNL     1      46.731   2.478  16.741  0.00  0.00    +0.000 HD
ENDBRANCH   6   8
ENDBRANCH   1   2
BRANCH   1  14
ATOM     13  C   UNL     1      49.463   7.806  11.414  0.00  0.00    +0.000 C 
ATOM     14  C   UNL     1      48.427   8.765  11.983  0.00  0.00    +0.000 C 
ENDBRANCH   1  14
BRANCH   1  15
ATOM     15  C   UNL     1      46.059   8.696  13.000  0.00  0.00    +0.000 C 
BRANCH  15  16
ATOM     16  C   UNL     1      45.085   8.337  11.870  0.00  0.00    +0.000 C 
BRANCH  16  17
ATOM     17  C   UNL     1      45.040   6.867  11.477  0.00  0.00    +0.000 A 
ATOM     18  C   UNL     1      45.697   6.325  10.361  0.00  0.00    +0.000 A 
ATOM     19  C   UNL     1      45.629   4.955  10.085  0.00  0.00    +0.000 A 
ATOM     20  C   UNL     1      44.921   4.101  10.926  0.00  0.00    +0.000 A 
ATOM     21  C   UNL     1      44.254   4.610  12.045  0.00  0.00    +0.000 A 
ATOM     22  C   UNL     1      44.311   5.992  12.298  0.00  0.00    +0.000 A 
BRANCH  21  23
ATOM     23  C   UNL     1      43.478   3.704  12.966  0.00  0.00    +0.000 C 
BRANCH  23  24
ATOM     24  N   UNL     1      43.519   2.318  12.509  0.00  0.00    +0.000 NA
ATOM     25  H   UNL     1      44.461   1.957  12.657  0.00  0.00    +0.000 HD
ATOM     26  H   UNL     1      43.348   2.289  11.509  0.00  0.00    +0.000 HD
ENDBRANCH  23  24
ENDBRANCH  21  23
ENDBRANCH  16  17
ENDBRANCH  15  16
ENDBRANCH   1  15
TORSDOF 8
ENDMDL
MODEL 7
REMARK VINA RESULT:    -5.855      3.202      8.014
REMARK INTER + INTRA:          -9.029
REMARK INTER:                  -8.286
REMARK INTRA:                  -0.744
REMARK UNBOUND:                -0.608
REMARK  Name = 
REMARK  9 active torsions:
REMARK  status: ('A' for Active; 'I' for Inactive)
REMARK    1  A    between atoms: C_1  and  C_2
REMARK    2  A    between atoms: C_2  and  N_3
REMARK    3  A    between atoms: N_3  and  C_4
REMARK    4  A    between atoms: N_3  and  C_14
REMARK    5  A    between atoms: C_4  and  C_5
REMARK    6  A    between atoms: C_5  and  C_6
REMARK    7  A    between atoms: C_10  and  C_11
REMARK    8  A    between atoms: C_11  and  N_12
REMARK    9  A    between atoms: C_18  and  C_19
REMARK                            x       y       z     vdW  Elec       q    Type
REMARK                         _______ _______ _______ _____ _____    ______ ____
ROOT
ATOM      1  N   UNL     1      46.309   6.289  13.230  0.00  0.00    +0.000 N 
ENDROOT
BRANCH   1   2
ATOM      2  C   UNL     1      45.274   5.695  12.490  0.00  0.00    +0.000 A 
ATOM      3  C   UNL     1      43.941   5.656  12.920  0.00  0.00    +0.000 A 
ATOM      4  C   UNL     1      42.930   5.097  12.129  0.00  0.00    +0.000 A 
ATOM      5  C   UNL     1      43.236   4.553  10.885  0.00  0.00    +0.000 A 
ATOM      6  C   UNL     1      44.555   4.552  10.429  0.00  0.00    +0.000 A 
ATOM      7  C   UNL     1      45.557   5.101  11.243  0.00  0.00    +0.000 A 
BRANCH   6   8
ATOM      8  C   UNL     1      44.828   3.979   9.080  0.00  0.00    +0.000 C 
ATOM      9  N   UNL     1      44.345   2.736   8.774  0.00  0.00    +0.000 N 
ATOM     10  O   UNL     1      45.485   4.594   8.247  0.00  0.00    +0.000 OA
ATOM     11  H   UNL     1      43.796   2.154   9.385  0.00  0.00    +0.000 HD
ATOM     12  H   UNL     1      44.573   2.377   7.857  0.00  0.00    +0.000 HD
ENDBRANCH   6   8
ENDBRANCH   1   2
BRANCH   1  14
ATOM     13  C   UNL     1      47.845   7.967  12.129  0.00  0.00    +0.000 C 
ATOM     14  C   UNL     1      46.638   7.703  13.017  0.00  0.00    +0.000 C 
ENDBRANCH   1  14
BRANCH   1  15
ATOM     15  C   UNL     1      47.298   5.331  13.780  0.00  0.00    +0.000 C 
BRANCH  15  16
ATOM     16  C   UNL     1      46.769   4.304  14.790  0.00  0.00    +0.000 C 
BRANCH  16  17
ATOM     17  C   UNL     1      47.522   4.225  16.111  0.00  0.00    +0.000 A 
ATOM     18  C   UNL     1      47.607   3.072  16.906  0.00  0.00    +0.000 A 
ATOM     19  C   UNL     1      48.346   3.075  18.095  0.00  0.00    +0.000 A 
ATOM     20  C   UNL     1      49.026   4.221  18.500  0.00  0.00    +0.000 A 
ATOM     21  C   UNL     1      48.959   5.386  17.730  0.00  0.00    +0.000 A 
ATOM     22  C   UNL     1      48.195   5.377  16.550  0.00  0.00    +0.000 A 
BRANCH  21  23
ATOM     23  C   UNL     1      49.683   6.639  18.152  0.00  0.00    +0.000 C 
BRANCH  23  24
ATOM     24  N   UNL     1      48.822   7.813  18.049  0.00  0.00    +0.000 NA
ATOM     25  H   UNL     1      49.116   8.493  18.750  0.00  0.00    +0.000 HD
ATOM     26  H   UNL     1      47.868   7.551  18.277  0.00  0.00    +0.000 HD
ENDBRANCH  23  24
ENDBRANCH  21  23
ENDBRANCH  16  17
ENDBRANCH  15  16
ENDBRANCH   1  15
TORSDOF 8
ENDMDL
MODEL 8
REMARK VINA RESULT:    -5.811      3.874      8.343
REMARK INTER + INTRA:          -8.967
REMARK INTER:                  -8.112
REMARK INTRA:                  -0.855
REMARK UNBOUND:                -0.608
REMARK  Name = 
REMARK  9 active torsions:
REMARK  status: ('A' for Active; 'I' for Inactive)
REMARK    1  A    between atoms: C_1  and  C_2
REMARK    2  A    between atoms: C_2  and  N_3
REMARK    3  A    between atoms: N_3  and  C_4
REMARK    4  A    between atoms: N_3  and  C_14
REMARK    5  A    between atoms: C_4  and  C_5
REMARK    6  A    between atoms: C_5  and  C_6
REMARK    7  A    between atoms: C_10  and  C_11
REMARK    8  A    between atoms: C_11  and  N_12
REMARK    9  A    between atoms: C_18  and  C_19
REMARK                            x       y       z     vdW  Elec       q    Type
REMARK                         _______ _______ _______ _____ _____    ______ ____
ROOT
ATOM      1  N   UNL     1      47.635   6.972  13.064  0.00  0.00    +0.000 N 
ENDROOT
BRANCH   1   2
ATOM      2  C   UNL     1      46.839   5.847  12.796  0.00  0.00    +0.000 A 
ATOM      3  C   UNL     1      46.980   4.625  13.466  0.00  0.00    +0.000 A 
ATOM      4  C   UNL     1      46.133   3.541  13.203  0.00  0.00    +0.000 A 
ATOM      5  C   UNL     1      45.126   3.657  12.250  0.00  0.00    +0.000 A 
ATOM      6  C   UNL     1      44.965   4.850  11.545  0.00  0.00    +0.000 A 
ATOM      7  C   UNL     1      45.834   5.919  11.810  0.00  0.00    +0.000 A 
BRANCH   6   8
ATOM      8  C   UNL     1      43.856   4.933  10.552  0.00  0.00    +0.000 C 
ATOM      9  N   UNL     1      44.097   4.574   9.254  0.00  0.00    +0.000 N 
ATOM     10  O   UNL     1      42.741   5.325  10.873  0.00  0.00    +0.000 OA
ATOM     11  H   UNL     1      44.975   4.238   8.892  0.00  0.00    +0.000 HD
ATOM     12  H   UNL     1      43.324   4.666   8.609  0.00  0.00    +0.000 HD
ENDBRANCH   6   8
ENDBRANCH   1   2
BRANCH   1  14
ATOM     13  C   UNL     1      49.055   8.628  11.787  0.00  0.00    +0.000 C 
ATOM     14  C   UNL     1      47.670   8.085  12.107  0.00  0.00    +0.000 C 
ENDBRANCH   1  14
BRANCH   1  15
ATOM     15  C   UNL     1      48.743   6.727  14.018  0.00  0.00    +0.000 C 
BRANCH  15  16
ATOM     16  C   UNL     1      48.673   7.472  15.357  0.00  0.00    +0.000 C 
BRANCH  16  17
ATOM     17  C   UNL     1      48.876   6.619  16.602  0.00  0.00    +0.000 A 
ATOM     18  C   UNL     1      49.451   7.084  17.795  0.00  0.00    +0.000 A 
ATOM     19  C   UNL     1      49.575   6.242  18.905  0.00  0.00    +0.000 A 
ATOM     20  C   UNL     1      49.112   4.929  18.850  0.00  0.00    +0.000 A 
ATOM     21  C   UNL     1      48.536   4.436  17.675  0.00  0.00    +0.000 A 
ATOM     22  C   UNL     1      48.438   5.286  16.560  0.00  0.00    +0.000 A 
BRANCH  21  23
ATOM     23  C   UNL     1      48.032   3.018  17.593  0.00  0.00    +0.000 C 
BRANCH  23  24
ATOM     24  N   UNL     1      46.574   2.966  17.637  0.00  0.00    +0.000 NA
ATOM     25  H   UNL     1      46.226   3.886  17.907  0.00  0.00    +0.000 HD
ATOM     26  H   UNL     1      46.282   2.319  18.363  0.00  0.00    +0.000 HD
ENDBRANCH  23  24
ENDBRANCH  21  23
ENDBRANCH  16  17
ENDBRANCH  15  16
ENDBRANCH   1  15
TORSDOF 8
ENDMDL
MODEL 9
REMARK VINA RESULT:    -5.680      3.276      7.223
REMARK INTER + INTRA:          -8.777
REMARK INTER:                  -7.962
REMARK INTRA:                  -0.815
REMARK UNBOUND:                -0.608
REMARK  Name = 
REMARK  9 active torsions:
REMARK  status: ('A' for Active; 'I' for Inactive)
REMARK    1  A    between atoms: C_1  and  C_2
REMARK    2  A    between atoms: C_2  and  N_3
REMARK    3  A    between atoms: N_3  and  C_4
REMARK    4  A    between atoms: N_3  and  C_14
REMARK    5  A    between atoms: C_4  and  C_5
REMARK    6  A    between atoms: C_5  and  C_6
REMARK    7  A    between atoms: C_10  and  C_11
REMARK    8  A    between atoms: C_11  and  N_12
REMARK    9  A    between atoms: C_18  and  C_19
REMARK                            x       y       z     vdW  Elec       q    Type
REMARK                         _______ _______ _______ _____ _____    ______ ____
ROOT
ATOM      1  N   UNL     1      45.105   7.194  12.218  0.00  0.00    +0.000 N 
ENDROOT
BRANCH   1   2
ATOM      2  C   UNL     1      44.655   5.873  12.058  0.00  0.00    +0.000 A 
ATOM      3  C   UNL     1      43.919   5.185  13.031  0.00  0.00    +0.000 A 
ATOM      4  C   UNL     1      43.446   3.886  12.812  0.00  0.00    +0.000 A 
ATOM      5  C   UNL     1      43.710   3.240  11.608  0.00  0.00    +0.000 A 
ATOM      6  C   UNL     1      44.459   3.882  10.620  0.00  0.00    +0.000 A 
ATOM      7  C   UNL     1      44.938   5.178  10.865  0.00  0.00    +0.000 A 
BRANCH   6   8
ATOM      8  C   UNL     1      44.694   3.158   9.338  0.00  0.00    +0.000 C 
ATOM      9  N   UNL     1      44.291   3.734   8.165  0.00  0.00    +0.000 N 
ATOM     10  O   UNL     1      45.230   2.056   9.318  0.00  0.00    +0.000 OA
ATOM     11  H   UNL     1      43.845   4.632   8.075  0.00  0.00    +0.000 HD
ATOM     12  H   UNL     1      44.449   3.199   7.322  0.00  0.00    +0.000 HD
ENDBRANCH   6   8
ENDBRANCH   1   2
BRANCH   1  14
ATOM     13  C   UNL     1      44.710   9.667  11.874  0.00  0.00    +0.000 C 
ATOM     14  C   UNL     1      44.602   8.249  11.330  0.00  0.00    +0.000 C 
ENDBRANCH   1  14
BRANCH   1  15
ATOM     15  C   UNL     1      46.406   7.317  12.920  0.00  0.00    +0.000 C 
BRANCH  15  16
ATOM     16  C   UNL     1      47.651   6.876  12.140  0.00  0.00    +0.000 C 
BRANCH  16  17
ATOM     17  C   UNL     1      48.697   7.954  11.897  0.00  0.00    +0.000 A 
ATOM     18  C   UNL     1      50.007   7.702  11.458  0.00  0.00    +0.000 A 
ATOM     19  C   UNL     1      50.901   8.755  11.231  0.00  0.00    +0.000 A 
ATOM     20  C   UNL     1      50.498  10.075  11.420  0.00  0.00    +0.000 A 
ATOM     21  C   UNL     1      49.201  10.358  11.858  0.00  0.00    +0.000 A 
ATOM     22  C   UNL     1      48.320   9.291  12.105  0.00  0.00    +0.000 A 
BRANCH  21  23
ATOM     23  C   UNL     1      48.747  11.779  12.073  0.00  0.00    +0.000 C 
BRANCH  23  24
ATOM     24  N   UNL     1      47.449  11.829  12.740  0.00  0.00    +0.000 NA
ATOM     25  H   UNL     1      47.561  11.481  13.692  0.00  0.00    +0.000 HD
ATOM     26  H   UNL     1      46.806  11.198  12.272  0.00  0.00    +0.000 HD
ENDBRANCH  23  24
ENDBRANCH  21  23
ENDBRANCH  16  17
ENDBRANCH  15  16
ENDBRANCH   1  15
TORSDOF 8
ENDMDL
