MODEL 1
REMARK VINA RESULT:    -8.103      0.000      0.000
REMARK INTER + INTRA:         -13.840
REMARK INTER:                 -12.367
REMARK INTRA:                  -1.473
REMARK UNBOUND:                -1.473
REMARK  Name = 
REMARK  10 active torsions:
REMARK  status: ('A' for Active; 'I' for Inactive)
REMARK    1  A    between atoms: C_1  and  C_2
REMARK    2  A    between atoms: C_2  and  O_3
REMARK    3  A    between atoms: O_3  and  C_4
REMARK    4  A    between atoms: C_4  and  C_6
REMARK    5  A    between atoms: C_9  and  C_10
REMARK    6  A    between atoms: C_10  and  O_11
REMARK    7  A    between atoms: O_11  and  C_12
REMARK    8  A    between atoms: C_15  and  C_16
REMARK    9  A    between atoms: C_16  and  N_17
REMARK   10  A    between atoms: C_18  and  C_20
REMARK                            x       y       z     vdW  Elec       q    Type
REMARK                         _______ _______ _______ _____ _____    ______ ____
ROOT
ATOM      1  C   UNL     1      44.783   4.504  12.167  0.00  0.00    +0.000 A 
ATOM      2  C   UNL     1      44.798   5.897  12.089  0.00  0.00    +0.000 A 
ATOM      3  C   UNL     1      45.873   6.620  12.615  0.00  0.00    +0.000 A 
ATOM      4  C   UNL     1      46.944   5.952  13.225  0.00  0.00    +0.000 A 
ATOM      5  C   UNL     1      46.878   4.561  13.371  0.00  0.00    +0.000 A 
ATOM      6  C   UNL     1      45.803   3.842  12.851  0.00  0.00    +0.000 A 
ENDROOT
BRANCH   1   7
ATOM      7  O   UNL     1      43.734   3.879  11.545  0.00  0.00    +0.000 OA
BRANCH   7   8
ATOM      8  C   UNL     1      43.586   4.218  10.162  0.00  0.00    +0.000 C 
BRANCH   8  12
ATOM      9  C   UNL     1      46.564   2.453   7.577  0.00  0.00    +0.000 A 
ATOM     10  C   UNL     1      45.797   1.635   8.414  0.00  0.00    +0.000 A 
ATOM     11  C   UNL     1      44.848   2.198   9.269  0.00  0.00    +0.000 A 
ATOM     12  C   UNL     1      44.662   3.585   9.312  0.00  0.00    +0.000 A 
ATOM     13  C   UNL     1      45.427   4.400   8.465  0.00  0.00    +0.000 A 
ATOM     14  C   UNL     1      46.372   3.841   7.604  0.00  0.00    +0.000 A 
BRANCH   9  15
ATOM     15  C   UNL     1      47.617   1.817   6.744  0.00  0.00    +0.000 C 
ATOM     16  O   UNL     1      48.805   2.079   6.834  0.00  0.00    +0.000 OA
BRANCH  15  17
ATOM     17  O   UNL     1      47.039   1.021   5.811  0.00  0.00    +0.000 OA
BRANCH  17  19
ATOM     18  C   UNL     1      46.563   0.494   3.538  0.00  0.00    +0.000 C 
ATOM     19  C   UNL     1      46.879   1.612   4.517  0.00  0.00    +0.000 C 
ENDBRANCH  17  19
ENDBRANCH  15  17
ENDBRANCH   9  15
ENDBRANCH   8  12
ENDBRANCH   7   8
ENDBRANCH   1   7
BRANCH   4  20
ATOM     20  C   UNL     1      48.138   6.702  13.749  0.00  0.00    +0.000 C 
BRANCH  20  21
ATOM     21  N   UNL     1      48.186   6.662  15.185  0.00  0.00    +0.000 N 
ATOM     22  C   UNL     1      49.380   6.741  15.853  0.00  0.00    +0.000 C 
ATOM     23  O   UNL     1      50.446   6.904  15.264  0.00  0.00    +0.000 OA
ATOM     24  H   UNL     1      47.367   6.303  15.665  0.00  0.00    +0.000 HD
BRANCH  22  25
ATOM     25  C   UNL     1      49.313   6.687  17.316  0.00  0.00    +0.000 A 
ATOM     26  C   UNL     1      49.552   7.835  18.059  0.00  0.00    +0.000 A 
ATOM     27  S   UNL     1      49.367   7.612  19.739  0.00  0.00    +0.000 S 
ATOM     28  C   UNL     1      49.017   5.960  19.537  0.00  0.00    +0.000 A 
ATOM     29  N   UNL     1      48.768   5.161  20.609  0.00  0.00    +0.000 NA
ATOM     30  C   UNL     1      48.550   3.924  20.312  0.00  0.00    +0.000 A 
ATOM     31  N   UNL     1      48.554   3.411  19.041  0.00  0.00    +0.000 N 
ATOM     32  C   UNL     1      48.773   4.185  17.925  0.00  0.00    +0.000 A 
ATOM     33  O   UNL     1      48.729   3.702  16.800  0.00  0.00    +0.000 OA
ATOM     34  C   UNL     1      49.028   5.585  18.204  0.00  0.00    +0.000 A 
ATOM     35  H   UNL     1      48.369   2.434  18.876  0.00  0.00    +0.000 HD
ENDBRANCH  22  25
ENDBRANCH  20  21
ENDBRANCH   4  20
TORSDOF 9
ENDMDL
MODEL 2
REMARK VINA RESULT:    -8.071      1.443      2.166
REMARK INTER + INTRA:         -13.791
REMARK INTER:                 -12.230
REMARK INTRA:                  -1.561
REMARK UNBOUND:                -1.473
REMARK  Name = 
REMARK  10 active torsions:
REMARK  status: ('A' for Active; 'I' for Inactive)
REMARK    1  A    between atoms: C_1  and  C_2
REMARK    2  A    between atoms: C_2  and  O_3
REMARK    3  A    between atoms: O_3  and  C_4
REMARK    4  A    between atoms: C_4  and  C_6
REMARK    5  A    between atoms: C_9  and  C_10
REMARK    6  A    between atoms: C_10  and  O_11
REMARK    7  A    between atoms: O_11  and  C_12
REMARK    8  A    between atoms: C_15  and  C_16
REMARK    9  A    between atoms: C_16  and  N_17
REMARK   10  A    between atoms: C_18  and  C_20
REMARK                            x       y       z     vdW  Elec       q    Type
REMARK                         _______ _______ _______ _____ _____    ______ ____
ROOT
ATOM      1  C   UNL     1      44.954   4.736  12.070  0.00  0.00    +0.000 A 
ATOM      2  C   UNL     1      45.740   3.977  12.938  0.00  0.00    +0.000 A 
ATOM      3  C   UNL     1      46.809   4.566  13.617  0.00  0.00    +0.000 A 
ATOM      4  C   UNL     1      47.101   5.925  13.433  0.00  0.00    +0.000 A 
ATOM      5  C   UNL     1      46.359   6.656  12.498  0.00  0.00    +0.000 A 
ATOM      6  C   UNL     1      45.296   6.065  11.816  0.00  0.00    +0.000 A 
ENDROOT
BRANCH   1   7
ATOM      7  O   UNL     1      43.876   4.094  11.519  0.00  0.00    +0.000 OA
BRANCH   7   8
ATOM      8  C   UNL     1      43.696   4.346  10.121  0.00  0.00    +0.000 C 
BRANCH   8  12
ATOM      9  C   UNL     1      46.552   2.338   7.575  0.00  0.00    +0.000 A 
ATOM     10  C   UNL     1      45.758   1.591   8.453  0.00  0.00    +0.000 A 
ATOM     11  C   UNL     1      44.849   2.233   9.296  0.00  0.00    +0.000 A 
ATOM     12  C   UNL     1      44.729   3.628   9.285  0.00  0.00    +0.000 A 
ATOM     13  C   UNL     1      45.520   4.371   8.396  0.00  0.00    +0.000 A 
ATOM     14  C   UNL     1      46.426   3.733   7.548  0.00  0.00    +0.000 A 
BRANCH   9  15
ATOM     15  C   UNL     1      47.561   1.620   6.756  0.00  0.00    +0.000 C 
ATOM     16  O   UNL     1      48.695   2.029   6.562  0.00  0.00    +0.000 OA
BRANCH  15  17
ATOM     17  O   UNL     1      46.989   0.538   6.175  0.00  0.00    +0.000 OA
BRANCH  17  19
ATOM     18  C   UNL     1      46.462   1.240   3.961  0.00  0.00    +0.000 C 
ATOM     19  C   UNL     1      47.335   0.325   4.802  0.00  0.00    +0.000 C 
ENDBRANCH  17  19
ENDBRANCH  15  17
ENDBRANCH   9  15
ENDBRANCH   8  12
ENDBRANCH   7   8
ENDBRANCH   1   7
BRANCH   4  20
ATOM     20  C   UNL     1      48.212   6.596  14.195  0.00  0.00    +0.000 C 
BRANCH  20  21
ATOM     21  N   UNL     1      48.055   6.408  15.611  0.00  0.00    +0.000 N 
ATOM     22  C   UNL     1      49.141   6.174  16.416  0.00  0.00    +0.000 C 
ATOM     23  O   UNL     1      50.288   6.168  15.976  0.00  0.00    +0.000 OA
ATOM     24  H   UNL     1      47.125   6.183  15.948  0.00  0.00    +0.000 HD
BRANCH  22  25
ATOM     25  C   UNL     1      48.866   5.994  17.844  0.00  0.00    +0.000 A 
ATOM     26  C   UNL     1      49.109   4.765  18.442  0.00  0.00    +0.000 A 
ATOM     27  S   UNL     1      48.799   4.749  20.119  0.00  0.00    +0.000 S 
ATOM     28  C   UNL     1      48.276   6.367  20.093  0.00  0.00    +0.000 A 
ATOM     29  N   UNL     1      47.847   6.982  21.228  0.00  0.00    +0.000 NA
ATOM     30  C   UNL     1      47.449   8.198  21.058  0.00  0.00    +0.000 A 
ATOM     31  N   UNL     1      47.443   8.859  19.857  0.00  0.00    +0.000 N 
ATOM     32  C   UNL     1      47.893   8.289  18.689  0.00  0.00    +0.000 A 
ATOM     33  O   UNL     1      47.911   8.921  17.640  0.00  0.00    +0.000 OA
ATOM     34  C   UNL     1      48.348   6.918  18.825  0.00  0.00    +0.000 A 
ATOM     35  H   UNL     1      47.125   9.813  19.793  0.00  0.00    +0.000 HD
ENDBRANCH  22  25
ENDBRANCH  20  21
ENDBRANCH   4  20
TORSDOF 9
ENDMDL
MODEL 3
REMARK VINA RESULT:    -8.026      1.171      1.616
REMARK INTER + INTRA:         -13.722
REMARK INTER:                 -12.703
REMARK INTRA:                  -1.019
REMARK UNBOUND:                -1.473
REMARK  Name = 
REMARK  10 active torsions:
REMARK  status: ('A' for Active; 'I' for Inactive)
REMARK    1  A    between atoms: C_1  and  C_2
REMARK    2  A    between atoms: C_2  and  O_3
REMARK    3  A    between atoms: O_3  and  C_4
REMARK    4  A    between atoms: C_4  and  C_6
REMARK    5  A    between atoms: C_9  and  C_10
REMARK    6  A    between atoms: C_10  and  O_11
REMARK    7  A    between atoms: O_11  and  C_12
REMARK    8  A    between atoms: C_15  and  C_16
REMARK    9  A    between atoms: C_16  and  N_17
REMARK   10  A    between atoms: C_18  and  C_20
REMARK                            x       y       z     vdW  Elec       q    Type
REMARK                         _______ _______ _______ _____ _____    ______ ____
ROOT
ATOM      1  C   UNL     1      44.470   5.885  11.293  0.00  0.00    +0.000 A 
ATOM      2  C   UNL     1      44.512   7.279  11.241  0.00  0.00    +0.000 A 
ATOM      3  C   UNL     1      45.474   7.982  11.972  0.00  0.00    +0.000 A 
ATOM      4  C   UNL     1      46.404   7.293  12.762  0.00  0.00    +0.000 A 
ATOM      5  C   UNL     1      46.300   5.901  12.872  0.00  0.00    +0.000 A 
ATOM      6  C   UNL     1      45.336   5.202  12.147  0.00  0.00    +0.000 A 
ENDROOT
BRANCH   1   7
ATOM      7  O   UNL     1      43.551   5.281  10.475  0.00  0.00    +0.000 OA
BRANCH   7   8
ATOM      8  C   UNL     1      43.650   3.853  10.437  0.00  0.00    +0.000 C 
BRANCH   8  12
ATOM      9  C   UNL     1      46.472   2.484   7.466  0.00  0.00    +0.000 A 
ATOM     10  C   UNL     1      46.071   3.825   7.477  0.00  0.00    +0.000 A 
ATOM     11  C   UNL     1      45.142   4.272   8.420  0.00  0.00    +0.000 A 
ATOM     12  C   UNL     1      44.590   3.385   9.353  0.00  0.00    +0.000 A 
ATOM     13  C   UNL     1      45.002   2.044   9.342  0.00  0.00    +0.000 A 
ATOM     14  C   UNL     1      45.934   1.595   8.406  0.00  0.00    +0.000 A 
BRANCH   9  15
ATOM     15  C   UNL     1      47.399   2.037   6.395  0.00  0.00    +0.000 C 
ATOM     16  O   UNL     1      48.583   1.800   6.577  0.00  0.00    +0.000 OA
BRANCH  15  17
ATOM     17  O   UNL     1      46.760   2.062   5.200  0.00  0.00    +0.000 OA
BRANCH  17  19
ATOM     18  C   UNL     1      46.018   0.926   3.244  0.00  0.00    +0.000 C 
ATOM     19  C   UNL     1      47.108   1.006   4.298  0.00  0.00    +0.000 C 
ENDBRANCH  17  19
ENDBRANCH  15  17
ENDBRANCH   9  15
ENDBRANCH   8  12
ENDBRANCH   7   8
ENDBRANCH   1   7
BRANCH   4  20
ATOM     20  C   UNL     1      47.484   8.023  13.514  0.00  0.00    +0.000 C 
BRANCH  20  21
ATOM     21  N   UNL     1      47.779   7.370  14.760  0.00  0.00    +0.000 N 
ATOM     22  C   UNL     1      49.049   6.938  15.047  0.00  0.00    +0.000 C 
ATOM     23  O   UNL     1      49.991   7.134  14.284  0.00  0.00    +0.000 OA
ATOM     24  H   UNL     1      46.994   7.000  15.285  0.00  0.00    +0.000 HD
BRANCH  22  25
ATOM     25  C   UNL     1      49.236   6.284  16.345  0.00  0.00    +0.000 A 
ATOM     26  C   UNL     1      50.090   6.848  17.283  0.00  0.00    +0.000 A 
ATOM     27  S   UNL     1      50.139   5.997  18.759  0.00  0.00    +0.000 S 
ATOM     28  C   UNL     1      49.066   4.813  18.177  0.00  0.00    +0.000 A 
ATOM     29  N   UNL     1      48.693   3.762  18.955  0.00  0.00    +0.000 NA
ATOM     30  C   UNL     1      47.901   2.924  18.376  0.00  0.00    +0.000 A 
ATOM     31  N   UNL     1      47.444   3.040  17.089  0.00  0.00    +0.000 N 
ATOM     32  C   UNL     1      47.770   4.099  16.273  0.00  0.00    +0.000 A 
ATOM     33  O   UNL     1      47.311   4.194  15.142  0.00  0.00    +0.000 OA
ATOM     34  C   UNL     1      48.664   5.069  16.877  0.00  0.00    +0.000 A 
ATOM     35  H   UNL     1      46.820   2.353  16.697  0.00  0.00    +0.000 HD
ENDBRANCH  22  25
ENDBRANCH  20  21
ENDBRANCH   4  20
TORSDOF 9
ENDMDL
MODEL 4
REMARK VINA RESULT:    -8.020      2.273      3.759
REMARK INTER + INTRA:         -13.713
REMARK INTER:                 -12.668
REMARK INTRA:                  -1.046
REMARK UNBOUND:                -1.473
REMARK  Name = 
REMARK  10 active torsions:
REMARK  status: ('A' for Active; 'I' for Inactive)
REMARK    1  A    between atoms: C_1  and  C_2
REMARK    2  A    between atoms: C_2  and  O_3
REMARK    3  A    between atoms: O_3  and  C_4
REMARK    4  A    between atoms: C_4  and  C_6
REMARK    5  A    between atoms: C_9  and  C_10
REMARK    6  A    between atoms: C_10  and  O_11
REMARK    7  A    between atoms: O_11  and  C_12
REMARK    8  A    between atoms: C_15  and  C_16
REMARK    9  A    between atoms: C_16  and  N_17
REMARK   10  A    between atoms: C_18  and  C_20
REMARK                            x       y       z     vdW  Elec       q    Type
REMARK                         _______ _______ _______ _____ _____    ______ ____
ROOT
ATOM      1  C   UNL     1      45.175   4.178   8.791  0.00  0.00    +0.000 A 
ATOM      2  C   UNL     1      45.532   5.284   9.563  0.00  0.00    +0.000 A 
ATOM      3  C   UNL     1      45.207   5.329  10.922  0.00  0.00    +0.000 A 
ATOM      4  C   UNL     1      44.522   4.263  11.521  0.00  0.00    +0.000 A 
ATOM      5  C   UNL     1      44.097   3.196  10.719  0.00  0.00    +0.000 A 
ATOM      6  C   UNL     1      44.416   3.156   9.363  0.00  0.00    +0.000 A 
ENDROOT
BRANCH   1   7
ATOM      7  O   UNL     1      45.614   4.185   7.493  0.00  0.00    +0.000 OA
BRANCH   7   8
ATOM      8  C   UNL     1      46.968   3.748   7.330  0.00  0.00    +0.000 C 
BRANCH   8  12
ATOM      9  C   UNL     1      47.061   0.333   4.686  0.00  0.00    +0.000 A 
ATOM     10  C   UNL     1      47.190   0.146   6.067  0.00  0.00    +0.000 A 
ATOM     11  C   UNL     1      47.184   1.245   6.928  0.00  0.00    +0.000 A 
ATOM     12  C   UNL     1      47.064   2.546   6.422  0.00  0.00    +0.000 A 
ATOM     13  C   UNL     1      46.927   2.726   5.037  0.00  0.00    +0.000 A 
ATOM     14  C   UNL     1      46.927   1.630   4.175  0.00  0.00    +0.000 A 
BRANCH   9  15
ATOM     15  C   UNL     1      47.155  -0.859   3.804  0.00  0.00    +0.000 C 
ATOM     16  O   UNL     1      47.638  -0.838   2.683  0.00  0.00    +0.000 OA
BRANCH  15  17
ATOM     17  O   UNL     1      46.518  -1.905   4.384  0.00  0.00    +0.000 OA
BRANCH  17  19
ATOM     18  C   UNL     1      46.757  -4.240   4.785  0.00  0.00    +0.000 C 
ATOM     19  C   UNL     1      46.674  -3.163   3.718  0.00  0.00    +0.000 C 
ENDBRANCH  17  19
ENDBRANCH  15  17
ENDBRANCH   9  15
ENDBRANCH   8  12
ENDBRANCH   7   8
ENDBRANCH   1   7
BRANCH   4  20
ATOM     20  C   UNL     1      44.210   4.262  12.992  0.00  0.00    +0.000 C 
BRANCH  20  21
ATOM     21  N   UNL     1      45.237   4.934  13.740  0.00  0.00    +0.000 N 
ATOM     22  C   UNL     1      46.399   4.289  14.079  0.00  0.00    +0.000 C 
ATOM     23  O   UNL     1      46.635   3.139  13.717  0.00  0.00    +0.000 OA
ATOM     24  H   UNL     1      44.972   5.779  14.235  0.00  0.00    +0.000 HD
BRANCH  22  25
ATOM     25  C   UNL     1      47.377   5.068  14.843  0.00  0.00    +0.000 A 
ATOM     26  C   UNL     1      48.081   6.090  14.221  0.00  0.00    +0.000 A 
ATOM     27  S   UNL     1      49.125   6.936  15.270  0.00  0.00    +0.000 S 
ATOM     28  C   UNL     1      48.717   5.930  16.578  0.00  0.00    +0.000 A 
ATOM     29  N   UNL     1      49.284   6.108  17.802  0.00  0.00    +0.000 NA
ATOM     30  C   UNL     1      48.908   5.253  18.693  0.00  0.00    +0.000 A 
ATOM     31  N   UNL     1      48.013   4.237  18.475  0.00  0.00    +0.000 N 
ATOM     32  C   UNL     1      47.394   4.035  17.264  0.00  0.00    +0.000 A 
ATOM     33  O   UNL     1      46.569   3.142  17.114  0.00  0.00    +0.000 OA
ATOM     34  C   UNL     1      47.786   4.968  16.224  0.00  0.00    +0.000 A 
ATOM     35  H   UNL     1      47.756   3.607  19.218  0.00  0.00    +0.000 HD
ENDBRANCH  22  25
ENDBRANCH  20  21
ENDBRANCH   4  20
TORSDOF 9
ENDMDL
MODEL 5
REMARK VINA RESULT:    -7.456      1.906      3.054
REMARK INTER + INTRA:         -12.853
REMARK INTER:                 -11.375
REMARK INTRA:                  -1.478
REMARK UNBOUND:                -1.473
REMARK  Name = 
REMARK  10 active torsions:
REMARK  status: ('A' for Active; 'I' for Inactive)
REMARK    1  A    between atoms: C_1  and  C_2
REMARK    2  A    between atoms: C_2  and  O_3
REMARK    3  A    between atoms: O_3  and  C_4
REMARK    4  A    between atoms: C_4  and  C_6
REMARK    5  A    between atoms: C_9  and  C_10
REMARK    6  A    between atoms: C_10  and  O_11
REMARK    7  A    between atoms: O_11  and  C_12
REMARK    8  A    between atoms: C_15  and  C_16
REMARK    9  A    between atoms: C_16  and  N_17
REMARK   10  A    between atoms: C_18  and  C_20
REMARK                            x       y       z     vdW  Elec       q    Type
REMARK                         _______ _______ _______ _____ _____    ______ ____
ROOT
ATOM      1  C   UNL     1      45.277   5.772  11.934  0.00  0.00    +0.000 A 
ATOM      2  C   UNL     1      44.762   4.889  12.883  0.00  0.00    +0.000 A 
ATOM      3  C   UNL     1      45.547   4.482  13.966  0.00  0.00    +0.000 A 
ATOM      4  C   UNL     1      46.858   4.959  14.107  0.00  0.00    +0.000 A 
ATOM      5  C   UNL     1      47.391   5.778  13.105  0.00  0.00    +0.000 A 
ATOM      6  C   UNL     1      46.609   6.178  12.023  0.00  0.00    +0.000 A 
ENDROOT
BRANCH   1   7
ATOM      7  O   UNL     1      44.404   6.183  10.960  0.00  0.00    +0.000 OA
BRANCH   7   8
ATOM      8  C   UNL     1      43.584   5.136  10.430  0.00  0.00    +0.000 C 
BRANCH   8  12
ATOM      9  C   UNL     1      45.980   2.261   8.271  0.00  0.00    +0.000 A 
ATOM     10  C   UNL     1      46.143   3.629   8.021  0.00  0.00    +0.000 A 
ATOM     11  C   UNL     1      45.357   4.565   8.697  0.00  0.00    +0.000 A 
ATOM     12  C   UNL     1      44.389   4.148   9.620  0.00  0.00    +0.000 A 
ATOM     13  C   UNL     1      44.237   2.777   9.873  0.00  0.00    +0.000 A 
ATOM     14  C   UNL     1      45.024   1.839   9.203  0.00  0.00    +0.000 A 
BRANCH   9  15
ATOM     15  C   UNL     1      46.780   1.301   7.469  0.00  0.00    +0.000 C 
ATOM     16  O   UNL     1      46.895   0.117   7.743  0.00  0.00    +0.000 OA
BRANCH  15  17
ATOM     17  O   UNL     1      47.443   1.965   6.492  0.00  0.00    +0.000 OA
BRANCH  17  19
ATOM     18  C   UNL     1      46.668   1.613   4.268  0.00  0.00    +0.000 C 
ATOM     19  C   UNL     1      47.702   1.209   5.304  0.00  0.00    +0.000 C 
ENDBRANCH  17  19
ENDBRANCH  15  17
ENDBRANCH   9  15
ENDBRANCH   8  12
ENDBRANCH   7   8
ENDBRANCH   1   7
BRANCH   4  20
ATOM     20  C   UNL     1      47.704   4.580  15.292  0.00  0.00    +0.000 C 
BRANCH  20  21
ATOM     21  N   UNL     1      47.699   5.620  16.284  0.00  0.00    +0.000 N 
ATOM     22  C   UNL     1      48.849   5.968  16.946  0.00  0.00    +0.000 C 
ATOM     23  O   UNL     1      49.932   5.452  16.685  0.00  0.00    +0.000 OA
ATOM     24  H   UNL     1      46.800   5.887  16.669  0.00  0.00    +0.000 HD
BRANCH  22  25
ATOM     25  C   UNL     1      48.729   7.040  17.940  0.00  0.00    +0.000 A 
ATOM     26  C   UNL     1      48.904   6.752  19.286  0.00  0.00    +0.000 A 
ATOM     27  S   UNL     1      48.797   8.121  20.296  0.00  0.00    +0.000 S 
ATOM     28  C   UNL     1      48.457   9.137  18.975  0.00  0.00    +0.000 A 
ATOM     29  N   UNL     1      48.237  10.467  19.154  0.00  0.00    +0.000 NA
ATOM     30  C   UNL     1      47.958  11.112  18.071  0.00  0.00    +0.000 A 
ATOM     31  N   UNL     1      47.882  10.550  16.823  0.00  0.00    +0.000 N 
ATOM     32  C   UNL     1      48.123   9.216  16.589  0.00  0.00    +0.000 A 
ATOM     33  O   UNL     1      48.086   8.753  15.456  0.00  0.00    +0.000 OA
ATOM     34  C   UNL     1      48.437   8.444  17.777  0.00  0.00    +0.000 A 
ATOM     35  H   UNL     1      47.666  11.111  16.015  0.00  0.00    +0.000 HD
ENDBRANCH  22  25
ENDBRANCH  20  21
ENDBRANCH   4  20
TORSDOF 9
ENDMDL
MODEL 6
REMARK VINA RESULT:    -7.378      1.438      2.149
REMARK INTER + INTRA:         -12.733
REMARK INTER:                 -11.842
REMARK INTRA:                  -0.890
REMARK UNBOUND:                -1.473
REMARK  Name = 
REMARK  10 active torsions:
REMARK  status: ('A' for Active; 'I' for Inactive)
REMARK    1  A    between atoms: C_1  and  C_2
REMARK    2  A    between atoms: C_2  and  O_3
REMARK    3  A    between atoms: O_3  and  C_4
REMARK    4  A    between atoms: C_4  and  C_6
REMARK    5  A    between atoms: C_9  and  C_10
REMARK    6  A    between atoms: C_10  and  O_11
REMARK    7  A    between atoms: O_11  and  C_12
REMARK    8  A    between atoms: C_15  and  C_16
REMARK    9  A    between atoms: C_16  and  N_17
REMARK   10  A    between atoms: C_18  and  C_20
REMARK                            x       y       z     vdW  Elec       q    Type
REMARK                         _______ _______ _______ _____ _____    ______ ____
ROOT
ATOM      1  C   UNL     1      45.459   5.153  11.662  0.00  0.00    +0.000 A 
ATOM      2  C   UNL     1      45.328   3.847  12.134  0.00  0.00    +0.000 A 
ATOM      3  C   UNL     1      45.979   3.454  13.307  0.00  0.00    +0.000 A 
ATOM      4  C   UNL     1      46.767   4.369  14.019  0.00  0.00    +0.000 A 
ATOM      5  C   UNL     1      46.958   5.652  13.491  0.00  0.00    +0.000 A 
ATOM      6  C   UNL     1      46.313   6.040  12.318  0.00  0.00    +0.000 A 
ENDROOT
BRANCH   1   7
ATOM      7  O   UNL     1      44.713   5.469  10.556  0.00  0.00    +0.000 OA
BRANCH   7   8
ATOM      8  C   UNL     1      44.049   4.351   9.959  0.00  0.00    +0.000 C 
BRANCH   8  12
ATOM      9  C   UNL     1      46.734   2.200   7.344  0.00  0.00    +0.000 A 
ATOM     10  C   UNL     1      46.634   3.592   7.244  0.00  0.00    +0.000 A 
ATOM     11  C   UNL     1      45.752   4.294   8.069  0.00  0.00    +0.000 A 
ATOM     12  C   UNL     1      44.949   3.615   8.994  0.00  0.00    +0.000 A 
ATOM     13  C   UNL     1      45.060   2.220   9.096  0.00  0.00    +0.000 A 
ATOM     14  C   UNL     1      45.943   1.516   8.277  0.00  0.00    +0.000 A 
BRANCH   9  15
ATOM     15  C   UNL     1      47.624   1.489   6.391  0.00  0.00    +0.000 C 
ATOM     16  O   UNL     1      48.702   1.922   6.017  0.00  0.00    +0.000 OA
BRANCH  15  17
ATOM     17  O   UNL     1      46.999   0.380   5.925  0.00  0.00    +0.000 OA
BRANCH  17  19
ATOM     18  C   UNL     1      46.350   1.273   3.815  0.00  0.00    +0.000 C 
ATOM     19  C   UNL     1      47.112   0.161   4.515  0.00  0.00    +0.000 C 
ENDBRANCH  17  19
ENDBRANCH  15  17
ENDBRANCH   9  15
ENDBRANCH   8  12
ENDBRANCH   7   8
ENDBRANCH   1   7
BRANCH   4  20
ATOM     20  C   UNL     1      47.433   3.987  15.313  0.00  0.00    +0.000 C 
BRANCH  20  21
ATOM     21  N   UNL     1      47.479   5.101  16.220  0.00  0.00    +0.000 N 
ATOM     22  C   UNL     1      48.645   5.447  16.853  0.00  0.00    +0.000 C 
ATOM     23  O   UNL     1      49.702   4.861  16.636  0.00  0.00    +0.000 OA
ATOM     24  H   UNL     1      46.594   5.440  16.581  0.00  0.00    +0.000 HD
BRANCH  22  25
ATOM     25  C   UNL     1      48.578   6.598  17.758  0.00  0.00    +0.000 A 
ATOM     26  C   UNL     1      48.577   7.884  17.236  0.00  0.00    +0.000 A 
ATOM     27  S   UNL     1      48.427   9.101  18.421  0.00  0.00    +0.000 S 
ATOM     28  C   UNL     1      48.415   7.954  19.677  0.00  0.00    +0.000 A 
ATOM     29  N   UNL     1      48.322   8.341  20.977  0.00  0.00    +0.000 NA
ATOM     30  C   UNL     1      48.358   7.370  21.826  0.00  0.00    +0.000 A 
ATOM     31  N   UNL     1      48.474   6.044  21.496  0.00  0.00    +0.000 N 
ATOM     32  C   UNL     1      48.543   5.603  20.195  0.00  0.00    +0.000 A 
ATOM     33  O   UNL     1      48.606   4.409  19.932  0.00  0.00    +0.000 OA
ATOM     34  C   UNL     1      48.512   6.659  19.199  0.00  0.00    +0.000 A 
ATOM     35  H   UNL     1      48.489   5.333  22.209  0.00  0.00    +0.000 HD
ENDBRANCH  22  25
ENDBRANCH  20  21
ENDBRANCH   4  20
TORSDOF 9
ENDMDL
MODEL 7
REMARK VINA RESULT:    -7.178      2.807      4.564
REMARK INTER + INTRA:         -12.428
REMARK INTER:                 -11.047
REMARK INTRA:                  -1.381
REMARK UNBOUND:                -1.473
REMARK  Name = 
REMARK  10 active torsions:
REMARK  status: ('A' for Active; 'I' for Inactive)
REMARK    1  A    between atoms: C_1  and  C_2
REMARK    2  A    between atoms: C_2  and  O_3
REMARK    3  A    between atoms: O_3  and  C_4
REMARK    4  A    between atoms: C_4  and  C_6
REMARK    5  A    between atoms: C_9  and  C_10
REMARK    6  A    between atoms: C_10  and  O_11
REMARK    7  A    between atoms: O_11  and  C_12
REMARK    8  A    between atoms: C_15  and  C_16
REMARK    9  A    between atoms: C_16  and  N_17
REMARK   10  A    between atoms: C_18  and  C_20
REMARK                            x       y       z     vdW  Elec       q    Type
REMARK                         _______ _______ _______ _____ _____    ______ ____
ROOT
ATOM      1  C   UNL     1      45.173   5.249  11.225  0.00  0.00    +0.000 A 
ATOM      2  C   UNL     1      45.180   4.384  12.320  0.00  0.00    +0.000 A 
ATOM      3  C   UNL     1      46.068   4.595  13.378  0.00  0.00    +0.000 A 
ATOM      4  C   UNL     1      46.959   5.677  13.349  0.00  0.00    +0.000 A 
ATOM      5  C   UNL     1      47.000   6.488  12.208  0.00  0.00    +0.000 A 
ATOM      6  C   UNL     1      46.118   6.273  11.151  0.00  0.00    +0.000 A 
ENDROOT
BRANCH   1   7
ATOM      7  O   UNL     1      44.208   5.014  10.280  0.00  0.00    +0.000 OA
BRANCH   7   8
ATOM      8  C   UNL     1      43.973   3.627  10.016  0.00  0.00    +0.000 C 
BRANCH   8  12
ATOM      9  C   UNL     1      46.774   2.072   7.116  0.00  0.00    +0.000 A 
ATOM     10  C   UNL     1      46.398   3.419   7.066  0.00  0.00    +0.000 A 
ATOM     11  C   UNL     1      45.476   3.926   7.985  0.00  0.00    +0.000 A 
ATOM     12  C   UNL     1      44.906   3.092   8.956  0.00  0.00    +0.000 A 
ATOM     13  C   UNL     1      45.293   1.745   9.006  0.00  0.00    +0.000 A 
ATOM     14  C   UNL     1      46.218   1.236   8.094  0.00  0.00    +0.000 A 
BRANCH   9  15
ATOM     15  C   UNL     1      47.694   1.560   6.069  0.00  0.00    +0.000 C 
ATOM     16  O   UNL     1      48.797   2.031   5.845  0.00  0.00    +0.000 OA
BRANCH  15  17
ATOM     17  O   UNL     1      47.070   0.599   5.345  0.00  0.00    +0.000 OA
BRANCH  17  19
ATOM     18  C   UNL     1      46.684  -0.345   3.193  0.00  0.00    +0.000 C 
ATOM     19  C   UNL     1      46.781   0.946   3.987  0.00  0.00    +0.000 C 
ENDBRANCH  17  19
ENDBRANCH  15  17
ENDBRANCH   9  15
ENDBRANCH   8  12
ENDBRANCH   7   8
ENDBRANCH   1   7
BRANCH   4  20
ATOM     20  C   UNL     1      47.886   5.959  14.500  0.00  0.00    +0.000 C 
BRANCH  20  21
ATOM     21  N   UNL     1      48.741   7.078  14.214  0.00  0.00    +0.000 N 
ATOM     22  C   UNL     1      49.909   7.268  14.906  0.00  0.00    +0.000 C 
ATOM     23  O   UNL     1      50.301   6.470  15.754  0.00  0.00    +0.000 OA
ATOM     24  H   UNL     1      48.334   7.851  13.698  0.00  0.00    +0.000 HD
BRANCH  22  25
ATOM     25  C   UNL     1      50.703   8.443  14.535  0.00  0.00    +0.000 A 
ATOM     26  C   UNL     1      51.155   9.308  15.522  0.00  0.00    +0.000 A 
ATOM     27  S   UNL     1      52.117  10.582  14.924  0.00  0.00    +0.000 S 
ATOM     28  C   UNL     1      51.916  10.055  13.320  0.00  0.00    +0.000 A 
ATOM     29  N   UNL     1      52.484  10.730  12.284  0.00  0.00    +0.000 NA
ATOM     30  C   UNL     1      52.223  10.238  11.120  0.00  0.00    +0.000 A 
ATOM     31  N   UNL     1      51.448   9.130  10.894  0.00  0.00    +0.000 N 
ATOM     32  C   UNL     1      50.876   8.400  11.909  0.00  0.00    +0.000 A 
ATOM     33  O   UNL     1      50.222   7.391  11.674  0.00  0.00    +0.000 OA
ATOM     34  C   UNL     1      51.136   8.915  13.240  0.00  0.00    +0.000 A 
ATOM     35  H   UNL     1      51.289   8.793   9.958  0.00  0.00    +0.000 HD
ENDBRANCH  22  25
ENDBRANCH  20  21
ENDBRANCH   4  20
TORSDOF 9
ENDMDL
MODEL 8
REMARK VINA RESULT:    -7.149      2.301      2.818
REMARK INTER + INTRA:         -12.383
REMARK INTER:                 -11.306
REMARK INTRA:                  -1.077
REMARK UNBOUND:                -1.473
REMARK  Name = 
REMARK  10 active torsions:
REMARK  status: ('A' for Active; 'I' for Inactive)
REMARK    1  A    between atoms: C_1  and  C_2
REMARK    2  A    between atoms: C_2  and  O_3
REMARK    3  A    between atoms: O_3  and  C_4
REMARK    4  A    between atoms: C_4  and  C_6
REMARK    5  A    between atoms: C_9  and  C_10
REMARK    6  A    between atoms: C_10  and  O_11
REMARK    7  A    between atoms: O_11  and  C_12
REMARK    8  A    between atoms: C_15  and  C_16
REMARK    9  A    between atoms: C_16  and  N_17
REMARK   10  A    between atoms: C_18  and  C_20
REMARK                            x       y       z     vdW  Elec       q    Type
REMARK                         _______ _______ _______ _____ _____    ______ ____
ROOT
ATOM      1  C   UNL     1      46.171   5.658  11.781  0.00  0.00    +0.000 A 
ATOM      2  C   UNL     1      45.390   4.633  12.316  0.00  0.00    +0.000 A 
ATOM      3  C   UNL     1      45.595   4.205  13.631  0.00  0.00    +0.000 A 
ATOM      4  C   UNL     1      46.586   4.803  14.423  0.00  0.00    +0.000 A 
ATOM      5  C   UNL     1      47.417   5.772  13.849  0.00  0.00    +0.000 A 
ATOM      6  C   UNL     1      47.216   6.193  12.535  0.00  0.00    +0.000 A 
ENDROOT
BRANCH   1   7
ATOM      7  O   UNL     1      45.837   6.069  10.517  0.00  0.00    +0.000 OA
BRANCH   7   8
ATOM      8  C   UNL     1      44.819   5.279   9.894  0.00  0.00    +0.000 C 
BRANCH   8  12
ATOM      9  C   UNL     1      46.368   1.872   7.734  0.00  0.00    +0.000 A 
ATOM     10  C   UNL     1      45.536   1.673   8.841  0.00  0.00    +0.000 A 
ATOM     11  C   UNL     1      45.049   2.767   9.560  0.00  0.00    +0.000 A 
ATOM     12  C   UNL     1      45.397   4.073   9.192  0.00  0.00    +0.000 A 
ATOM     13  C   UNL     1      46.224   4.267   8.075  0.00  0.00    +0.000 A 
ATOM     14  C   UNL     1      46.708   3.177   7.351  0.00  0.00    +0.000 A 
BRANCH   9  15
ATOM     15  C   UNL     1      46.926   0.678   7.050  0.00  0.00    +0.000 C 
ATOM     16  O   UNL     1      46.867  -0.454   7.504  0.00  0.00    +0.000 OA
BRANCH  15  17
ATOM     17  O   UNL     1      47.603   1.063   5.941  0.00  0.00    +0.000 OA
BRANCH  17  19
ATOM     18  C   UNL     1      46.390   1.265   3.902  0.00  0.00    +0.000 C 
ATOM     19  C   UNL     1      47.268   0.355   4.743  0.00  0.00    +0.000 C 
ENDBRANCH  17  19
ENDBRANCH  15  17
ENDBRANCH   9  15
ENDBRANCH   8  12
ENDBRANCH   7   8
ENDBRANCH   1   7
BRANCH   4  20
ATOM     20  C   UNL     1      46.789   4.399  15.858  0.00  0.00    +0.000 C 
BRANCH  20  21
ATOM     21  N   UNL     1      48.186   4.247  16.160  0.00  0.00    +0.000 N 
ATOM     22  C   UNL     1      48.695   4.657  17.365  0.00  0.00    +0.000 C 
ATOM     23  O   UNL     1      47.980   5.117  18.252  0.00  0.00    +0.000 OA
ATOM     24  H   UNL     1      48.814   4.092  15.379  0.00  0.00    +0.000 HD
BRANCH  22  25
ATOM     25  C   UNL     1      50.133   4.456  17.567  0.00  0.00    +0.000 A 
ATOM     26  C   UNL     1      50.944   5.543  17.866  0.00  0.00    +0.000 A 
ATOM     27  S   UNL     1      52.575   5.123  18.134  0.00  0.00    +0.000 S 
ATOM     28  C   UNL     1      52.265   3.484  17.804  0.00  0.00    +0.000 A 
ATOM     29  N   UNL     1      53.263   2.561  17.844  0.00  0.00    +0.000 NA
ATOM     30  C   UNL     1      52.894   1.362  17.541  0.00  0.00    +0.000 A 
ATOM     31  N   UNL     1      51.616   0.999  17.203  0.00  0.00    +0.000 N 
ATOM     32  C   UNL     1      50.569   1.891  17.175  0.00  0.00    +0.000 A 
ATOM     33  O   UNL     1      49.431   1.525  16.908  0.00  0.00    +0.000 OA
ATOM     34  C   UNL     1      50.933   3.256  17.505  0.00  0.00    +0.000 A 
ATOM     35  H   UNL     1      51.391   0.041  16.983  0.00  0.00    +0.000 HD
ENDBRANCH  22  25
ENDBRANCH  20  21
ENDBRANCH   4  20
TORSDOF 9
ENDMDL
MODEL 9
REMARK VINA RESULT:    -6.550      4.705      9.287
REMARK INTER + INTRA:         -11.470
REMARK INTER:                  -9.646
REMARK INTRA:                  -1.824
REMARK UNBOUND:                -1.473
REMARK  Name = 
REMARK  10 active torsions:
REMARK  status: ('A' for Active; 'I' for Inactive)
REMARK    1  A    between atoms: C_1  and  C_2
REMARK    2  A    between atoms: C_2  and  O_3
REMARK    3  A    between atoms: O_3  and  C_4
REMARK    4  A    between atoms: C_4  and  C_6
REMARK    5  A    between atoms: C_9  and  C_10
REMARK    6  A    between atoms: C_10  and  O_11
REMARK    7  A    between atoms: O_11  and  C_12
REMARK    8  A    between atoms: C_15  and  C_16
REMARK    9  A    between atoms: C_16  and  N_17
REMARK   10  A    between atoms: C_18  and  C_20
REMARK                            x       y       z     vdW  Elec       q    Type
REMARK                         _______ _______ _______ _____ _____    ______ ____
ROOT
ATOM      1  C   UNL     1      49.576   8.202  18.417  0.00  0.00    +0.000 A 
ATOM      2  C   UNL     1      48.319   8.762  18.186  0.00  0.00    +0.000 A 
ATOM      3  C   UNL     1      47.892   9.020  16.880  0.00  0.00    +0.000 A 
ATOM      4  C   UNL     1      48.723   8.717  15.792  0.00  0.00    +0.000 A 
ATOM      5  C   UNL     1      50.013   8.234  16.040  0.00  0.00    +0.000 A 
ATOM      6  C   UNL     1      50.440   7.983  17.343  0.00  0.00    +0.000 A 
ENDROOT
BRANCH   1   7
ATOM      7  O   UNL     1      49.870   7.904  19.722  0.00  0.00    +0.000 OA
BRANCH   7   8
ATOM      8  C   UNL     1      49.160   6.773  20.238  0.00  0.00    +0.000 C 
BRANCH   8  12
ATOM      9  C   UNL     1      50.128   3.282  17.885  0.00  0.00    +0.000 A 
ATOM     10  C   UNL     1      48.827   3.797  17.861  0.00  0.00    +0.000 A 
ATOM     11  C   UNL     1      48.499   4.911  18.635  0.00  0.00    +0.000 A 
ATOM     12  C   UNL     1      49.459   5.517  19.455  0.00  0.00    +0.000 A 
ATOM     13  C   UNL     1      50.764   5.002  19.468  0.00  0.00    +0.000 A 
ATOM     14  C   UNL     1      51.097   3.892  18.691  0.00  0.00    +0.000 A 
BRANCH   9  15
ATOM     15  C   UNL     1      50.410   2.048  17.107  0.00  0.00    +0.000 C 
ATOM     16  O   UNL     1      49.894   1.789  16.032  0.00  0.00    +0.000 OA
BRANCH  15  17
ATOM     17  O   UNL     1      51.210   1.227  17.831  0.00  0.00    +0.000 OA
BRANCH  17  19
ATOM     18  C   UNL     1      53.566   1.543  17.972  0.00  0.00    +0.000 C 
ATOM     19  C   UNL     1      52.445   0.866  17.204  0.00  0.00    +0.000 C 
ENDBRANCH  17  19
ENDBRANCH  15  17
ENDBRANCH   9  15
ENDBRANCH   8  12
ENDBRANCH   7   8
ENDBRANCH   1   7
BRANCH   4  20
ATOM     20  C   UNL     1      48.265   8.933  14.375  0.00  0.00    +0.000 C 
BRANCH  20  21
ATOM     21  N   UNL     1      47.305   7.937  13.984  0.00  0.00    +0.000 N 
ATOM     22  C   UNL     1      47.695   6.806  13.314  0.00  0.00    +0.000 C 
ATOM     23  O   UNL     1      48.875   6.570  13.068  0.00  0.00    +0.000 OA
ATOM     24  H   UNL     1      46.330   8.216  13.970  0.00  0.00    +0.000 HD
BRANCH  22  25
ATOM     25  C   UNL     1      46.633   5.859  12.962  0.00  0.00    +0.000 A 
ATOM     26  C   UNL     1      46.785   4.512  13.262  0.00  0.00    +0.000 A 
ATOM     27  S   UNL     1      45.431   3.564  12.846  0.00  0.00    +0.000 S 
ATOM     28  C   UNL     1      44.617   4.910  12.198  0.00  0.00    +0.000 A 
ATOM     29  N   UNL     1      43.380   4.782  11.649  0.00  0.00    +0.000 NA
ATOM     30  C   UNL     1      42.895   5.877  11.167  0.00  0.00    +0.000 A 
ATOM     31  N   UNL     1      43.532   7.091  11.187  0.00  0.00    +0.000 N 
ATOM     32  C   UNL     1      44.771   7.275  11.756  0.00  0.00    +0.000 A 
ATOM     33  O   UNL     1      45.294   8.381  11.793  0.00  0.00    +0.000 OA
ATOM     34  C   UNL     1      45.363   6.071  12.309  0.00  0.00    +0.000 A 
ATOM     35  H   UNL     1      43.094   7.912  10.799  0.00  0.00    +0.000 HD
ENDBRANCH  22  25
ENDBRANCH  20  21
ENDBRANCH   4  20
TORSDOF 9
ENDMDL
