MODEL 1
REMARK VINA RESULT:    -7.129      0.000      0.000
REMARK INTER + INTRA:          -9.679
REMARK INTER:                  -9.213
REMARK INTRA:                  -0.466
REMARK UNBOUND:                -0.466
REMARK  Name = 
REMARK  7 active torsions:
REMARK  status: ('A' for Active; 'I' for Inactive)
REMARK    1  A    between atoms: C_1  and  O_2
REMARK    2  A    between atoms: O_2  and  C_3
REMARK    3  A    between atoms: C_6  and  C_7
REMARK    4  A    between atoms: C_7  and  C_8
REMARK    5  A    between atoms: C_8  and  N_9
REMARK    6  A    between atoms: C_13  and  C_14
REMARK    7  A    between atoms: C_17  and  C_18
REMARK                            x       y       z     vdW  Elec       q    Type
REMARK                         _______ _______ _______ _____ _____    ______ ____
ROOT
ATOM      1  N   UNL     1      45.044   3.756  12.086  0.00  0.00    +0.000 N 
ATOM      2  C   UNL     1      45.929   4.617  12.752  0.00  0.00    +0.000 A 
ATOM      3  C   UNL     1      46.641   4.151  13.856  0.00  0.00    +0.000 A 
ATOM      4  N   UNL     1      47.548   4.886  14.544  0.00  0.00    +0.000 NA
ATOM      5  C   UNL     1      47.742   6.162  14.088  0.00  0.00    +0.000 A 
ATOM      6  C   UNL     1      47.035   6.664  12.995  0.00  0.00    +0.000 A 
ATOM      7  C   UNL     1      47.127   8.058  12.456  0.00  0.00    +0.000 C 
ATOM      8  N   UNL     1      46.131   5.878  12.321  0.00  0.00    +0.000 NA
ATOM      9  H   UNL     1      44.380   3.375  12.758  0.00  0.00    +0.000 HD
ENDROOT
BRANCH   5  10
ATOM     10  C   UNL     1      48.791   6.924  14.853  0.00  0.00    +0.000 C 
ATOM     11  N   UNL     1      48.338   7.539  15.995  0.00  0.00    +0.000 N 
ATOM     12  O   UNL     1      49.970   7.008  14.542  0.00  0.00    +0.000 OA
ATOM     13  H   UNL     1      47.371   7.417  16.273  0.00  0.00    +0.000 HD
ATOM     14  H   UNL     1      48.992   8.017  16.596  0.00  0.00    +0.000 HD
ENDBRANCH   5  10
BRANCH   1  15
ATOM     15  C   UNL     1      44.374   4.324  10.910  0.00  0.00    +0.000 C 
BRANCH  15  16
ATOM     16  C   UNL     1      44.016   3.192   9.936  0.00  0.00    +0.000 C 
BRANCH  16  20
ATOM     17  C   UNL     1      47.150   2.363   7.066  0.00  0.00    +0.000 A 
ATOM     18  C   UNL     1      46.677   3.663   7.236  0.00  0.00    +0.000 A 
ATOM     19  C   UNL     1      45.653   3.927   8.155  0.00  0.00    +0.000 A 
ATOM     20  C   UNL     1      45.097   2.898   8.925  0.00  0.00    +0.000 A 
ATOM     21  C   UNL     1      45.572   1.594   8.747  0.00  0.00    +0.000 A 
ATOM     22  C   UNL     1      46.591   1.333   7.826  0.00  0.00    +0.000 A 
BRANCH  17  24
ATOM     23  C   UNL     1      47.750   1.697   4.863  0.00  0.00    +0.000 C 
ATOM     24  O   UNL     1      48.136   1.970   6.204  0.00  0.00    +0.000 OA
ENDBRANCH  17  24
ENDBRANCH  16  20
ENDBRANCH  15  16
ENDBRANCH   1  15
TORSDOF 5
ENDMDL
MODEL 2
REMARK VINA RESULT:    -7.121      1.308      1.906
REMARK INTER + INTRA:          -9.669
REMARK INTER:                  -8.985
REMARK INTRA:                  -0.684
REMARK UNBOUND:                -0.466
REMARK  Name = 
REMARK  7 active torsions:
REMARK  status: ('A' for Active; 'I' for Inactive)
REMARK    1  A    between atoms: C_1  and  O_2
REMARK    2  A    between atoms: O_2  and  C_3
REMARK    3  A    between atoms: C_6  and  C_7
REMARK    4  A    between atoms: C_7  and  C_8
REMARK    5  A    between atoms: C_8  and  N_9
REMARK    6  A    between atoms: C_13  and  C_14
REMARK    7  A    between atoms: C_17  and  C_18
REMARK                            x       y       z     vdW  Elec       q    Type
REMARK                         _______ _______ _______ _____ _____    ______ ____
ROOT
ATOM      1  N   UNL     1      44.621   3.929  13.338  0.00  0.00    +0.000 N 
ATOM      2  C   UNL     1      45.672   4.851  13.455  0.00  0.00    +0.000 A 
ATOM      3  C   UNL     1      46.793   4.522  14.215  0.00  0.00    +0.000 A 
ATOM      4  N   UNL     1      47.878   5.321  14.360  0.00  0.00    +0.000 NA
ATOM      5  C   UNL     1      47.821   6.518  13.699  0.00  0.00    +0.000 A 
ATOM      6  C   UNL     1      46.708   6.885  12.941  0.00  0.00    +0.000 A 
ATOM      7  C   UNL     1      46.521   8.189  12.233  0.00  0.00    +0.000 C 
ATOM      8  N   UNL     1      45.634   6.036  12.815  0.00  0.00    +0.000 NA
ATOM      9  H   UNL     1      44.309   3.659  14.268  0.00  0.00    +0.000 HD
ENDROOT
BRANCH   5  10
ATOM     10  C   UNL     1      49.067   7.351  13.851  0.00  0.00    +0.000 C 
ATOM     11  N   UNL     1      49.977   7.218  12.831  0.00  0.00    +0.000 N 
ATOM     12  O   UNL     1      49.296   8.115  14.777  0.00  0.00    +0.000 OA
ATOM     13  H   UNL     1      49.752   6.624  12.041  0.00  0.00    +0.000 HD
ATOM     14  H   UNL     1      50.808   7.789  12.828  0.00  0.00    +0.000 HD
ENDBRANCH   5  10
BRANCH   1  15
ATOM     15  C   UNL     1      43.505   4.348  12.481  0.00  0.00    +0.000 C 
BRANCH  15  16
ATOM     16  C   UNL     1      43.244   3.265  11.424  0.00  0.00    +0.000 C 
BRANCH  16  20
ATOM     17  C   UNL     1      45.967   3.388   8.059  0.00  0.00    +0.000 A 
ATOM     18  C   UNL     1      45.500   2.167   8.544  0.00  0.00    +0.000 A 
ATOM     19  C   UNL     1      44.630   2.128   9.641  0.00  0.00    +0.000 A 
ATOM     20  C   UNL     1      44.205   3.310  10.261  0.00  0.00    +0.000 A 
ATOM     21  C   UNL     1      44.681   4.533   9.775  0.00  0.00    +0.000 A 
ATOM     22  C   UNL     1      45.553   4.568   8.682  0.00  0.00    +0.000 A 
BRANCH  17  24
ATOM     23  C   UNL     1      47.787   2.548   6.779  0.00  0.00    +0.000 C 
ATOM     24  O   UNL     1      46.819   3.565   7.005  0.00  0.00    +0.000 OA
ENDBRANCH  17  24
ENDBRANCH  16  20
ENDBRANCH  15  16
ENDBRANCH   1  15
TORSDOF 5
ENDMDL
MODEL 3
REMARK VINA RESULT:    -7.057      2.689      7.205
REMARK INTER + INTRA:          -9.586
REMARK INTER:                  -9.250
REMARK INTRA:                  -0.336
REMARK UNBOUND:                -0.466
REMARK  Name = 
REMARK  7 active torsions:
REMARK  status: ('A' for Active; 'I' for Inactive)
REMARK    1  A    between atoms: C_1  and  O_2
REMARK    2  A    between atoms: O_2  and  C_3
REMARK    3  A    between atoms: C_6  and  C_7
REMARK    4  A    between atoms: C_7  and  C_8
REMARK    5  A    between atoms: C_8  and  N_9
REMARK    6  A    between atoms: C_13  and  C_14
REMARK    7  A    between atoms: C_17  and  C_18
REMARK                            x       y       z     vdW  Elec       q    Type
REMARK                         _______ _______ _______ _____ _____    ______ ____
ROOT
ATOM      1  N   UNL     1      44.045   3.768  10.179  0.00  0.00    +0.000 N 
ATOM      2  C   UNL     1      44.875   3.351   9.126  0.00  0.00    +0.000 A 
ATOM      3  C   UNL     1      45.313   4.284   8.188  0.00  0.00    +0.000 A 
ATOM      4  N   UNL     1      46.147   3.997   7.159  0.00  0.00    +0.000 NA
ATOM      5  C   UNL     1      46.556   2.693   7.078  0.00  0.00    +0.000 A 
ATOM      6  C   UNL     1      46.124   1.731   7.993  0.00  0.00    +0.000 A 
ATOM      7  C   UNL     1      46.462   0.274   7.957  0.00  0.00    +0.000 C 
ATOM      8  N   UNL     1      45.286   2.073   9.027  0.00  0.00    +0.000 NA
ATOM      9  H   UNL     1      43.231   4.242   9.795  0.00  0.00    +0.000 HD
ENDROOT
BRANCH   5  10
ATOM     10  C   UNL     1      47.517   2.431   5.948  0.00  0.00    +0.000 C 
ATOM     11  N   UNL     1      48.844   2.520   6.288  0.00  0.00    +0.000 N 
ATOM     12  O   UNL     1      47.198   2.142   4.804  0.00  0.00    +0.000 OA
ATOM     13  H   UNL     1      49.098   2.706   7.252  0.00  0.00    +0.000 HD
ATOM     14  H   UNL     1      49.550   2.297   5.603  0.00  0.00    +0.000 HD
ENDBRANCH   5  10
BRANCH   1  15
ATOM     15  C   UNL     1      43.673   2.723  11.141  0.00  0.00    +0.000 C 
BRANCH  15  16
ATOM     16  C   UNL     1      43.626   3.327  12.552  0.00  0.00    +0.000 C 
BRANCH  16  20
ATOM     17  C   UNL     1      46.518   6.495  13.136  0.00  0.00    +0.000 A 
ATOM     18  C   UNL     1      46.906   5.160  13.236  0.00  0.00    +0.000 A 
ATOM     19  C   UNL     1      45.966   4.137  13.061  0.00  0.00    +0.000 A 
ATOM     20  C   UNL     1      44.628   4.433  12.770  0.00  0.00    +0.000 A 
ATOM     21  C   UNL     1      44.243   5.775  12.675  0.00  0.00    +0.000 A 
ATOM     22  C   UNL     1      45.182   6.794  12.855  0.00  0.00    +0.000 A 
BRANCH  17  24
ATOM     23  C   UNL     1      48.082   7.994  12.154  0.00  0.00    +0.000 C 
ATOM     24  O   UNL     1      47.329   7.585  13.289  0.00  0.00    +0.000 OA
ENDBRANCH  17  24
ENDBRANCH  16  20
ENDBRANCH  15  16
ENDBRANCH   1  15
TORSDOF 5
ENDMDL
MODEL 4
REMARK VINA RESULT:    -6.265      4.045      8.156
REMARK INTER + INTRA:          -8.562
REMARK INTER:                  -8.274
REMARK INTRA:                  -0.288
REMARK UNBOUND:                -0.466
REMARK  Name = 
REMARK  7 active torsions:
REMARK  status: ('A' for Active; 'I' for Inactive)
REMARK    1  A    between atoms: C_1  and  O_2
REMARK    2  A    between atoms: O_2  and  C_3
REMARK    3  A    between atoms: C_6  and  C_7
REMARK    4  A    between atoms: C_7  and  C_8
REMARK    5  A    between atoms: C_8  and  N_9
REMARK    6  A    between atoms: C_13  and  C_14
REMARK    7  A    between atoms: C_17  and  C_18
REMARK                            x       y       z     vdW  Elec       q    Type
REMARK                         _______ _______ _______ _____ _____    ______ ____
ROOT
ATOM      1  N   UNL     1      47.325   5.056  15.131  0.00  0.00    +0.000 N 
ATOM      2  C   UNL     1      46.567   5.001  13.951  0.00  0.00    +0.000 A 
ATOM      3  C   UNL     1      46.808   5.924  12.936  0.00  0.00    +0.000 A 
ATOM      4  N   UNL     1      46.163   5.933  11.744  0.00  0.00    +0.000 NA
ATOM      5  C   UNL     1      45.222   4.954  11.575  0.00  0.00    +0.000 A 
ATOM      6  C   UNL     1      44.946   4.023  12.578  0.00  0.00    +0.000 A 
ATOM      7  C   UNL     1      43.900   2.955  12.517  0.00  0.00    +0.000 C 
ATOM      8  N   UNL     1      45.634   4.047  13.767  0.00  0.00    +0.000 NA
ATOM      9  H   UNL     1      47.259   5.992  15.527  0.00  0.00    +0.000 HD
ENDROOT
BRANCH   5  10
ATOM     10  C   UNL     1      44.565   4.975  10.220  0.00  0.00    +0.000 C 
ATOM     11  N   UNL     1      45.435   5.009   9.159  0.00  0.00    +0.000 N 
ATOM     12  O   UNL     1      43.360   4.949  10.020  0.00  0.00    +0.000 OA
ATOM     13  H   UNL     1      46.433   4.974   9.334  0.00  0.00    +0.000 HD
ATOM     14  H   UNL     1      45.075   4.962   8.218  0.00  0.00    +0.000 HD
ENDBRANCH   5  10
BRANCH   1  15
ATOM     15  C   UNL     1      47.028   4.015  16.122  0.00  0.00    +0.000 C 
BRANCH  15  16
ATOM     16  C   UNL     1      47.756   4.343  17.434  0.00  0.00    +0.000 C 
BRANCH  16  20
ATOM     17  C   UNL     1      51.779   2.761  17.674  0.00  0.00    +0.000 A 
ATOM     18  C   UNL     1      51.527   4.095  17.989  0.00  0.00    +0.000 A 
ATOM     19  C   UNL     1      50.227   4.609  17.898  0.00  0.00    +0.000 A 
ATOM     20  C   UNL     1      49.160   3.793  17.502  0.00  0.00    +0.000 A 
ATOM     21  C   UNL     1      49.419   2.456  17.181  0.00  0.00    +0.000 A 
ATOM     22  C   UNL     1      50.718   1.947  17.269  0.00  0.00    +0.000 A 
BRANCH  17  24
ATOM     23  C   UNL     1      53.012   0.738  17.461  0.00  0.00    +0.000 C 
ATOM     24  O   UNL     1      52.995   2.137  17.715  0.00  0.00    +0.000 OA
ENDBRANCH  17  24
ENDBRANCH  16  20
ENDBRANCH  15  16
ENDBRANCH   1  15
TORSDOF 5
ENDMDL
MODEL 5
REMARK VINA RESULT:    -6.233      3.034      4.285
REMARK INTER + INTRA:          -8.521
REMARK INTER:                  -8.185
REMARK INTRA:                  -0.336
REMARK UNBOUND:                -0.466
REMARK  Name = 
REMARK  7 active torsions:
REMARK  status: ('A' for Active; 'I' for Inactive)
REMARK    1  A    between atoms: C_1  and  O_2
REMARK    2  A    between atoms: O_2  and  C_3
REMARK    3  A    between atoms: C_6  and  C_7
REMARK    4  A    between atoms: C_7  and  C_8
REMARK    5  A    between atoms: C_8  and  N_9
REMARK    6  A    between atoms: C_13  and  C_14
REMARK    7  A    between atoms: C_17  and  C_18
REMARK                            x       y       z     vdW  Elec       q    Type
REMARK                         _______ _______ _______ _____ _____    ______ ____
ROOT
ATOM      1  N   UNL     1      46.609   3.939  15.113  0.00  0.00    +0.000 N 
ATOM      2  C   UNL     1      47.530   4.224  16.134  0.00  0.00    +0.000 A 
ATOM      3  C   UNL     1      47.515   3.466  17.303  0.00  0.00    +0.000 A 
ATOM      4  N   UNL     1      48.383   3.631  18.330  0.00  0.00    +0.000 NA
ATOM      5  C   UNL     1      49.316   4.619  18.161  0.00  0.00    +0.000 A 
ATOM      6  C   UNL     1      49.349   5.405  17.009  0.00  0.00    +0.000 A 
ATOM      7  C   UNL     1      50.284   6.545  16.753  0.00  0.00    +0.000 C 
ATOM      8  N   UNL     1      48.453   5.194  15.988  0.00  0.00    +0.000 NA
ATOM      9  H   UNL     1      45.667   3.963  15.497  0.00  0.00    +0.000 HD
ENDROOT
BRANCH   5  10
ATOM     10  C   UNL     1      50.287   4.734  19.306  0.00  0.00    +0.000 C 
ATOM     11  N   UNL     1      51.379   3.906  19.221  0.00  0.00    +0.000 N 
ATOM     12  O   UNL     1      50.173   5.497  20.254  0.00  0.00    +0.000 OA
ATOM     13  H   UNL     1      51.492   3.317  18.403  0.00  0.00    +0.000 HD
ATOM     14  H   UNL     1      52.107   3.968  19.917  0.00  0.00    +0.000 HD
ENDBRANCH   5  10
BRANCH   1  15
ATOM     15  C   UNL     1      46.733   4.762  13.903  0.00  0.00    +0.000 C 
BRANCH  15  16
ATOM     16  C   UNL     1      45.344   4.950  13.275  0.00  0.00    +0.000 C 
BRANCH  16  20
ATOM     17  C   UNL     1      45.198   4.166   9.019  0.00  0.00    +0.000 A 
ATOM     18  C   UNL     1      44.797   3.189   9.930  0.00  0.00    +0.000 A 
ATOM     19  C   UNL     1      44.858   3.440  11.306  0.00  0.00    +0.000 A 
ATOM     20  C   UNL     1      45.309   4.674  11.792  0.00  0.00    +0.000 A 
ATOM     21  C   UNL     1      45.716   5.648  10.874  0.00  0.00    +0.000 A 
ATOM     22  C   UNL     1      45.658   5.394   9.501  0.00  0.00    +0.000 A 
BRANCH  17  24
ATOM     23  C   UNL     1      46.316   3.410   7.061  0.00  0.00    +0.000 C 
ATOM     24  O   UNL     1      45.194   4.049   7.657  0.00  0.00    +0.000 OA
ENDBRANCH  17  24
ENDBRANCH  16  20
ENDBRANCH  15  16
ENDBRANCH   1  15
TORSDOF 5
ENDMDL
MODEL 6
REMARK VINA RESULT:    -5.957      3.047      4.985
REMARK INTER + INTRA:          -8.165
REMARK INTER:                  -7.605
REMARK INTRA:                  -0.560
REMARK UNBOUND:                -0.466
REMARK  Name = 
REMARK  7 active torsions:
REMARK  status: ('A' for Active; 'I' for Inactive)
REMARK    1  A    between atoms: C_1  and  O_2
REMARK    2  A    between atoms: O_2  and  C_3
REMARK    3  A    between atoms: C_6  and  C_7
REMARK    4  A    between atoms: C_7  and  C_8
REMARK    5  A    between atoms: C_8  and  N_9
REMARK    6  A    between atoms: C_13  and  C_14
REMARK    7  A    between atoms: C_17  and  C_18
REMARK                            x       y       z     vdW  Elec       q    Type
REMARK                         _______ _______ _______ _____ _____    ______ ____
ROOT
ATOM      1  N   UNL     1      48.993   7.550  14.117  0.00  0.00    +0.000 N 
ATOM      2  C   UNL     1      48.786   6.873  15.329  0.00  0.00    +0.000 A 
ATOM      3  C   UNL     1      49.037   7.528  16.533  0.00  0.00    +0.000 A 
ATOM      4  N   UNL     1      48.832   6.981  17.756  0.00  0.00    +0.000 NA
ATOM      5  C   UNL     1      48.347   5.701  17.756  0.00  0.00    +0.000 A 
ATOM      6  C   UNL     1      48.099   5.012  16.568  0.00  0.00    +0.000 A 
ATOM      7  C   UNL     1      47.628   3.596  16.459  0.00  0.00    +0.000 C 
ATOM      8  N   UNL     1      48.313   5.612  15.350  0.00  0.00    +0.000 NA
ATOM      9  H   UNL     1      49.945   7.908  14.094  0.00  0.00    +0.000 HD
ENDROOT
BRANCH   5  10
ATOM     10  C   UNL     1      48.092   5.153  19.135  0.00  0.00    +0.000 C 
ATOM     11  N   UNL     1      46.855   5.450  19.653  0.00  0.00    +0.000 N 
ATOM     12  O   UNL     1      48.877   4.477  19.782  0.00  0.00    +0.000 OA
ATOM     13  H   UNL     1      46.190   5.964  19.085  0.00  0.00    +0.000 HD
ATOM     14  H   UNL     1      46.583   5.067  20.545  0.00  0.00    +0.000 HD
ENDBRANCH   5  10
BRANCH   1  15
ATOM     15  C   UNL     1      48.658   6.792  12.905  0.00  0.00    +0.000 C 
BRANCH  15  16
ATOM     16  C   UNL     1      47.260   7.203  12.421  0.00  0.00    +0.000 C 
BRANCH  16  20
ATOM     17  C   UNL     1      44.806   3.893  11.091  0.00  0.00    +0.000 A 
ATOM     18  C   UNL     1      45.263   3.947  12.406  0.00  0.00    +0.000 A 
ATOM     19  C   UNL     1      46.068   5.011  12.832  0.00  0.00    +0.000 A 
ATOM     20  C   UNL     1      46.417   6.043  11.951  0.00  0.00    +0.000 A 
ATOM     21  C   UNL     1      45.960   5.981  10.630  0.00  0.00    +0.000 A 
ATOM     22  C   UNL     1      45.160   4.916  10.207  0.00  0.00    +0.000 A 
BRANCH  17  24
ATOM     23  C   UNL     1      44.487   2.304   9.350  0.00  0.00    +0.000 C 
ATOM     24  O   UNL     1      44.022   2.913  10.548  0.00  0.00    +0.000 OA
ENDBRANCH  17  24
ENDBRANCH  16  20
ENDBRANCH  15  16
ENDBRANCH   1  15
TORSDOF 5
ENDMDL
MODEL 7
REMARK VINA RESULT:    -5.941      3.784      6.870
REMARK INTER + INTRA:          -8.143
REMARK INTER:                  -7.578
REMARK INTRA:                  -0.565
REMARK UNBOUND:                -0.466
REMARK  Name = 
REMARK  7 active torsions:
REMARK  status: ('A' for Active; 'I' for Inactive)
REMARK    1  A    between atoms: C_1  and  O_2
REMARK    2  A    between atoms: O_2  and  C_3
REMARK    3  A    between atoms: C_6  and  C_7
REMARK    4  A    between atoms: C_7  and  C_8
REMARK    5  A    between atoms: C_8  and  N_9
REMARK    6  A    between atoms: C_13  and  C_14
REMARK    7  A    between atoms: C_17  and  C_18
REMARK                            x       y       z     vdW  Elec       q    Type
REMARK                         _______ _______ _______ _____ _____    ______ ____
ROOT
ATOM      1  N   UNL     1      44.693   8.309  12.171  0.00  0.00    +0.000 N 
ATOM      2  C   UNL     1      44.506   6.930  11.994  0.00  0.00    +0.000 A 
ATOM      3  C   UNL     1      43.454   6.476  11.200  0.00  0.00    +0.000 A 
ATOM      4  N   UNL     1      43.210   5.170  10.932  0.00  0.00    +0.000 NA
ATOM      5  C   UNL     1      44.078   4.278  11.501  0.00  0.00    +0.000 A 
ATOM      6  C   UNL     1      45.132   4.699  12.314  0.00  0.00    +0.000 A 
ATOM      7  C   UNL     1      46.096   3.806  13.030  0.00  0.00    +0.000 C 
ATOM      8  N   UNL     1      45.347   6.036  12.549  0.00  0.00    +0.000 NA
ATOM      9  H   UNL     1      43.829   8.722  12.517  0.00  0.00    +0.000 HD
ENDROOT
BRANCH   5  10
ATOM     10  C   UNL     1      43.795   2.844  11.138  0.00  0.00    +0.000 C 
ATOM     11  N   UNL     1      44.566   2.345  10.117  0.00  0.00    +0.000 N 
ATOM     12  O   UNL     1      42.969   2.128  11.684  0.00  0.00    +0.000 OA
ATOM     13  H   UNL     1      45.287   2.930   9.709  0.00  0.00    +0.000 HD
ATOM     14  H   UNL     1      44.481   1.375   9.857  0.00  0.00    +0.000 HD
ENDBRANCH   5  10
BRANCH   1  15
ATOM     15  C   UNL     1      45.853   8.690  12.987  0.00  0.00    +0.000 C 
BRANCH  15  16
ATOM     16  C   UNL     1      46.683   9.737  12.230  0.00  0.00    +0.000 C 
BRANCH  16  20
ATOM     17  C   UNL     1      50.727   8.450  11.372  0.00  0.00    +0.000 A 
ATOM     18  C   UNL     1      50.387   9.800  11.302  0.00  0.00    +0.000 A 
ATOM     19  C   UNL     1      49.075  10.213  11.567  0.00  0.00    +0.000 A 
ATOM     20  C   UNL     1      48.088   9.284  11.917  0.00  0.00    +0.000 A 
ATOM     21  C   UNL     1      48.432   7.929  11.980  0.00  0.00    +0.000 A 
ATOM     22  C   UNL     1      49.741   7.520  11.711  0.00  0.00    +0.000 A 
BRANCH  17  24
ATOM     23  C   UNL     1      52.925   8.763  10.519  0.00  0.00    +0.000 C 
ATOM     24  O   UNL     1      51.962   7.915  11.134  0.00  0.00    +0.000 OA
ENDBRANCH  17  24
ENDBRANCH  16  20
ENDBRANCH  15  16
ENDBRANCH   1  15
TORSDOF 5
ENDMDL
MODEL 8
REMARK VINA RESULT:    -5.695      3.695      5.257
REMARK INTER + INTRA:          -7.825
REMARK INTER:                  -7.826
REMARK INTRA:                   0.001
REMARK UNBOUND:                -0.466
REMARK  Name = 
REMARK  7 active torsions:
REMARK  status: ('A' for Active; 'I' for Inactive)
REMARK    1  A    between atoms: C_1  and  O_2
REMARK    2  A    between atoms: O_2  and  C_3
REMARK    3  A    between atoms: C_6  and  C_7
REMARK    4  A    between atoms: C_7  and  C_8
REMARK    5  A    between atoms: C_8  and  N_9
REMARK    6  A    between atoms: C_13  and  C_14
REMARK    7  A    between atoms: C_17  and  C_18
REMARK                            x       y       z     vdW  Elec       q    Type
REMARK                         _______ _______ _______ _____ _____    ______ ____
ROOT
ATOM      1  N   UNL     1      46.057   2.288   7.565  0.00  0.00    +0.000 N 
ATOM      2  C   UNL     1      45.406   2.864   8.668  0.00  0.00    +0.000 A 
ATOM      3  C   UNL     1      44.392   2.157   9.312  0.00  0.00    +0.000 A 
ATOM      4  N   UNL     1      43.729   2.603  10.407  0.00  0.00    +0.000 NA
ATOM      5  C   UNL     1      44.116   3.831  10.871  0.00  0.00    +0.000 A 
ATOM      6  C   UNL     1      45.118   4.570  10.241  0.00  0.00    +0.000 A 
ATOM      7  C   UNL     1      45.572   5.941  10.632  0.00  0.00    +0.000 C 
ATOM      8  N   UNL     1      45.770   4.072   9.139  0.00  0.00    +0.000 NA
ATOM      9  H   UNL     1      45.363   2.020   6.871  0.00  0.00    +0.000 HD
ENDROOT
BRANCH   5  10
ATOM     10  C   UNL     1      43.385   4.263  12.115  0.00  0.00    +0.000 C 
ATOM     11  N   UNL     1      42.333   5.119  11.897  0.00  0.00    +0.000 N 
ATOM     12  O   UNL     1      43.650   3.900  13.252  0.00  0.00    +0.000 OA
ATOM     13  H   UNL     1      42.087   5.369  10.946  0.00  0.00    +0.000 HD
ATOM     14  H   UNL     1      41.754   5.404  12.672  0.00  0.00    +0.000 HD
ENDBRANCH   5  10
BRANCH   1  15
ATOM     15  C   UNL     1      47.141   3.089   6.983  0.00  0.00    +0.000 C 
BRANCH  15  16
ATOM     16  C   UNL     1      46.938   3.186   5.464  0.00  0.00    +0.000 C 
BRANCH  16  20
ATOM     17  C   UNL     1      46.571  -0.673   3.534  0.00  0.00    +0.000 A 
ATOM     18  C   UNL     1      47.213  -0.559   4.767  0.00  0.00    +0.000 A 
ATOM     19  C   UNL     1      47.343   0.692   5.383  0.00  0.00    +0.000 A 
ATOM     20  C   UNL     1      46.823   1.845   4.782  0.00  0.00    +0.000 A 
ATOM     21  C   UNL     1      46.185   1.727   3.542  0.00  0.00    +0.000 A 
ATOM     22  C   UNL     1      46.060   0.477   2.928  0.00  0.00    +0.000 A 
BRANCH  17  24
ATOM     23  C   UNL     1      46.992  -3.005   3.338  0.00  0.00    +0.000 C 
ATOM     24  O   UNL     1      46.383  -1.827   2.826  0.00  0.00    +0.000 OA
ENDBRANCH  17  24
ENDBRANCH  16  20
ENDBRANCH  15  16
ENDBRANCH   1  15
TORSDOF 5
ENDMDL
MODEL 9
REMARK VINA RESULT:    -5.664      6.233      8.907
REMARK INTER + INTRA:          -7.785
REMARK INTER:                  -7.397
REMARK INTRA:                  -0.389
REMARK UNBOUND:                -0.466
REMARK  Name = 
REMARK  7 active torsions:
REMARK  status: ('A' for Active; 'I' for Inactive)
REMARK    1  A    between atoms: C_1  and  O_2
REMARK    2  A    between atoms: O_2  and  C_3
REMARK    3  A    between atoms: C_6  and  C_7
REMARK    4  A    between atoms: C_7  and  C_8
REMARK    5  A    between atoms: C_8  and  N_9
REMARK    6  A    between atoms: C_13  and  C_14
REMARK    7  A    between atoms: C_17  and  C_18
REMARK                            x       y       z     vdW  Elec       q    Type
REMARK                         _______ _______ _______ _____ _____    ______ ____
ROOT
ATOM      1  N   UNL     1      42.461   8.288  10.976  0.00  0.00    +0.000 N 
ATOM      2  C   UNL     1      43.214   7.148  11.298  0.00  0.00    +0.000 A 
ATOM      3  C   UNL     1      42.566   5.931  11.497  0.00  0.00    +0.000 A 
ATOM      4  N   UNL     1      43.201   4.765  11.771  0.00  0.00    +0.000 NA
ATOM      5  C   UNL     1      44.566   4.840  11.847  0.00  0.00    +0.000 A 
ATOM      6  C   UNL     1      45.244   6.046  11.667  0.00  0.00    +0.000 A 
ATOM      7  C   UNL     1      46.722   6.247  11.789  0.00  0.00    +0.000 C 
ATOM      8  N   UNL     1      44.558   7.202  11.381  0.00  0.00    +0.000 NA
ATOM      9  H   UNL     1      41.739   8.421  11.682  0.00  0.00    +0.000 HD
ENDROOT
BRANCH   5  10
ATOM     10  C   UNL     1      45.229   3.513  12.107  0.00  0.00    +0.000 C 
ATOM     11  N   UNL     1      45.081   2.589  11.103  0.00  0.00    +0.000 N 
ATOM     12  O   UNL     1      45.875   3.231  13.105  0.00  0.00    +0.000 OA
ATOM     13  H   UNL     1      44.590   2.852  10.255  0.00  0.00    +0.000 HD
ATOM     14  H   UNL     1      45.548   1.698  11.173  0.00  0.00    +0.000 HD
ENDBRANCH   5  10
BRANCH   1  15
ATOM     15  C   UNL     1      43.236   9.512  10.741  0.00  0.00    +0.000 C 
BRANCH  15  16
ATOM     16  C   UNL     1      42.326  10.573  10.105  0.00  0.00    +0.000 C 
BRANCH  16  20
ATOM     17  C   UNL     1      38.869  11.605  12.499  0.00  0.00    +0.000 A 
ATOM     18  C   UNL     1      40.154  11.891  12.958  0.00  0.00    +0.000 A 
ATOM     19  C   UNL     1      41.272  11.544  12.188  0.00  0.00    +0.000 A 
ATOM     20  C   UNL     1      41.120  10.918  10.944  0.00  0.00    +0.000 A 
ATOM     21  C   UNL     1      39.828  10.629  10.491  0.00  0.00    +0.000 A 
ATOM     22  C   UNL     1      38.715  10.972  11.263  0.00  0.00    +0.000 A 
BRANCH  17  24
ATOM     23  C   UNL     1      36.498  11.760  12.399  0.00  0.00    +0.000 C 
ATOM     24  O   UNL     1      37.699  11.884  13.150  0.00  0.00    +0.000 OA
ENDBRANCH  17  24
ENDBRANCH  16  20
ENDBRANCH  15  16
ENDBRANCH   1  15
TORSDOF 5
ENDMDL
