MODEL 1
REMARK VINA RESULT:    -8.251      0.000      0.000
REMARK INTER + INTRA:         -12.313
REMARK INTER:                 -11.145
REMARK INTRA:                  -1.168
REMARK UNBOUND:                -1.168
REMARK  Name = 
REMARK  6 active torsions:
REMARK  status: ('A' for Active; 'I' for Inactive)
REMARK    1  A    between atoms: C_2  and  C_4
REMARK    2  A    between atoms: C_7  and  O_8
REMARK    3  A    between atoms: O_8  and  C_9
REMARK    4  A    between atoms: C_9  and  C_10
REMARK    5  A    between atoms: C_10  and  C_11
REMARK    6  A    between atoms: C_15  and  C_16
REMARK                            x       y       z     vdW  Elec       q    Type
REMARK                         _______ _______ _______ _____ _____    ______ ____
ROOT
ATOM      1  C   UNL     1      43.208   3.969  11.244  0.00  0.00    +0.000 C 
ENDROOT
BRANCH   1   2
ATOM      2  O   UNL     1      43.691   4.562  10.038  0.00  0.00    +0.000 OA
BRANCH   2   6
ATOM      3  C   UNL     1      46.458   2.475   7.709  0.00  0.00    +0.000 A 
ATOM      4  C   UNL     1      45.621   1.748   8.560  0.00  0.00    +0.000 A 
ATOM      5  C   UNL     1      44.684   2.412   9.358  0.00  0.00    +0.000 A 
ATOM      6  C   UNL     1      44.578   3.804   9.317  0.00  0.00    +0.000 A 
ATOM      7  C   UNL     1      45.436   4.530   8.486  0.00  0.00    +0.000 A 
ATOM      8  C   UNL     1      46.378   3.872   7.688  0.00  0.00    +0.000 A 
BRANCH   3  10
ATOM      9  N   UNL     1      48.546   2.520   6.463  0.00  0.00    +0.000 N 
ATOM     10  C   UNL     1      47.445   1.799   6.832  0.00  0.00    +0.000 C 
ATOM     11  O   UNL     1      47.305   0.632   6.483  0.00  0.00    +0.000 OA
ATOM     12  H   UNL     1      49.264   2.013   5.960  0.00  0.00    +0.000 HD
ATOM     13  H   UNL     1      48.815   3.371   6.933  0.00  0.00    +0.000 HD
ENDBRANCH   3  10
ENDBRANCH   2   6
ENDBRANCH   1   2
BRANCH   1  14
ATOM     14  C   UNL     1      43.222   5.006  12.368  0.00  0.00    +0.000 C 
BRANCH  14  15
ATOM     15  C   UNL     1      44.642   5.284  12.791  0.00  0.00    +0.000 A 
ATOM     16  C   UNL     1      45.433   4.276  13.349  0.00  0.00    +0.000 A 
ATOM     17  C   UNL     1      46.773   4.522  13.635  0.00  0.00    +0.000 A 
ATOM     18  C   UNL     1      47.339   5.764  13.335  0.00  0.00    +0.000 A 
ATOM     19  C   UNL     1      46.588   6.786  12.727  0.00  0.00    +0.000 A 
ATOM     20  C   UNL     1      45.224   6.529  12.500  0.00  0.00    +0.000 A 
BRANCH  19  21
ATOM     21  C   UNL     1      47.220   8.030  12.226  0.00  0.00    +0.000 A 
ATOM     22  C   UNL     1      46.512   9.247  12.238  0.00  0.00    +0.000 A 
ATOM     23  C   UNL     1      47.125  10.455  11.896  0.00  0.00    +0.000 A 
ATOM     24  C   UNL     1      48.467  10.476  11.538  0.00  0.00    +0.000 A 
ATOM     25  C   UNL     1      49.187   9.286  11.491  0.00  0.00    +0.000 A 
ATOM     26  C   UNL     1      48.566   8.075  11.821  0.00  0.00    +0.000 A 
ENDBRANCH  19  21
ENDBRANCH  14  15
ENDBRANCH   1  14
TORSDOF 6
ENDMDL
MODEL 2
REMARK VINA RESULT:    -8.140      1.195      1.904
REMARK INTER + INTRA:         -12.163
REMARK INTER:                 -11.032
REMARK INTRA:                  -1.131
REMARK UNBOUND:                -1.168
REMARK  Name = 
REMARK  6 active torsions:
REMARK  status: ('A' for Active; 'I' for Inactive)
REMARK    1  A    between atoms: C_2  and  C_4
REMARK    2  A    between atoms: C_7  and  O_8
REMARK    3  A    between atoms: O_8  and  C_9
REMARK    4  A    between atoms: C_9  and  C_10
REMARK    5  A    between atoms: C_10  and  C_11
REMARK    6  A    between atoms: C_15  and  C_16
REMARK                            x       y       z     vdW  Elec       q    Type
REMARK                         _______ _______ _______ _____ _____    ______ ____
ROOT
ATOM      1  C   UNL     1      43.604   2.884  11.475  0.00  0.00    +0.000 C 
ENDROOT
BRANCH   1   2
ATOM      2  O   UNL     1      43.653   3.713  10.312  0.00  0.00    +0.000 OA
BRANCH   2   6
ATOM      3  C   UNL     1      46.507   2.408   7.557  0.00  0.00    +0.000 A 
ATOM      4  C   UNL     1      46.199   3.770   7.602  0.00  0.00    +0.000 A 
ATOM      5  C   UNL     1      45.246   4.244   8.509  0.00  0.00    +0.000 A 
ATOM      6  C   UNL     1      44.590   3.364   9.373  0.00  0.00    +0.000 A 
ATOM      7  C   UNL     1      44.880   1.999   9.305  0.00  0.00    +0.000 A 
ATOM      8  C   UNL     1      45.830   1.517   8.398  0.00  0.00    +0.000 A 
BRANCH   3  10
ATOM      9  N   UNL     1      48.660   2.627   6.447  0.00  0.00    +0.000 N 
ATOM     10  C   UNL     1      47.530   1.876   6.624  0.00  0.00    +0.000 C 
ATOM     11  O   UNL     1      47.394   0.794   6.065  0.00  0.00    +0.000 OA
ATOM     12  H   UNL     1      49.396   2.201   5.898  0.00  0.00    +0.000 HD
ATOM     13  H   UNL     1      48.914   3.374   7.074  0.00  0.00    +0.000 HD
ENDBRANCH   3  10
ENDBRANCH   2   6
ENDBRANCH   1   2
BRANCH   1  14
ATOM     14  C   UNL     1      43.437   3.755  12.721  0.00  0.00    +0.000 C 
BRANCH  14  15
ATOM     15  C   UNL     1      44.609   4.696  12.849  0.00  0.00    +0.000 A 
ATOM     16  C   UNL     1      45.888   4.211  13.133  0.00  0.00    +0.000 A 
ATOM     17  C   UNL     1      46.975   5.081  13.142  0.00  0.00    +0.000 A 
ATOM     18  C   UNL     1      46.796   6.433  12.836  0.00  0.00    +0.000 A 
ATOM     19  C   UNL     1      45.532   6.947  12.496  0.00  0.00    +0.000 A 
ATOM     20  C   UNL     1      44.443   6.058  12.547  0.00  0.00    +0.000 A 
BRANCH  19  21
ATOM     21  C   UNL     1      45.360   8.327  11.980  0.00  0.00    +0.000 A 
ATOM     22  C   UNL     1      44.245   8.663  11.189  0.00  0.00    +0.000 A 
ATOM     23  C   UNL     1      43.991   9.980  10.802  0.00  0.00    +0.000 A 
ATOM     24  C   UNL     1      44.847  11.000  11.201  0.00  0.00    +0.000 A 
ATOM     25  C   UNL     1      45.972  10.696  11.961  0.00  0.00    +0.000 A 
ATOM     26  C   UNL     1      46.232   9.373  12.336  0.00  0.00    +0.000 A 
ENDBRANCH  19  21
ENDBRANCH  14  15
ENDBRANCH   1  14
TORSDOF 6
ENDMDL
MODEL 3
REMARK VINA RESULT:    -8.140      1.822      3.753
REMARK INTER + INTRA:         -12.163
REMARK INTER:                 -11.037
REMARK INTRA:                  -1.126
REMARK UNBOUND:                -1.168
REMARK  Name = 
REMARK  6 active torsions:
REMARK  status: ('A' for Active; 'I' for Inactive)
REMARK    1  A    between atoms: C_2  and  C_4
REMARK    2  A    between atoms: C_7  and  O_8
REMARK    3  A    between atoms: O_8  and  C_9
REMARK    4  A    between atoms: C_9  and  C_10
REMARK    5  A    between atoms: C_10  and  C_11
REMARK    6  A    between atoms: C_15  and  C_16
REMARK                            x       y       z     vdW  Elec       q    Type
REMARK                         _______ _______ _______ _____ _____    ______ ____
ROOT
ATOM      1  C   UNL     1      43.480   4.990  10.648  0.00  0.00    +0.000 C 
ENDROOT
BRANCH   1   2
ATOM      2  O   UNL     1      43.576   3.610  10.288  0.00  0.00    +0.000 OA
BRANCH   2   6
ATOM      3  C   UNL     1      46.490   2.436   7.538  0.00  0.00    +0.000 A 
ATOM      4  C   UNL     1      46.146   3.789   7.606  0.00  0.00    +0.000 A 
ATOM      5  C   UNL     1      45.171   4.219   8.513  0.00  0.00    +0.000 A 
ATOM      6  C   UNL     1      44.531   3.306   9.352  0.00  0.00    +0.000 A 
ATOM      7  C   UNL     1      44.858   1.950   9.261  0.00  0.00    +0.000 A 
ATOM      8  C   UNL     1      45.829   1.512   8.355  0.00  0.00    +0.000 A 
BRANCH   3  10
ATOM      9  N   UNL     1      48.636   2.746   6.435  0.00  0.00    +0.000 N 
ATOM     10  C   UNL     1      47.537   1.951   6.606  0.00  0.00    +0.000 C 
ATOM     11  O   UNL     1      47.446   0.867   6.041  0.00  0.00    +0.000 OA
ATOM     12  H   UNL     1      49.391   2.353   5.887  0.00  0.00    +0.000 HD
ATOM     13  H   UNL     1      48.858   3.500   7.067  0.00  0.00    +0.000 HD
ENDBRANCH   3  10
ENDBRANCH   2   6
ENDBRANCH   1   2
BRANCH   1  14
ATOM     14  C   UNL     1      43.722   5.148  12.150  0.00  0.00    +0.000 C 
BRANCH  14  15
ATOM     15  C   UNL     1      45.177   5.453  12.404  0.00  0.00    +0.000 A 
ATOM     16  C   UNL     1      45.883   6.319  11.567  0.00  0.00    +0.000 A 
ATOM     17  C   UNL     1      47.194   6.672  11.877  0.00  0.00    +0.000 A 
ATOM     18  C   UNL     1      47.794   6.187  13.043  0.00  0.00    +0.000 A 
ATOM     19  C   UNL     1      47.098   5.354  13.936  0.00  0.00    +0.000 A 
ATOM     20  C   UNL     1      45.795   4.970  13.570  0.00  0.00    +0.000 A 
BRANCH  19  21
ATOM     21  C   UNL     1      47.649   4.994  15.265  0.00  0.00    +0.000 A 
ATOM     22  C   UNL     1      47.353   3.749  15.850  0.00  0.00    +0.000 A 
ATOM     23  C   UNL     1      47.962   3.332  17.036  0.00  0.00    +0.000 A 
ATOM     24  C   UNL     1      48.891   4.153  17.665  0.00  0.00    +0.000 A 
ATOM     25  C   UNL     1      49.185   5.401  17.125  0.00  0.00    +0.000 A 
ATOM     26  C   UNL     1      48.562   5.821  15.945  0.00  0.00    +0.000 A 
ENDBRANCH  19  21
ENDBRANCH  14  15
ENDBRANCH   1  14
TORSDOF 6
ENDMDL
MODEL 4
REMARK VINA RESULT:    -7.405      3.468      7.043
REMARK INTER + INTRA:         -11.171
REMARK INTER:                  -9.954
REMARK INTRA:                  -1.217
REMARK UNBOUND:                -1.168
REMARK  Name = 
REMARK  6 active torsions:
REMARK  status: ('A' for Active; 'I' for Inactive)
REMARK    1  A    between atoms: C_2  and  C_4
REMARK    2  A    between atoms: C_7  and  O_8
REMARK    3  A    between atoms: O_8  and  C_9
REMARK    4  A    between atoms: C_9  and  C_10
REMARK    5  A    between atoms: C_10  and  C_11
REMARK    6  A    between atoms: C_15  and  C_16
REMARK                            x       y       z     vdW  Elec       q    Type
REMARK                         _______ _______ _______ _____ _____    ______ ____
ROOT
ATOM      1  C   UNL     1      46.032   7.760  12.808  0.00  0.00    +0.000 C 
ENDROOT
BRANCH   1   2
ATOM      2  O   UNL     1      47.241   7.000  12.839  0.00  0.00    +0.000 OA
BRANCH   2   6
ATOM      3  C   UNL     1      47.570   4.109  15.834  0.00  0.00    +0.000 A 
ATOM      4  C   UNL     1      46.853   3.791  14.677  0.00  0.00    +0.000 A 
ATOM      5  C   UNL     1      46.719   4.735  13.654  0.00  0.00    +0.000 A 
ATOM      6  C   UNL     1      47.292   6.002  13.778  0.00  0.00    +0.000 A 
ATOM      7  C   UNL     1      47.984   6.326  14.948  0.00  0.00    +0.000 A 
ATOM      8  C   UNL     1      48.120   5.388  15.977  0.00  0.00    +0.000 A 
BRANCH   3  10
ATOM      9  N   UNL     1      49.033   2.727  17.200  0.00  0.00    +0.000 N 
ATOM     10  C   UNL     1      47.753   3.122  16.926  0.00  0.00    +0.000 C 
ATOM     11  O   UNL     1      46.807   2.706  17.585  0.00  0.00    +0.000 OA
ATOM     12  H   UNL     1      49.154   2.143  18.018  0.00  0.00    +0.000 HD
ATOM     13  H   UNL     1      49.837   3.233  16.862  0.00  0.00    +0.000 HD
ENDBRANCH   3  10
ENDBRANCH   2   6
ENDBRANCH   1   2
BRANCH   1  14
ATOM     14  C   UNL     1      45.433   7.716  11.401  0.00  0.00    +0.000 C 
BRANCH  14  15
ATOM     15  C   UNL     1      44.833   6.357  11.142  0.00  0.00    +0.000 A 
ATOM     16  C   UNL     1      43.572   6.025  11.641  0.00  0.00    +0.000 A 
ATOM     17  C   UNL     1      42.989   4.806  11.303  0.00  0.00    +0.000 A 
ATOM     18  C   UNL     1      43.648   3.927  10.440  0.00  0.00    +0.000 A 
ATOM     19  C   UNL     1      44.897   4.249   9.878  0.00  0.00    +0.000 A 
ATOM     20  C   UNL     1      45.487   5.462  10.279  0.00  0.00    +0.000 A 
BRANCH  19  21
ATOM     21  C   UNL     1      45.514   3.421   8.814  0.00  0.00    +0.000 A 
ATOM     22  C   UNL     1      46.155   4.027   7.716  0.00  0.00    +0.000 A 
ATOM     23  C   UNL     1      46.857   3.275   6.770  0.00  0.00    +0.000 A 
ATOM     24  C   UNL     1      46.939   1.894   6.903  0.00  0.00    +0.000 A 
ATOM     25  C   UNL     1      46.294   1.264   7.963  0.00  0.00    +0.000 A 
ATOM     26  C   UNL     1      45.580   2.018   8.900  0.00  0.00    +0.000 A 
ENDBRANCH  19  21
ENDBRANCH  14  15
ENDBRANCH   1  14
TORSDOF 6
ENDMDL
MODEL 5
REMARK VINA RESULT:    -7.162      1.405      2.400
REMARK INTER + INTRA:         -10.843
REMARK INTER:                  -9.918
REMARK INTRA:                  -0.925
REMARK UNBOUND:                -1.168
REMARK  Name = 
REMARK  6 active torsions:
REMARK  status: ('A' for Active; 'I' for Inactive)
REMARK    1  A    between atoms: C_2  and  C_4
REMARK    2  A    between atoms: C_7  and  O_8
REMARK    3  A    between atoms: O_8  and  C_9
REMARK    4  A    between atoms: C_9  and  C_10
REMARK    5  A    between atoms: C_10  and  C_11
REMARK    6  A    between atoms: C_15  and  C_16
REMARK                            x       y       z     vdW  Elec       q    Type
REMARK                         _______ _______ _______ _____ _____    ______ ____
ROOT
ATOM      1  C   UNL     1      44.281   5.128  11.309  0.00  0.00    +0.000 C 
ENDROOT
BRANCH   1   2
ATOM      2  O   UNL     1      43.790   4.710  10.034  0.00  0.00    +0.000 OA
BRANCH   2   6
ATOM      3  C   UNL     1      46.319   2.146   7.921  0.00  0.00    +0.000 A 
ATOM      4  C   UNL     1      46.412   3.520   7.681  0.00  0.00    +0.000 A 
ATOM      5  C   UNL     1      45.579   4.410   8.368  0.00  0.00    +0.000 A 
ATOM      6  C   UNL     1      44.645   3.937   9.292  0.00  0.00    +0.000 A 
ATOM      7  C   UNL     1      44.535   2.560   9.508  0.00  0.00    +0.000 A 
ATOM      8  C   UNL     1      45.363   1.665   8.822  0.00  0.00    +0.000 A 
BRANCH   3  10
ATOM      9  N   UNL     1      46.921  -0.150   7.389  0.00  0.00    +0.000 N 
ATOM     10  C   UNL     1      47.204   1.179   7.228  0.00  0.00    +0.000 C 
ATOM     11  O   UNL     1      48.127   1.547   6.510  0.00  0.00    +0.000 OA
ATOM     12  H   UNL     1      47.461  -0.792   6.823  0.00  0.00    +0.000 HD
ATOM     13  H   UNL     1      46.037  -0.472   7.750  0.00  0.00    +0.000 HD
ENDBRANCH   3  10
ENDBRANCH   2   6
ENDBRANCH   1   2
BRANCH   1  14
ATOM     14  C   UNL     1      44.884   6.529  11.194  0.00  0.00    +0.000 C 
BRANCH  14  15
ATOM     15  C   UNL     1      46.122   6.625  12.050  0.00  0.00    +0.000 A 
ATOM     16  C   UNL     1      46.311   5.764  13.134  0.00  0.00    +0.000 A 
ATOM     17  C   UNL     1      47.506   5.797  13.847  0.00  0.00    +0.000 A 
ATOM     18  C   UNL     1      48.531   6.666  13.462  0.00  0.00    +0.000 A 
ATOM     19  C   UNL     1      48.396   7.512  12.347  0.00  0.00    +0.000 A 
ATOM     20  C   UNL     1      47.158   7.497  11.678  0.00  0.00    +0.000 A 
BRANCH  19  21
ATOM     21  C   UNL     1      49.538   8.291  11.812  0.00  0.00    +0.000 A 
ATOM     22  C   UNL     1      50.689   7.636  11.331  0.00  0.00    +0.000 A 
ATOM     23  C   UNL     1      51.722   8.336  10.702  0.00  0.00    +0.000 A 
ATOM     24  C   UNL     1      51.627   9.712  10.534  0.00  0.00    +0.000 A 
ATOM     25  C   UNL     1      50.514  10.391  11.022  0.00  0.00    +0.000 A 
ATOM     26  C   UNL     1      49.488   9.689  11.664  0.00  0.00    +0.000 A 
ENDBRANCH  19  21
ENDBRANCH  14  15
ENDBRANCH   1  14
TORSDOF 6
ENDMDL
MODEL 6
REMARK VINA RESULT:    -6.900      4.717      8.117
REMARK INTER + INTRA:         -10.489
REMARK INTER:                  -9.796
REMARK INTRA:                  -0.693
REMARK UNBOUND:                -1.168
REMARK  Name = 
REMARK  6 active torsions:
REMARK  status: ('A' for Active; 'I' for Inactive)
REMARK    1  A    between atoms: C_2  and  C_4
REMARK    2  A    between atoms: C_7  and  O_8
REMARK    3  A    between atoms: O_8  and  C_9
REMARK    4  A    between atoms: C_9  and  C_10
REMARK    5  A    between atoms: C_10  and  C_11
REMARK    6  A    between atoms: C_15  and  C_16
REMARK                            x       y       z     vdW  Elec       q    Type
REMARK                         _______ _______ _______ _____ _____    ______ ____
ROOT
ATOM      1  C   UNL     1      46.881   4.154  14.252  0.00  0.00    +0.000 C 
ENDROOT
BRANCH   1   2
ATOM      2  O   UNL     1      46.801   3.881  15.652  0.00  0.00    +0.000 OA
BRANCH   2   6
ATOM      3  C   UNL     1      50.386   3.881  17.792  0.00  0.00    +0.000 A 
ATOM      4  C   UNL     1      49.809   5.110  17.460  0.00  0.00    +0.000 A 
ATOM      5  C   UNL     1      48.610   5.150  16.741  0.00  0.00    +0.000 A 
ATOM      6  C   UNL     1      47.982   3.967  16.343  0.00  0.00    +0.000 A 
ATOM      7  C   UNL     1      48.577   2.741  16.653  0.00  0.00    +0.000 A 
ATOM      8  C   UNL     1      49.777   2.694  17.369  0.00  0.00    +0.000 A 
BRANCH   3  10
ATOM      9  N   UNL     1      52.332   2.623  18.532  0.00  0.00    +0.000 N 
ATOM     10  C   UNL     1      51.643   3.803  18.575  0.00  0.00    +0.000 C 
ATOM     11  O   UNL     1      52.072   4.764  19.204  0.00  0.00    +0.000 OA
ATOM     12  H   UNL     1      53.242   2.620  18.976  0.00  0.00    +0.000 HD
ATOM     13  H   UNL     1      52.149   1.918  17.834  0.00  0.00    +0.000 HD
ENDBRANCH   3  10
ENDBRANCH   2   6
ENDBRANCH   1   2
BRANCH   1  14
ATOM     14  C   UNL     1      45.992   5.350  13.909  0.00  0.00    +0.000 C 
BRANCH  14  15
ATOM     15  C   UNL     1      45.030   4.974  12.810  0.00  0.00    +0.000 A 
ATOM     16  C   UNL     1      43.712   5.435  12.824  0.00  0.00    +0.000 A 
ATOM     17  C   UNL     1      42.869   5.166  11.749  0.00  0.00    +0.000 A 
ATOM     18  C   UNL     1      43.348   4.464  10.639  0.00  0.00    +0.000 A 
ATOM     19  C   UNL     1      44.683   4.028  10.567  0.00  0.00    +0.000 A 
ATOM     20  C   UNL     1      45.497   4.265  11.690  0.00  0.00    +0.000 A 
BRANCH  19  21
ATOM     21  C   UNL     1      45.255   3.459   9.323  0.00  0.00    +0.000 A 
ATOM     22  C   UNL     1      45.744   4.304   8.308  0.00  0.00    +0.000 A 
ATOM     23  C   UNL     1      46.406   3.797   7.187  0.00  0.00    +0.000 A 
ATOM     24  C   UNL     1      46.600   2.427   7.056  0.00  0.00    +0.000 A 
ATOM     25  C   UNL     1      46.105   1.564   8.029  0.00  0.00    +0.000 A 
ATOM     26  C   UNL     1      45.429   2.075   9.143  0.00  0.00    +0.000 A 
ENDBRANCH  19  21
ENDBRANCH  14  15
ENDBRANCH   1  14
TORSDOF 6
ENDMDL
MODEL 7
REMARK VINA RESULT:    -6.897      3.043      6.867
REMARK INTER + INTRA:         -10.485
REMARK INTER:                  -9.536
REMARK INTRA:                  -0.949
REMARK UNBOUND:                -1.168
REMARK  Name = 
REMARK  6 active torsions:
REMARK  status: ('A' for Active; 'I' for Inactive)
REMARK    1  A    between atoms: C_2  and  C_4
REMARK    2  A    between atoms: C_7  and  O_8
REMARK    3  A    between atoms: O_8  and  C_9
REMARK    4  A    between atoms: C_9  and  C_10
REMARK    5  A    between atoms: C_10  and  C_11
REMARK    6  A    between atoms: C_15  and  C_16
REMARK                            x       y       z     vdW  Elec       q    Type
REMARK                         _______ _______ _______ _____ _____    ______ ____
ROOT
ATOM      1  C   UNL     1      45.093   6.986  12.528  0.00  0.00    +0.000 C 
ENDROOT
BRANCH   1   2
ATOM      2  O   UNL     1      45.474   8.345  12.305  0.00  0.00    +0.000 OA
BRANCH   2   6
ATOM      3  C   UNL     1      49.573   8.730  11.613  0.00  0.00    +0.000 A 
ATOM      4  C   UNL     1      48.828   9.887  11.854  0.00  0.00    +0.000 A 
ATOM      5  C   UNL     1      47.451   9.798  12.087  0.00  0.00    +0.000 A 
ATOM      6  C   UNL     1      46.809   8.558  12.075  0.00  0.00    +0.000 A 
ATOM      7  C   UNL     1      47.554   7.407  11.805  0.00  0.00    +0.000 A 
ATOM      8  C   UNL     1      48.930   7.489  11.568  0.00  0.00    +0.000 A 
BRANCH   3  10
ATOM      9  N   UNL     1      51.771   7.700  11.775  0.00  0.00    +0.000 N 
ATOM     10  C   UNL     1      51.038   8.788  11.387  0.00  0.00    +0.000 C 
ATOM     11  O   UNL     1      51.570   9.748  10.841  0.00  0.00    +0.000 OA
ATOM     12  H   UNL     1      52.749   7.705  11.514  0.00  0.00    +0.000 HD
ATOM     13  H   UNL     1      51.345   6.810  11.982  0.00  0.00    +0.000 HD
ENDBRANCH   3  10
ENDBRANCH   2   6
ENDBRANCH   1   2
BRANCH   1  14
ATOM     14  C   UNL     1      43.994   6.591  11.542  0.00  0.00    +0.000 C 
BRANCH  14  15
ATOM     15  C   UNL     1      44.070   5.113  11.254  0.00  0.00    +0.000 A 
ATOM     16  C   UNL     1      43.235   4.211  11.916  0.00  0.00    +0.000 A 
ATOM     17  C   UNL     1      43.245   2.864  11.562  0.00  0.00    +0.000 A 
ATOM     18  C   UNL     1      44.066   2.417  10.523  0.00  0.00    +0.000 A 
ATOM     19  C   UNL     1      44.884   3.304   9.801  0.00  0.00    +0.000 A 
ATOM     20  C   UNL     1      44.894   4.649  10.215  0.00  0.00    +0.000 A 
BRANCH  19  21
ATOM     21  C   UNL     1      45.607   2.883   8.576  0.00  0.00    +0.000 A 
ATOM     22  C   UNL     1      45.906   3.815   7.564  0.00  0.00    +0.000 A 
ATOM     23  C   UNL     1      46.697   3.474   6.465  0.00  0.00    +0.000 A 
ATOM     24  C   UNL     1      47.216   2.190   6.353  0.00  0.00    +0.000 A 
ATOM     25  C   UNL     1      46.917   1.239   7.324  0.00  0.00    +0.000 A 
ATOM     26  C   UNL     1      46.111   1.579   8.417  0.00  0.00    +0.000 A 
ENDBRANCH  19  21
ENDBRANCH  14  15
ENDBRANCH   1  14
TORSDOF 6
ENDMDL
MODEL 8
REMARK VINA RESULT:    -6.884      3.996      7.555
REMARK INTER + INTRA:         -10.467
REMARK INTER:                  -9.239
REMARK INTRA:                  -1.228
REMARK UNBOUND:                -1.168
REMARK  Name = 
REMARK  6 active torsions:
REMARK  status: ('A' for Active; 'I' for Inactive)
REMARK    1  A    between atoms: C_2  and  C_4
REMARK    2  A    between atoms: C_7  and  O_8
REMARK    3  A    between atoms: O_8  and  C_9
REMARK    4  A    between atoms: C_9  and  C_10
REMARK    5  A    between atoms: C_10  and  C_11
REMARK    6  A    between atoms: C_15  and  C_16
REMARK                            x       y       z     vdW  Elec       q    Type
REMARK                         _______ _______ _______ _____ _____    ______ ____
ROOT
ATOM      1  C   UNL     1      49.557   7.281  13.039  0.00  0.00    +0.000 C 
ENDROOT
BRANCH   1   2
ATOM      2  O   UNL     1      49.100   7.682  14.332  0.00  0.00    +0.000 OA
BRANCH   2   6
ATOM      3  C   UNL     1      48.016   4.526  16.841  0.00  0.00    +0.000 A 
ATOM      4  C   UNL     1      49.067   5.358  17.235  0.00  0.00    +0.000 A 
ATOM      5  C   UNL     1      49.461   6.423  16.418  0.00  0.00    +0.000 A 
ATOM      6  C   UNL     1      48.814   6.663  15.204  0.00  0.00    +0.000 A 
ATOM      7  C   UNL     1      47.782   5.812  14.801  0.00  0.00    +0.000 A 
ATOM      8  C   UNL     1      47.385   4.743  15.611  0.00  0.00    +0.000 A 
BRANCH   3  10
ATOM      9  N   UNL     1      48.319   3.102  18.790  0.00  0.00    +0.000 N 
ATOM     10  C   UNL     1      47.557   3.403  17.695  0.00  0.00    +0.000 C 
ATOM     11  O   UNL     1      46.520   2.794  17.458  0.00  0.00    +0.000 OA
ATOM     12  H   UNL     1      47.937   2.412  19.424  0.00  0.00    +0.000 HD
ATOM     13  H   UNL     1      49.017   3.735  19.151  0.00  0.00    +0.000 HD
ENDBRANCH   3  10
ENDBRANCH   2   6
ENDBRANCH   1   2
BRANCH   1  14
ATOM     14  C   UNL     1      48.863   8.120  11.965  0.00  0.00    +0.000 C 
BRANCH  14  15
ATOM     15  C   UNL     1      47.392   7.790  11.929  0.00  0.00    +0.000 A 
ATOM     16  C   UNL     1      46.438   8.731  12.325  0.00  0.00    +0.000 A 
ATOM     17  C   UNL     1      45.082   8.448  12.185  0.00  0.00    +0.000 A 
ATOM     18  C   UNL     1      44.672   7.238  11.618  0.00  0.00    +0.000 A 
ATOM     19  C   UNL     1      45.603   6.288  11.162  0.00  0.00    +0.000 A 
ATOM     20  C   UNL     1      46.965   6.576  11.365  0.00  0.00    +0.000 A 
BRANCH  19  21
ATOM     21  C   UNL     1      45.188   5.096  10.384  0.00  0.00    +0.000 A 
ATOM     22  C   UNL     1      45.582   4.944   9.041  0.00  0.00    +0.000 A 
ATOM     23  C   UNL     1      45.317   3.772   8.327  0.00  0.00    +0.000 A 
ATOM     24  C   UNL     1      44.653   2.718   8.943  0.00  0.00    +0.000 A 
ATOM     25  C   UNL     1      44.227   2.849  10.262  0.00  0.00    +0.000 A 
ATOM     26  C   UNL     1      44.482   4.029  10.969  0.00  0.00    +0.000 A 
ENDBRANCH  19  21
ENDBRANCH  14  15
ENDBRANCH   1  14
TORSDOF 6
ENDMDL
MODEL 9
REMARK VINA RESULT:    -6.700      1.532      2.528
REMARK INTER + INTRA:         -10.218
REMARK INTER:                  -9.381
REMARK INTRA:                  -0.837
REMARK UNBOUND:                -1.168
REMARK  Name = 
REMARK  6 active torsions:
REMARK  status: ('A' for Active; 'I' for Inactive)
REMARK    1  A    between atoms: C_2  and  C_4
REMARK    2  A    between atoms: C_7  and  O_8
REMARK    3  A    between atoms: O_8  and  C_9
REMARK    4  A    between atoms: C_9  and  C_10
REMARK    5  A    between atoms: C_10  and  C_11
REMARK    6  A    between atoms: C_15  and  C_16
REMARK                            x       y       z     vdW  Elec       q    Type
REMARK                         _______ _______ _______ _____ _____    ______ ____
ROOT
ATOM      1  C   UNL     1      44.288   5.178  10.928  0.00  0.00    +0.000 C 
ENDROOT
BRANCH   1   2
ATOM      2  O   UNL     1      44.119   3.816  10.533  0.00  0.00    +0.000 OA
BRANCH   2   6
ATOM      3  C   UNL     1      46.514   2.778   7.274  0.00  0.00    +0.000 A 
ATOM      4  C   UNL     1      46.101   1.767   8.145  0.00  0.00    +0.000 A 
ATOM      5  C   UNL     1      45.300   2.076   9.250  0.00  0.00    +0.000 A 
ATOM      6  C   UNL     1      44.912   3.395   9.497  0.00  0.00    +0.000 A 
ATOM      7  C   UNL     1      45.352   4.407   8.640  0.00  0.00    +0.000 A 
ATOM      8  C   UNL     1      46.155   4.105   7.535  0.00  0.00    +0.000 A 
BRANCH   3  10
ATOM      9  N   UNL     1      48.407   1.640   6.255  0.00  0.00    +0.000 N 
ATOM     10  C   UNL     1      47.342   2.480   6.081  0.00  0.00    +0.000 C 
ATOM     11  O   UNL     1      47.067   2.932   4.975  0.00  0.00    +0.000 OA
ATOM     12  H   UNL     1      48.894   1.356   5.415  0.00  0.00    +0.000 HD
ATOM     13  H   UNL     1      48.505   1.058   7.074  0.00  0.00    +0.000 HD
ENDBRANCH   3  10
ENDBRANCH   2   6
ENDBRANCH   1   2
BRANCH   1  14
ATOM     14  C   UNL     1      45.395   5.277  11.978  0.00  0.00    +0.000 C 
BRANCH  14  15
ATOM     15  C   UNL     1      45.934   6.684  12.023  0.00  0.00    +0.000 A 
ATOM     16  C   UNL     1      45.096   7.762  12.318  0.00  0.00    +0.000 A 
ATOM     17  C   UNL     1      45.630   9.040  12.459  0.00  0.00    +0.000 A 
ATOM     18  C   UNL     1      47.008   9.243  12.340  0.00  0.00    +0.000 A 
ATOM     19  C   UNL     1      47.889   8.175  12.093  0.00  0.00    +0.000 A 
ATOM     20  C   UNL     1      47.316   6.904  11.901  0.00  0.00    +0.000 A 
BRANCH  19  21
ATOM     21  C   UNL     1      49.361   8.341  12.160  0.00  0.00    +0.000 A 
ATOM     22  C   UNL     1      49.978   8.793  13.342  0.00  0.00    +0.000 A 
ATOM     23  C   UNL     1      51.368   8.833  13.474  0.00  0.00    +0.000 A 
ATOM     24  C   UNL     1      52.178   8.416  12.425  0.00  0.00    +0.000 A 
ATOM     25  C   UNL     1      51.598   7.989  11.234  0.00  0.00    +0.000 A 
ATOM     26  C   UNL     1      50.205   7.964  11.100  0.00  0.00    +0.000 A 
ENDBRANCH  19  21
ENDBRANCH  14  15
ENDBRANCH   1  14
TORSDOF 6
ENDMDL
