MODEL 1
REMARK VINA RESULT:    -8.437      0.000      0.000
REMARK INTER + INTRA:         -13.496
REMARK INTER:                 -12.383
REMARK INTRA:                  -1.113
REMARK UNBOUND:                -1.113
REMARK  Name = 
REMARK  10 active torsions:
REMARK  status: ('A' for Active; 'I' for Inactive)
REMARK    1  A    between atoms: C_1  and  O_2
REMARK    2  A    between atoms: O_2  and  C_3
REMARK    3  A    between atoms: C_5  and  O_6
REMARK    4  A    between atoms: O_6  and  C_7
REMARK    5  A    between atoms: C_13  and  C_14
REMARK    6  A    between atoms: C_14  and  C_15
REMARK    7  A    between atoms: C_14  and  C_16
REMARK    8  A    between atoms: C_16  and  N_17
REMARK    9  A    between atoms: N_17  and  C_18
REMARK   10  A    between atoms: C_21  and  C_22
REMARK                            x       y       z     vdW  Elec       q    Type
REMARK                         _______ _______ _______ _____ _____    ______ ____
ROOT
ATOM      1  C   UNL     1      43.453   4.504  12.529  0.00  0.00    +0.000 C 
ATOM      2  C   UNL     1      42.449   5.538  11.997  0.00  0.00    +0.000 C 
ENDROOT
BRANCH   1   7
ATOM      3  C   UNL     1      46.347   7.009  12.631  0.00  0.00    +0.000 A 
ATOM      4  C   UNL     1      47.316   6.302  13.351  0.00  0.00    +0.000 A 
ATOM      5  C   UNL     1      46.991   5.075  13.930  0.00  0.00    +0.000 A 
ATOM      6  C   UNL     1      45.746   4.495  13.648  0.00  0.00    +0.000 A 
ATOM      7  C   UNL     1      44.790   5.156  12.863  0.00  0.00    +0.000 A 
ATOM      8  C   UNL     1      45.099   6.436  12.387  0.00  0.00    +0.000 A 
BRANCH   3  10
ATOM      9  C   UNL     1      45.487   9.187  12.391  0.00  0.00    +0.000 C 
ATOM     10  O   UNL     1      46.521   8.256  12.093  0.00  0.00    +0.000 OA
ENDBRANCH   3  10
BRANCH   5  11
ATOM     11  O   UNL     1      47.795   4.346  14.775  0.00  0.00    +0.000 OA
BRANCH  11  12
ATOM     12  C   UNL     1      47.467   4.327  16.172  0.00  0.00    +0.000 C 
ATOM     13  C   UNL     1      48.316   5.362  16.910  0.00  0.00    +0.000 C 
ATOM     14  C   UNL     1      49.559   4.603  17.334  0.00  0.00    +0.000 C 
ATOM     15  N   UNL     1      49.103   3.249  17.643  0.00  0.00    +0.000 NA
ATOM     16  C   UNL     1      47.860   3.022  16.884  0.00  0.00    +0.000 C 
ATOM     17  H   UNL     1      48.908   3.168  18.640  0.00  0.00    +0.000 HD
ENDBRANCH  11  12
ENDBRANCH   5  11
ENDBRANCH   1   7
BRANCH   1  18
ATOM     18  C   UNL     1      43.659   3.332  11.538  0.00  0.00    +0.000 C 
BRANCH  18  19
ATOM     19  N   UNL     1      43.675   3.798  10.154  0.00  0.00    +0.000 N 
ATOM     20  H   UNL     1      42.762   3.828   9.708  0.00  0.00    +0.000 HD
BRANCH  19  21
ATOM     21  C   UNL     1      44.676   3.396   9.273  0.00  0.00    +0.000 A 
ATOM     22  C   UNL     1      45.286   4.240   8.338  0.00  0.00    +0.000 A 
ATOM     23  C   UNL     1      46.249   3.753   7.447  0.00  0.00    +0.000 A 
ATOM     24  C   UNL     1      46.603   2.400   7.458  0.00  0.00    +0.000 A 
ATOM     25  C   UNL     1      45.967   1.534   8.348  0.00  0.00    +0.000 A 
ATOM     26  C   UNL     1      45.009   2.034   9.236  0.00  0.00    +0.000 A 
BRANCH  24  27
ATOM     27  C   UNL     1      47.622   1.929   6.483  0.00  0.00    +0.000 C 
ATOM     28  N   UNL     1      48.788   2.640   6.397  0.00  0.00    +0.000 N 
ATOM     29  O   UNL     1      47.419   0.971   5.756  0.00  0.00    +0.000 OA
ATOM     30  H   UNL     1      48.931   3.536   6.840  0.00  0.00    +0.000 HD
ATOM     31  H   UNL     1      49.434   2.358   5.672  0.00  0.00    +0.000 HD
ENDBRANCH  24  27
ENDBRANCH  19  21
ENDBRANCH  18  19
ENDBRANCH   1  18
TORSDOF 8
ENDMDL
MODEL 2
REMARK VINA RESULT:    -7.472      2.363      3.950
REMARK INTER + INTRA:         -12.080
REMARK INTER:                 -11.116
REMARK INTRA:                  -0.964
REMARK UNBOUND:                -1.113
REMARK  Name = 
REMARK  10 active torsions:
REMARK  status: ('A' for Active; 'I' for Inactive)
REMARK    1  A    between atoms: C_1  and  O_2
REMARK    2  A    between atoms: O_2  and  C_3
REMARK    3  A    between atoms: C_5  and  O_6
REMARK    4  A    between atoms: O_6  and  C_7
REMARK    5  A    between atoms: C_13  and  C_14
REMARK    6  A    between atoms: C_14  and  C_15
REMARK    7  A    between atoms: C_14  and  C_16
REMARK    8  A    between atoms: C_16  and  N_17
REMARK    9  A    between atoms: N_17  and  C_18
REMARK   10  A    between atoms: C_21  and  C_22
REMARK                            x       y       z     vdW  Elec       q    Type
REMARK                         _______ _______ _______ _____ _____    ______ ____
ROOT
ATOM      1  C   UNL     1      44.530   4.441  12.029  0.00  0.00    +0.000 C 
ATOM      2  C   UNL     1      43.421   3.853  12.913  0.00  0.00    +0.000 C 
ENDROOT
BRANCH   1   7
ATOM      3  C   UNL     1      47.290   4.631  14.675  0.00  0.00    +0.000 A 
ATOM      4  C   UNL     1      47.738   5.949  14.532  0.00  0.00    +0.000 A 
ATOM      5  C   UNL     1      47.252   6.737  13.488  0.00  0.00    +0.000 A 
ATOM      6  C   UNL     1      46.207   6.246  12.691  0.00  0.00    +0.000 A 
ATOM      7  C   UNL     1      45.692   4.953  12.871  0.00  0.00    +0.000 A 
ATOM      8  C   UNL     1      46.274   4.143  13.854  0.00  0.00    +0.000 A 
BRANCH   3  10
ATOM      9  C   UNL     1      48.185   4.320  16.830  0.00  0.00    +0.000 C 
ATOM     10  O   UNL     1      47.756   3.739  15.604  0.00  0.00    +0.000 OA
ENDBRANCH   3  10
BRANCH   5  11
ATOM     11  O   UNL     1      47.706   7.989  13.146  0.00  0.00    +0.000 OA
BRANCH  11  12
ATOM     12  C   UNL     1      48.255   8.175  11.834  0.00  0.00    +0.000 C 
ATOM     13  C   UNL     1      49.626   7.501  11.754  0.00  0.00    +0.000 C 
ATOM     14  C   UNL     1      50.607   8.582  12.167  0.00  0.00    +0.000 C 
ATOM     15  N   UNL     1      50.053   9.832  11.651  0.00  0.00    +0.000 NA
ATOM     16  C   UNL     1      48.598   9.639  11.508  0.00  0.00    +0.000 C 
ATOM     17  H   UNL     1      50.456  10.039  10.737  0.00  0.00    +0.000 HD
ENDBRANCH  11  12
ENDBRANCH   5  11
ENDBRANCH   1   7
BRANCH   1  18
ATOM     18  C   UNL     1      44.001   5.564  11.102  0.00  0.00    +0.000 C 
BRANCH  18  19
ATOM     19  N   UNL     1      43.791   5.077   9.741  0.00  0.00    +0.000 N 
ATOM     20  H   UNL     1      42.817   4.924   9.494  0.00  0.00    +0.000 HD
BRANCH  19  21
ATOM     21  C   UNL     1      44.631   4.114   9.185  0.00  0.00    +0.000 A 
ATOM     22  C   UNL     1      45.636   4.392   8.252  0.00  0.00    +0.000 A 
ATOM     23  C   UNL     1      46.407   3.365   7.697  0.00  0.00    +0.000 A 
ATOM     24  C   UNL     1      46.169   2.033   8.046  0.00  0.00    +0.000 A 
ATOM     25  C   UNL     1      45.137   1.733   8.934  0.00  0.00    +0.000 A 
ATOM     26  C   UNL     1      44.375   2.768   9.487  0.00  0.00    +0.000 A 
BRANCH  24  27
ATOM     27  C   UNL     1      47.007   0.977   7.418  0.00  0.00    +0.000 C 
ATOM     28  N   UNL     1      47.859   1.362   6.418  0.00  0.00    +0.000 N 
ATOM     29  O   UNL     1      46.917  -0.194   7.746  0.00  0.00    +0.000 OA
ATOM     30  H   UNL     1      47.842   2.275   5.989  0.00  0.00    +0.000 HD
ATOM     31  H   UNL     1      48.360   0.621   5.945  0.00  0.00    +0.000 HD
ENDBRANCH  24  27
ENDBRANCH  19  21
ENDBRANCH  18  19
ENDBRANCH   1  18
TORSDOF 8
ENDMDL
MODEL 3
REMARK VINA RESULT:    -7.284      2.276      7.939
REMARK INTER + INTRA:         -11.804
REMARK INTER:                 -10.666
REMARK INTRA:                  -1.138
REMARK UNBOUND:                -1.113
REMARK  Name = 
REMARK  10 active torsions:
REMARK  status: ('A' for Active; 'I' for Inactive)
REMARK    1  A    between atoms: C_1  and  O_2
REMARK    2  A    between atoms: O_2  and  C_3
REMARK    3  A    between atoms: C_5  and  O_6
REMARK    4  A    between atoms: O_6  and  C_7
REMARK    5  A    between atoms: C_13  and  C_14
REMARK    6  A    between atoms: C_14  and  C_15
REMARK    7  A    between atoms: C_14  and  C_16
REMARK    8  A    between atoms: C_16  and  N_17
REMARK    9  A    between atoms: N_17  and  C_18
REMARK   10  A    between atoms: C_21  and  C_22
REMARK                            x       y       z     vdW  Elec       q    Type
REMARK                         _______ _______ _______ _____ _____    ______ ____
ROOT
ATOM      1  C   UNL     1      45.900   6.709  10.683  0.00  0.00    +0.000 C 
ATOM      2  C   UNL     1      44.870   7.320  11.645  0.00  0.00    +0.000 C 
ENDROOT
BRANCH   1   7
ATOM      3  C   UNL     1      44.135   3.326  10.367  0.00  0.00    +0.000 A 
ATOM      4  C   UNL     1      44.605   2.870   9.130  0.00  0.00    +0.000 A 
ATOM      5  C   UNL     1      45.379   3.710   8.329  0.00  0.00    +0.000 A 
ATOM      6  C   UNL     1      45.804   4.944   8.844  0.00  0.00    +0.000 A 
ATOM      7  C   UNL     1      45.404   5.385  10.114  0.00  0.00    +0.000 A 
ATOM      8  C   UNL     1      44.537   4.571  10.852  0.00  0.00    +0.000 A 
BRANCH   3  10
ATOM      9  C   UNL     1      43.496   2.871  12.586  0.00  0.00    +0.000 C 
ATOM     10  O   UNL     1      43.301   2.627  11.198  0.00  0.00    +0.000 OA
ENDBRANCH   3  10
BRANCH   5  11
ATOM     11  O   UNL     1      45.785   3.445   7.042  0.00  0.00    +0.000 OA
BRANCH  11  12
ATOM     12  C   UNL     1      47.112   2.936   6.843  0.00  0.00    +0.000 C 
ATOM     13  C   UNL     1      47.429   2.906   5.348  0.00  0.00    +0.000 C 
ATOM     14  C   UNL     1      46.982   1.530   4.891  0.00  0.00    +0.000 C 
ATOM     15  N   UNL     1      47.263   0.635   6.012  0.00  0.00    +0.000 NA
ATOM     16  C   UNL     1      47.274   1.458   7.236  0.00  0.00    +0.000 C 
ATOM     17  H   UNL     1      48.178   0.203   5.889  0.00  0.00    +0.000 HD
ENDBRANCH  11  12
ENDBRANCH   5  11
ENDBRANCH   1   7
BRANCH   1  18
ATOM     18  C   UNL     1      47.283   6.522  11.355  0.00  0.00    +0.000 C 
BRANCH  18  19
ATOM     19  N   UNL     1      47.281   7.020  12.728  0.00  0.00    +0.000 N 
ATOM     20  H   UNL     1      47.833   7.861  12.873  0.00  0.00    +0.000 HD
BRANCH  19  21
ATOM     21  C   UNL     1      47.368   6.144  13.809  0.00  0.00    +0.000 A 
ATOM     22  C   UNL     1      48.134   6.385  14.955  0.00  0.00    +0.000 A 
ATOM     23  C   UNL     1      48.216   5.435  15.979  0.00  0.00    +0.000 A 
ATOM     24  C   UNL     1      47.551   4.211  15.864  0.00  0.00    +0.000 A 
ATOM     25  C   UNL     1      46.826   3.933  14.706  0.00  0.00    +0.000 A 
ATOM     26  C   UNL     1      46.747   4.892  13.690  0.00  0.00    +0.000 A 
BRANCH  24  27
ATOM     27  C   UNL     1      47.680   3.230  16.974  0.00  0.00    +0.000 C 
ATOM     28  N   UNL     1      48.939   2.793  17.285  0.00  0.00    +0.000 N 
ATOM     29  O   UNL     1      46.704   2.795  17.563  0.00  0.00    +0.000 OA
ATOM     30  H   UNL     1      49.752   2.980  16.717  0.00  0.00    +0.000 HD
ATOM     31  H   UNL     1      49.002   2.065  17.984  0.00  0.00    +0.000 HD
ENDBRANCH  24  27
ENDBRANCH  19  21
ENDBRANCH  18  19
ENDBRANCH   1  18
TORSDOF 8
ENDMDL
MODEL 4
REMARK VINA RESULT:    -6.880      1.887      2.300
REMARK INTER + INTRA:         -11.211
REMARK INTER:                 -10.199
REMARK INTRA:                  -1.012
REMARK UNBOUND:                -1.113
REMARK  Name = 
REMARK  10 active torsions:
REMARK  status: ('A' for Active; 'I' for Inactive)
REMARK    1  A    between atoms: C_1  and  O_2
REMARK    2  A    between atoms: O_2  and  C_3
REMARK    3  A    between atoms: C_5  and  O_6
REMARK    4  A    between atoms: O_6  and  C_7
REMARK    5  A    between atoms: C_13  and  C_14
REMARK    6  A    between atoms: C_14  and  C_15
REMARK    7  A    between atoms: C_14  and  C_16
REMARK    8  A    between atoms: C_16  and  N_17
REMARK    9  A    between atoms: N_17  and  C_18
REMARK   10  A    between atoms: C_21  and  C_22
REMARK                            x       y       z     vdW  Elec       q    Type
REMARK                         _______ _______ _______ _____ _____    ______ ____
ROOT
ATOM      1  C   UNL     1      45.553   4.429  11.980  0.00  0.00    +0.000 C 
ATOM      2  C   UNL     1      45.816   3.192  12.852  0.00  0.00    +0.000 C 
ENDROOT
BRANCH   1   7
ATOM      3  C   UNL     1      46.148   8.082  12.960  0.00  0.00    +0.000 A 
ATOM      4  C   UNL     1      47.388   8.010  13.606  0.00  0.00    +0.000 A 
ATOM      5  C   UNL     1      47.968   6.766  13.855  0.00  0.00    +0.000 A 
ATOM      6  C   UNL     1      47.376   5.615  13.315  0.00  0.00    +0.000 A 
ATOM      7  C   UNL     1      46.172   5.678  12.597  0.00  0.00    +0.000 A 
ATOM      8  C   UNL     1      45.552   6.926  12.458  0.00  0.00    +0.000 A 
BRANCH   3  10
ATOM      9  C   UNL     1      44.681   9.249  11.538  0.00  0.00    +0.000 C 
ATOM     10  O   UNL     1      45.443   9.235  12.739  0.00  0.00    +0.000 OA
ENDBRANCH   3  10
BRANCH   5  11
ATOM     11  O   UNL     1      49.104   6.542  14.598  0.00  0.00    +0.000 OA
BRANCH  11  12
ATOM     12  C   UNL     1      49.694   7.655  15.283  0.00  0.00    +0.000 C 
ATOM     13  C   UNL     1      51.218   7.532  15.240  0.00  0.00    +0.000 C 
ATOM     14  C   UNL     1      51.573   6.752  16.492  0.00  0.00    +0.000 C 
ATOM     15  N   UNL     1      50.612   7.182  17.506  0.00  0.00    +0.000 NA
ATOM     16  C   UNL     1      49.416   7.671  16.796  0.00  0.00    +0.000 C 
ATOM     17  H   UNL     1      51.008   7.941  18.060  0.00  0.00    +0.000 HD
ENDBRANCH  11  12
ENDBRANCH   5  11
ENDBRANCH   1   7
BRANCH   1  18
ATOM     18  C   UNL     1      44.042   4.648  11.723  0.00  0.00    +0.000 C 
BRANCH  18  19
ATOM     19  N   UNL     1      43.655   4.191  10.390  0.00  0.00    +0.000 N 
ATOM     20  H   UNL     1      42.797   3.648  10.363  0.00  0.00    +0.000 HD
BRANCH  19  21
ATOM     21  C   UNL     1      44.607   3.711   9.493  0.00  0.00    +0.000 A 
ATOM     22  C   UNL     1      45.382   4.526   8.659  0.00  0.00    +0.000 A 
ATOM     23  C   UNL     1      46.282   3.971   7.743  0.00  0.00    +0.000 A 
ATOM     24  C   UNL     1      46.407   2.584   7.626  0.00  0.00    +0.000 A 
ATOM     25  C   UNL     1      45.605   1.756   8.411  0.00  0.00    +0.000 A 
ATOM     26  C   UNL     1      44.711   2.322   9.327  0.00  0.00    +0.000 A 
BRANCH  24  27
ATOM     27  C   UNL     1      47.368   2.043   6.628  0.00  0.00    +0.000 C 
ATOM     28  N   UNL     1      46.931   1.916   5.337  0.00  0.00    +0.000 N 
ATOM     29  O   UNL     1      48.490   1.686   6.946  0.00  0.00    +0.000 OA
ATOM     30  H   UNL     1      45.967   2.023   5.060  0.00  0.00    +0.000 HD
ATOM     31  H   UNL     1      47.567   1.469   4.689  0.00  0.00    +0.000 HD
ENDBRANCH  24  27
ENDBRANCH  19  21
ENDBRANCH  18  19
ENDBRANCH   1  18
TORSDOF 8
ENDMDL
MODEL 5
REMARK VINA RESULT:    -6.742      3.126      4.907
REMARK INTER + INTRA:         -11.008
REMARK INTER:                  -9.846
REMARK INTRA:                  -1.162
REMARK UNBOUND:                -1.113
REMARK  Name = 
REMARK  10 active torsions:
REMARK  status: ('A' for Active; 'I' for Inactive)
REMARK    1  A    between atoms: C_1  and  O_2
REMARK    2  A    between atoms: O_2  and  C_3
REMARK    3  A    between atoms: C_5  and  O_6
REMARK    4  A    between atoms: O_6  and  C_7
REMARK    5  A    between atoms: C_13  and  C_14
REMARK    6  A    between atoms: C_14  and  C_15
REMARK    7  A    between atoms: C_14  and  C_16
REMARK    8  A    between atoms: C_16  and  N_17
REMARK    9  A    between atoms: N_17  and  C_18
REMARK   10  A    between atoms: C_21  and  C_22
REMARK                            x       y       z     vdW  Elec       q    Type
REMARK                         _______ _______ _______ _____ _____    ______ ____
ROOT
ATOM      1  C   UNL     1      48.207   8.576  12.861  0.00  0.00    +0.000 C 
ATOM      2  C   UNL     1      48.860   7.516  11.960  0.00  0.00    +0.000 C 
ENDROOT
BRANCH   1   7
ATOM      3  C   UNL     1      48.456   8.923  16.665  0.00  0.00    +0.000 A 
ATOM      4  C   UNL     1      48.878   7.644  17.045  0.00  0.00    +0.000 A 
ATOM      5  C   UNL     1      48.946   6.625  16.095  0.00  0.00    +0.000 A 
ATOM      6  C   UNL     1      48.741   6.937  14.743  0.00  0.00    +0.000 A 
ATOM      7  C   UNL     1      48.392   8.234  14.335  0.00  0.00    +0.000 A 
ATOM      8  C   UNL     1      48.221   9.212  15.322  0.00  0.00    +0.000 A 
BRANCH   3  10
ATOM      9  C   UNL     1      47.641   9.641  18.753  0.00  0.00    +0.000 C 
ATOM     10  O   UNL     1      48.268   9.976  17.521  0.00  0.00    +0.000 OA
ENDBRANCH   3  10
BRANCH   5  11
ATOM     11  O   UNL     1      49.206   5.299  16.353  0.00  0.00    +0.000 OA
BRANCH  11  12
ATOM     12  C   UNL     1      48.764   4.755  17.604  0.00  0.00    +0.000 C 
ATOM     13  C   UNL     1      49.168   3.283  17.692  0.00  0.00    +0.000 C 
ATOM     14  C   UNL     1      47.991   2.527  17.106  0.00  0.00    +0.000 C 
ATOM     15  N   UNL     1      46.804   3.285  17.500  0.00  0.00    +0.000 NA
ATOM     16  C   UNL     1      47.234   4.676  17.739  0.00  0.00    +0.000 C 
ATOM     17  H   UNL     1      46.417   2.900  18.361  0.00  0.00    +0.000 HD
ENDBRANCH  11  12
ENDBRANCH   5  11
ENDBRANCH   1   7
BRANCH   1  18
ATOM     18  C   UNL     1      46.705   8.768  12.537  0.00  0.00    +0.000 C 
BRANCH  18  19
ATOM     19  N   UNL     1      45.874   7.824  13.281  0.00  0.00    +0.000 N 
ATOM     20  H   UNL     1      46.158   7.681  14.246  0.00  0.00    +0.000 HD
BRANCH  19  21
ATOM     21  C   UNL     1      45.418   6.648  12.688  0.00  0.00    +0.000 A 
ATOM     22  C   UNL     1      44.520   6.606  11.616  0.00  0.00    +0.000 A 
ATOM     23  C   UNL     1      44.064   5.386  11.105  0.00  0.00    +0.000 A 
ATOM     24  C   UNL     1      44.480   4.180  11.677  0.00  0.00    +0.000 A 
ATOM     25  C   UNL     1      45.334   4.205  12.780  0.00  0.00    +0.000 A 
ATOM     26  C   UNL     1      45.786   5.431  13.279  0.00  0.00    +0.000 A 
BRANCH  24  27
ATOM     27  C   UNL     1      43.957   2.910  11.107  0.00  0.00    +0.000 C 
ATOM     28  N   UNL     1      44.665   2.340  10.084  0.00  0.00    +0.000 N 
ATOM     29  O   UNL     1      42.917   2.410  11.502  0.00  0.00    +0.000 OA
ATOM     30  H   UNL     1      45.423   2.801   9.603  0.00  0.00    +0.000 HD
ATOM     31  H   UNL     1      44.252   1.524   9.652  0.00  0.00    +0.000 HD
ENDBRANCH  24  27
ENDBRANCH  19  21
ENDBRANCH  18  19
ENDBRANCH   1  18
TORSDOF 8
ENDMDL
MODEL 6
REMARK VINA RESULT:    -6.575      2.487      4.914
REMARK INTER + INTRA:         -10.763
REMARK INTER:                  -9.643
REMARK INTRA:                  -1.121
REMARK UNBOUND:                -1.113
REMARK  Name = 
REMARK  10 active torsions:
REMARK  status: ('A' for Active; 'I' for Inactive)
REMARK    1  A    between atoms: C_1  and  O_2
REMARK    2  A    between atoms: O_2  and  C_3
REMARK    3  A    between atoms: C_5  and  O_6
REMARK    4  A    between atoms: O_6  and  C_7
REMARK    5  A    between atoms: C_13  and  C_14
REMARK    6  A    between atoms: C_14  and  C_15
REMARK    7  A    between atoms: C_14  and  C_16
REMARK    8  A    between atoms: C_16  and  N_17
REMARK    9  A    between atoms: N_17  and  C_18
REMARK   10  A    between atoms: C_21  and  C_22
REMARK                            x       y       z     vdW  Elec       q    Type
REMARK                         _______ _______ _______ _____ _____    ______ ____
ROOT
ATOM      1  C   UNL     1      45.720   4.451  12.104  0.00  0.00    +0.000 C 
ATOM      2  C   UNL     1      46.092   3.342  13.100  0.00  0.00    +0.000 C 
ENDROOT
BRANCH   1   7
ATOM      3  C   UNL     1      47.828   7.067  13.941  0.00  0.00    +0.000 A 
ATOM      4  C   UNL     1      47.386   8.258  13.354  0.00  0.00    +0.000 A 
ATOM      5  C   UNL     1      46.514   8.213  12.266  0.00  0.00    +0.000 A 
ATOM      6  C   UNL     1      45.970   6.980  11.877  0.00  0.00    +0.000 A 
ATOM      7  C   UNL     1      46.343   5.783  12.506  0.00  0.00    +0.000 A 
ATOM      8  C   UNL     1      47.306   5.844  13.521  0.00  0.00    +0.000 A 
BRANCH   3  10
ATOM      9  C   UNL     1      50.039   7.485  14.632  0.00  0.00    +0.000 C 
ATOM     10  O   UNL     1      48.747   6.982  14.953  0.00  0.00    +0.000 OA
ENDBRANCH   3  10
BRANCH   5  11
ATOM     11  O   UNL     1      46.114   9.290  11.510  0.00  0.00    +0.000 OA
BRANCH  11  12
ATOM     12  C   UNL     1      46.546  10.598  11.914  0.00  0.00    +0.000 C 
ATOM     13  C   UNL     1      45.409  11.599  11.703  0.00  0.00    +0.000 C 
ATOM     14  C   UNL     1      45.615  12.118  10.293  0.00  0.00    +0.000 C 
ATOM     15  N   UNL     1      47.063  12.162  10.100  0.00  0.00    +0.000 NA
ATOM     16  C   UNL     1      47.658  11.183  11.028  0.00  0.00    +0.000 C 
ATOM     17  H   UNL     1      47.414  13.093  10.322  0.00  0.00    +0.000 HD
ENDBRANCH  11  12
ENDBRANCH   5  11
ENDBRANCH   1   7
BRANCH   1  18
ATOM     18  C   UNL     1      44.187   4.601  11.946  0.00  0.00    +0.000 C 
BRANCH  18  19
ATOM     19  N   UNL     1      43.744   4.184  10.618  0.00  0.00    +0.000 N 
ATOM     20  H   UNL     1      42.894   3.627  10.612  0.00  0.00    +0.000 HD
BRANCH  19  21
ATOM     21  C   UNL     1      44.659   3.755   9.658  0.00  0.00    +0.000 A 
ATOM     22  C   UNL     1      45.309   4.606   8.757  0.00  0.00    +0.000 A 
ATOM     23  C   UNL     1      46.176   4.098   7.784  0.00  0.00    +0.000 A 
ATOM     24  C   UNL     1      46.391   2.721   7.678  0.00  0.00    +0.000 A 
ATOM     25  C   UNL     1      45.712   1.855   8.534  0.00  0.00    +0.000 A 
ATOM     26  C   UNL     1      44.850   2.374   9.505  0.00  0.00    +0.000 A 
BRANCH  24  27
ATOM     27  C   UNL     1      47.312   2.230   6.619  0.00  0.00    +0.000 C 
ATOM     28  N   UNL     1      47.016   2.560   5.324  0.00  0.00    +0.000 N 
ATOM     29  O   UNL     1      48.274   1.527   6.880  0.00  0.00    +0.000 OA
ATOM     30  H   UNL     1      46.144   2.980   5.039  0.00  0.00    +0.000 HD
ATOM     31  H   UNL     1      47.603   2.149   4.610  0.00  0.00    +0.000 HD
ENDBRANCH  24  27
ENDBRANCH  19  21
ENDBRANCH  18  19
ENDBRANCH   1  18
TORSDOF 8
ENDMDL
MODEL 7
REMARK VINA RESULT:    -6.339      2.787      7.626
REMARK INTER + INTRA:         -10.417
REMARK INTER:                  -9.214
REMARK INTRA:                  -1.203
REMARK UNBOUND:                -1.113
REMARK  Name = 
REMARK  10 active torsions:
REMARK  status: ('A' for Active; 'I' for Inactive)
REMARK    1  A    between atoms: C_1  and  O_2
REMARK    2  A    between atoms: O_2  and  C_3
REMARK    3  A    between atoms: C_5  and  O_6
REMARK    4  A    between atoms: O_6  and  C_7
REMARK    5  A    between atoms: C_13  and  C_14
REMARK    6  A    between atoms: C_14  and  C_15
REMARK    7  A    between atoms: C_14  and  C_16
REMARK    8  A    between atoms: C_16  and  N_17
REMARK    9  A    between atoms: N_17  and  C_18
REMARK   10  A    between atoms: C_21  and  C_22
REMARK                            x       y       z     vdW  Elec       q    Type
REMARK                         _______ _______ _______ _____ _____    ______ ____
ROOT
ATOM      1  C   UNL     1      48.844   8.615  12.598  0.00  0.00    +0.000 C 
ATOM      2  C   UNL     1      48.884   9.813  13.558  0.00  0.00    +0.000 C 
ENDROOT
BRANCH   1   7
ATOM      3  C   UNL     1      45.108   8.934  11.827  0.00  0.00    +0.000 A 
ATOM      4  C   UNL     1      44.730   7.595  11.668  0.00  0.00    +0.000 A 
ATOM      5  C   UNL     1      45.703   6.596  11.667  0.00  0.00    +0.000 A 
ATOM      6  C   UNL     1      47.028   6.932  11.982  0.00  0.00    +0.000 A 
ATOM      7  C   UNL     1      47.411   8.261  12.220  0.00  0.00    +0.000 A 
ATOM      8  C   UNL     1      46.435   9.258  12.104  0.00  0.00    +0.000 A 
BRANCH   3  10
ATOM      9  C   UNL     1      44.576  10.962  10.757  0.00  0.00    +0.000 C 
ATOM     10  O   UNL     1      44.256  10.004  11.759  0.00  0.00    +0.000 OA
ENDBRANCH   3  10
BRANCH   5  11
ATOM     11  O   UNL     1      45.492   5.267  11.383  0.00  0.00    +0.000 OA
BRANCH  11  12
ATOM     12  C   UNL     1      44.246   4.895  10.777  0.00  0.00    +0.000 C 
ATOM     13  C   UNL     1      43.289   4.378  11.852  0.00  0.00    +0.000 C 
ATOM     14  C   UNL     1      43.549   2.884  11.908  0.00  0.00    +0.000 C 
ATOM     15  N   UNL     1      43.850   2.488  10.534  0.00  0.00    +0.000 NA
ATOM     16  C   UNL     1      44.353   3.685   9.834  0.00  0.00    +0.000 C 
ATOM     17  H   UNL     1      43.000   2.161  10.073  0.00  0.00    +0.000 HD
ENDBRANCH  11  12
ENDBRANCH   5  11
ENDBRANCH   1   7
BRANCH   1  18
ATOM     18  C   UNL     1      49.567   7.377  13.184  0.00  0.00    +0.000 C 
BRANCH  18  19
ATOM     19  N   UNL     1      49.737   7.493  14.630  0.00  0.00    +0.000 N 
ATOM     20  H   UNL     1      50.651   7.828  14.922  0.00  0.00    +0.000 HD
BRANCH  19  21
ATOM     21  C   UNL     1      49.238   6.518  15.491  0.00  0.00    +0.000 A 
ATOM     22  C   UNL     1      49.891   6.083  16.650  0.00  0.00    +0.000 A 
ATOM     23  C   UNL     1      49.354   5.061  17.440  0.00  0.00    +0.000 A 
ATOM     24  C   UNL     1      48.161   4.434  17.070  0.00  0.00    +0.000 A 
ATOM     25  C   UNL     1      47.523   4.818  15.891  0.00  0.00    +0.000 A 
ATOM     26  C   UNL     1      48.067   5.844  15.111  0.00  0.00    +0.000 A 
BRANCH  24  27
ATOM     27  C   UNL     1      47.638   3.344  17.936  0.00  0.00    +0.000 C 
ATOM     28  N   UNL     1      48.283   3.118  19.122  0.00  0.00    +0.000 N 
ATOM     29  O   UNL     1      46.698   2.647  17.593  0.00  0.00    +0.000 OA
ATOM     30  H   UNL     1      49.166   3.539  19.368  0.00  0.00    +0.000 HD
ATOM     31  H   UNL     1      47.968   2.321  19.659  0.00  0.00    +0.000 HD
ENDBRANCH  24  27
ENDBRANCH  19  21
ENDBRANCH  18  19
ENDBRANCH   1  18
TORSDOF 8
ENDMDL
MODEL 8
REMARK VINA RESULT:    -6.114      3.673      7.268
REMARK INTER + INTRA:         -10.087
REMARK INTER:                  -8.839
REMARK INTRA:                  -1.248
REMARK UNBOUND:                -1.113
REMARK  Name = 
REMARK  10 active torsions:
REMARK  status: ('A' for Active; 'I' for Inactive)
REMARK    1  A    between atoms: C_1  and  O_2
REMARK    2  A    between atoms: O_2  and  C_3
REMARK    3  A    between atoms: C_5  and  O_6
REMARK    4  A    between atoms: O_6  and  C_7
REMARK    5  A    between atoms: C_13  and  C_14
REMARK    6  A    between atoms: C_14  and  C_15
REMARK    7  A    between atoms: C_14  and  C_16
REMARK    8  A    between atoms: C_16  and  N_17
REMARK    9  A    between atoms: N_17  and  C_18
REMARK   10  A    between atoms: C_21  and  C_22
REMARK                            x       y       z     vdW  Elec       q    Type
REMARK                         _______ _______ _______ _____ _____    ______ ____
ROOT
ATOM      1  C   UNL     1      48.248   9.274  12.888  0.00  0.00    +0.000 C 
ATOM      2  C   UNL     1      49.304   9.986  13.746  0.00  0.00    +0.000 C 
ENDROOT
BRANCH   1   7
ATOM      3  C   UNL     1      47.828  11.876  10.112  0.00  0.00    +0.000 A 
ATOM      4  C   UNL     1      46.450  12.121  10.151  0.00  0.00    +0.000 A 
ATOM      5  C   UNL     1      45.631  11.345  10.972  0.00  0.00    +0.000 A 
ATOM      6  C   UNL     1      46.221  10.437  11.863  0.00  0.00    +0.000 A 
ATOM      7  C   UNL     1      47.610  10.234  11.892  0.00  0.00    +0.000 A 
ATOM      8  C   UNL     1      48.398  10.945  10.979  0.00  0.00    +0.000 A 
BRANCH   3  10
ATOM      9  C   UNL     1      48.392  12.454   7.901  0.00  0.00    +0.000 C 
ATOM     10  O   UNL     1      48.716  12.511   9.285  0.00  0.00    +0.000 OA
ENDBRANCH   3  10
BRANCH   5  11
ATOM     11  O   UNL     1      44.257  11.382  11.003  0.00  0.00    +0.000 OA
BRANCH  11  12
ATOM     12  C   UNL     1      43.537  10.544  10.088  0.00  0.00    +0.000 C 
ATOM     13  C   UNL     1      42.271  11.264   9.623  0.00  0.00    +0.000 C 
ATOM     14  C   UNL     1      41.207  10.849  10.622  0.00  0.00    +0.000 C 
ATOM     15  N   UNL     1      41.523   9.467  10.977  0.00  0.00    +0.000 NA
ATOM     16  C   UNL     1      42.964   9.271  10.732  0.00  0.00    +0.000 C 
ATOM     17  H   UNL     1      40.992   8.827  10.387  0.00  0.00    +0.000 HD
ENDBRANCH  11  12
ENDBRANCH   5  11
ENDBRANCH   1   7
BRANCH   1  18
ATOM     18  C   UNL     1      47.158   8.593  13.753  0.00  0.00    +0.000 C 
BRANCH  18  19
ATOM     19  N   UNL     1      47.299   7.139  13.742  0.00  0.00    +0.000 N 
ATOM     20  H   UNL     1      48.252   6.807  13.861  0.00  0.00    +0.000 HD
BRANCH  19  21
ATOM     21  C   UNL     1      46.579   6.355  12.843  0.00  0.00    +0.000 A 
ATOM     22  C   UNL     1      46.321   6.718  11.516  0.00  0.00    +0.000 A 
ATOM     23  C   UNL     1      45.544   5.904  10.685  0.00  0.00    +0.000 A 
ATOM     24  C   UNL     1      44.987   4.719  11.175  0.00  0.00    +0.000 A 
ATOM     25  C   UNL     1      45.190   4.369  12.509  0.00  0.00    +0.000 A 
ATOM     26  C   UNL     1      45.972   5.188  13.330  0.00  0.00    +0.000 A 
BRANCH  24  27
ATOM     27  C   UNL     1      44.158   3.896  10.255  0.00  0.00    +0.000 C 
ATOM     28  N   UNL     1      44.047   4.318   8.958  0.00  0.00    +0.000 N 
ATOM     29  O   UNL     1      43.564   2.903  10.642  0.00  0.00    +0.000 OA
ATOM     30  H   UNL     1      44.365   5.220   8.634  0.00  0.00    +0.000 HD
ATOM     31  H   UNL     1      43.414   3.795   8.368  0.00  0.00    +0.000 HD
ENDBRANCH  24  27
ENDBRANCH  19  21
ENDBRANCH  18  19
ENDBRANCH   1  18
TORSDOF 8
ENDMDL
MODEL 9
REMARK VINA RESULT:    -5.837      3.952      6.233
REMARK INTER + INTRA:          -9.680
REMARK INTER:                  -8.180
REMARK INTRA:                  -1.500
REMARK UNBOUND:                -1.113
REMARK  Name = 
REMARK  10 active torsions:
REMARK  status: ('A' for Active; 'I' for Inactive)
REMARK    1  A    between atoms: C_1  and  O_2
REMARK    2  A    between atoms: O_2  and  C_3
REMARK    3  A    between atoms: C_5  and  O_6
REMARK    4  A    between atoms: O_6  and  C_7
REMARK    5  A    between atoms: C_13  and  C_14
REMARK    6  A    between atoms: C_14  and  C_15
REMARK    7  A    between atoms: C_14  and  C_16
REMARK    8  A    between atoms: C_16  and  N_17
REMARK    9  A    between atoms: N_17  and  C_18
REMARK   10  A    between atoms: C_21  and  C_22
REMARK                            x       y       z     vdW  Elec       q    Type
REMARK                         _______ _______ _______ _____ _____    ______ ____
ROOT
ATOM      1  C   UNL     1      48.816   8.500  14.391  0.00  0.00    +0.000 C 
ATOM      2  C   UNL     1      48.854   9.986  14.777  0.00  0.00    +0.000 C 
ENDROOT
BRANCH   1   7
ATOM      3  C   UNL     1      51.951   6.923  15.921  0.00  0.00    +0.000 A 
ATOM      4  C   UNL     1      51.403   6.037  16.855  0.00  0.00    +0.000 A 
ATOM      5  C   UNL     1      50.029   6.047  17.096  0.00  0.00    +0.000 A 
ATOM      6  C   UNL     1      49.199   6.836  16.287  0.00  0.00    +0.000 A 
ATOM      7  C   UNL     1      49.726   7.674  15.293  0.00  0.00    +0.000 A 
ATOM      8  C   UNL     1      51.117   7.729  15.146  0.00  0.00    +0.000 A 
BRANCH   3  10
ATOM      9  C   UNL     1      54.132   6.149  16.350  0.00  0.00    +0.000 C 
ATOM     10  O   UNL     1      53.289   7.065  15.662  0.00  0.00    +0.000 OA
ENDBRANCH   3  10
BRANCH   5  11
ATOM     11  O   UNL     1      49.379   5.336  18.079  0.00  0.00    +0.000 OA
BRANCH  11  12
ATOM     12  C   UNL     1      49.327   3.908  17.957  0.00  0.00    +0.000 C 
ATOM     13  C   UNL     1      48.767   3.532  16.585  0.00  0.00    +0.000 C 
ATOM     14  C   UNL     1      47.269   3.430  16.798  0.00  0.00    +0.000 C 
ATOM     15  N   UNL     1      47.101   2.898  18.149  0.00  0.00    +0.000 NA
ATOM     16  C   UNL     1      48.318   3.242  18.908  0.00  0.00    +0.000 C 
ATOM     17  H   UNL     1      47.004   1.883  18.112  0.00  0.00    +0.000 HD
ENDBRANCH  11  12
ENDBRANCH   5  11
ENDBRANCH   1   7
BRANCH   1  18
ATOM     18  C   UNL     1      49.185   8.276  12.904  0.00  0.00    +0.000 C 
BRANCH  18  19
ATOM     19  N   UNL     1      48.900   6.906  12.484  0.00  0.00    +0.000 N 
ATOM     20  H   UNL     1      49.311   6.644  11.592  0.00  0.00    +0.000 HD
BRANCH  19  21
ATOM     21  C   UNL     1      47.636   6.348  12.663  0.00  0.00    +0.000 A 
ATOM     22  C   UNL     1      47.361   5.288  13.535  0.00  0.00    +0.000 A 
ATOM     23  C   UNL     1      46.075   4.744  13.623  0.00  0.00    +0.000 A 
ATOM     24  C   UNL     1      45.041   5.235  12.821  0.00  0.00    +0.000 A 
ATOM     25  C   UNL     1      45.310   6.256  11.909  0.00  0.00    +0.000 A 
ATOM     26  C   UNL     1      46.598   6.795  11.832  0.00  0.00    +0.000 A 
BRANCH  24  27
ATOM     27  C   UNL     1      43.696   4.614  12.943  0.00  0.00    +0.000 C 
ATOM     28  N   UNL     1      42.615   5.453  12.962  0.00  0.00    +0.000 N 
ATOM     29  O   UNL     1      43.554   3.409  13.063  0.00  0.00    +0.000 OA
ATOM     30  H   UNL     1      42.686   6.455  13.048  0.00  0.00    +0.000 HD
ATOM     31  H   UNL     1      41.715   5.022  13.129  0.00  0.00    +0.000 HD
ENDBRANCH  24  27
ENDBRANCH  19  21
ENDBRANCH  18  19
ENDBRANCH   1  18
TORSDOF 8
ENDMDL
