MODEL 1
REMARK VINA RESULT:    -6.504      0.000      0.000
REMARK INTER + INTRA:         -10.487
REMARK INTER:                  -9.166
REMARK INTRA:                  -1.321
REMARK UNBOUND:                -1.321
REMARK  Name = 
REMARK  9 active torsions:
REMARK  status: ('A' for Active; 'I' for Inactive)
REMARK    1  A    between atoms: C_1  and  S_2
REMARK    2  A    between atoms: S_2  and  C_3
REMARK    3  A    between atoms: C_5  and  C_6
REMARK    4  A    between atoms: C_11  and  C_12
REMARK    5  A    between atoms: C_12  and  C_13
REMARK    6  A    between atoms: C_13  and  O_14
REMARK    7  A    between atoms: O_14  and  C_15
REMARK    8  A    between atoms: C_19  and  C_20
REMARK    9  A    between atoms: C_25  and  C_26
REMARK                            x       y       z     vdW  Elec       q    Type
REMARK                         _______ _______ _______ _____ _____    ______ ____
ROOT
ATOM      1  C   UNL     1      49.547   7.440  13.135  0.00  0.00    +0.000 C 
ENDROOT
BRANCH   1   2
ATOM      2  C   UNL     1      49.453   7.864  14.596  0.00  0.00    +0.000 C 
BRANCH   2   8
ATOM      3  C   UNL     1      49.352   6.554  16.810  0.00  0.00    +0.000 A 
ATOM      4  C   UNL     1      48.860   5.457  17.537  0.00  0.00    +0.000 A 
ATOM      5  C   UNL     1      47.948   4.556  16.969  0.00  0.00    +0.000 A 
ATOM      6  C   UNL     1      47.495   4.785  15.669  0.00  0.00    +0.000 A 
ATOM      7  C   UNL     1      47.988   5.867  14.934  0.00  0.00    +0.000 A 
ATOM      8  C   UNL     1      48.943   6.744  15.478  0.00  0.00    +0.000 A 
BRANCH   5   9
ATOM      9  C   UNL     1      47.523   3.385  17.794  0.00  0.00    +0.000 C 
ATOM     10  N   UNL     1      48.267   3.051  18.889  0.00  0.00    +0.000 N 
ATOM     11  O   UNL     1      46.527   2.737  17.513  0.00  0.00    +0.000 OA
ATOM     12  H   UNL     1      49.087   3.536  19.216  0.00  0.00    +0.000 HD
ATOM     13  H   UNL     1      47.931   2.270  19.441  0.00  0.00    +0.000 HD
ENDBRANCH   5   9
BRANCH   3  15
ATOM     14  C   UNL     1      49.996   7.265  19.374  0.00  0.00    +0.000 C 
ATOM     15  S   UNL     1      50.442   7.684  17.670  0.00  0.00    +0.000 S 
ENDBRANCH   3  15
ENDBRANCH   2   8
ENDBRANCH   1   2
BRANCH   1  16
ATOM     16  O   UNL     1      48.820   8.370  12.325  0.00  0.00    +0.000 OA
BRANCH  16  17
ATOM     17  C   UNL     1      47.525   8.020  12.056  0.00  0.00    +0.000 A 
ATOM     18  C   UNL     1      46.533   8.902  12.450  0.00  0.00    +0.000 A 
ATOM     19  N   UNL     1      45.211   8.668  12.293  0.00  0.00    +0.000 NA
ATOM     20  C   UNL     1      44.866   7.479  11.733  0.00  0.00    +0.000 A 
ATOM     21  C   UNL     1      45.759   6.511  11.272  0.00  0.00    +0.000 A 
ATOM     22  C   UNL     1      47.119   6.828  11.454  0.00  0.00    +0.000 A 
BRANCH  21  23
ATOM     23  C   UNL     1      45.353   5.198  10.693  0.00  0.00    +0.000 A 
ATOM     24  C   UNL     1      45.466   5.016   9.292  0.00  0.00    +0.000 A 
ATOM     25  C   UNL     1      45.095   3.830   8.653  0.00  0.00    +0.000 A 
ATOM     26  C   UNL     1      44.632   2.765   9.404  0.00  0.00    +0.000 A 
ATOM     27  C   UNL     1      44.510   2.900  10.784  0.00  0.00    +0.000 A 
ATOM     28  C   UNL     1      44.831   4.110  11.440  0.00  0.00    +0.000 A 
ATOM     29  C   UNL     1      44.557   4.168  12.920  0.00  0.00    +0.000 C 
ENDBRANCH  21  23
ENDBRANCH  16  17
ENDBRANCH   1  16
TORSDOF 7
ENDMDL
MODEL 2
REMARK VINA RESULT:    -6.410      1.784      2.618
REMARK INTER + INTRA:         -10.353
REMARK INTER:                  -9.878
REMARK INTRA:                  -0.475
REMARK UNBOUND:                -1.321
REMARK  Name = 
REMARK  9 active torsions:
REMARK  status: ('A' for Active; 'I' for Inactive)
REMARK    1  A    between atoms: C_1  and  S_2
REMARK    2  A    between atoms: S_2  and  C_3
REMARK    3  A    between atoms: C_5  and  C_6
REMARK    4  A    between atoms: C_11  and  C_12
REMARK    5  A    between atoms: C_12  and  C_13
REMARK    6  A    between atoms: C_13  and  O_14
REMARK    7  A    between atoms: O_14  and  C_15
REMARK    8  A    between atoms: C_19  and  C_20
REMARK    9  A    between atoms: C_25  and  C_26
REMARK                            x       y       z     vdW  Elec       q    Type
REMARK                         _______ _______ _______ _____ _____    ______ ____
ROOT
ATOM      1  C   UNL     1      47.460   7.211  11.955  0.00  0.00    +0.000 C 
ENDROOT
BRANCH   1   2
ATOM      2  C   UNL     1      47.962   7.674  13.318  0.00  0.00    +0.000 C 
BRANCH   2   8
ATOM      3  C   UNL     1      48.592   6.602  15.572  0.00  0.00    +0.000 A 
ATOM      4  C   UNL     1      48.511   5.505  16.447  0.00  0.00    +0.000 A 
ATOM      5  C   UNL     1      47.732   4.381  16.137  0.00  0.00    +0.000 A 
ATOM      6  C   UNL     1      46.995   4.378  14.952  0.00  0.00    +0.000 A 
ATOM      7  C   UNL     1      47.078   5.460  14.070  0.00  0.00    +0.000 A 
ATOM      8  C   UNL     1      47.899   6.568  14.349  0.00  0.00    +0.000 A 
BRANCH   5   9
ATOM      9  C   UNL     1      47.751   3.238  17.097  0.00  0.00    +0.000 C 
ATOM     10  N   UNL     1      48.956   2.715  17.471  0.00  0.00    +0.000 N 
ATOM     11  O   UNL     1      46.718   2.775  17.555  0.00  0.00    +0.000 OA
ATOM     12  H   UNL     1      49.859   3.041  17.169  0.00  0.00    +0.000 HD
ATOM     13  H   UNL     1      48.929   1.960  18.147  0.00  0.00    +0.000 HD
ENDBRANCH   5   9
BRANCH   3  15
ATOM     14  C   UNL     1      48.221   8.962  16.910  0.00  0.00    +0.000 C 
ATOM     15  S   UNL     1      49.546   8.016  16.118  0.00  0.00    +0.000 S 
ENDBRANCH   3  15
ENDBRANCH   2   8
ENDBRANCH   1   2
BRANCH   1  16
ATOM     16  O   UNL     1      46.054   7.461  11.860  0.00  0.00    +0.000 OA
BRANCH  16  17
ATOM     17  C   UNL     1      45.344   6.536  11.144  0.00  0.00    +0.000 A 
ATOM     18  C   UNL     1      43.992   6.421  11.418  0.00  0.00    +0.000 A 
ATOM     19  N   UNL     1      43.177   5.520  10.826  0.00  0.00    +0.000 NA
ATOM     20  C   UNL     1      43.753   4.676   9.929  0.00  0.00    +0.000 A 
ATOM     21  C   UNL     1      45.093   4.697   9.543  0.00  0.00    +0.000 A 
ATOM     22  C   UNL     1      45.880   5.670  10.189  0.00  0.00    +0.000 A 
BRANCH  21  23
ATOM     23  C   UNL     1      45.707   3.736   8.582  0.00  0.00    +0.000 A 
ATOM     24  C   UNL     1      46.544   4.249   7.558  0.00  0.00    +0.000 A 
ATOM     25  C   UNL     1      47.151   3.434   6.600  0.00  0.00    +0.000 A 
ATOM     26  C   UNL     1      46.972   2.063   6.657  0.00  0.00    +0.000 A 
ATOM     27  C   UNL     1      46.161   1.517   7.648  0.00  0.00    +0.000 A 
ATOM     28  C   UNL     1      45.498   2.332   8.593  0.00  0.00    +0.000 A 
ATOM     29  C   UNL     1      44.567   1.635   9.549  0.00  0.00    +0.000 C 
ENDBRANCH  21  23
ENDBRANCH  16  17
ENDBRANCH   1  16
TORSDOF 7
ENDMDL
MODEL 3
REMARK VINA RESULT:    -6.257      2.588      2.986
REMARK INTER + INTRA:         -10.139
REMARK INTER:                  -9.386
REMARK INTRA:                  -0.753
REMARK UNBOUND:                -1.321
REMARK  Name = 
REMARK  9 active torsions:
REMARK  status: ('A' for Active; 'I' for Inactive)
REMARK    1  A    between atoms: C_1  and  S_2
REMARK    2  A    between atoms: S_2  and  C_3
REMARK    3  A    between atoms: C_5  and  C_6
REMARK    4  A    between atoms: C_11  and  C_12
REMARK    5  A    between atoms: C_12  and  C_13
REMARK    6  A    between atoms: C_13  and  O_14
REMARK    7  A    between atoms: O_14  and  C_15
REMARK    8  A    between atoms: C_19  and  C_20
REMARK    9  A    between atoms: C_25  and  C_26
REMARK                            x       y       z     vdW  Elec       q    Type
REMARK                         _______ _______ _______ _____ _____    ______ ____
ROOT
ATOM      1  C   UNL     1      49.621   7.326  15.436  0.00  0.00    +0.000 C 
ENDROOT
BRANCH   1   2
ATOM      2  C   UNL     1      49.454   6.884  16.885  0.00  0.00    +0.000 C 
BRANCH   2   8
ATOM      3  C   UNL     1      49.366   4.341  17.276  0.00  0.00    +0.000 A 
ATOM      4  C   UNL     1      50.044   3.144  17.562  0.00  0.00    +0.000 A 
ATOM      5  C   UNL     1      51.439   3.110  17.697  0.00  0.00    +0.000 A 
ATOM      6  C   UNL     1      52.164   4.287  17.500  0.00  0.00    +0.000 A 
ATOM      7  C   UNL     1      51.497   5.485  17.226  0.00  0.00    +0.000 A 
ATOM      8  C   UNL     1      50.094   5.537  17.143  0.00  0.00    +0.000 A 
BRANCH   5   9
ATOM      9  C   UNL     1      52.070   1.806  18.060  0.00  0.00    +0.000 C 
ATOM     10  N   UNL     1      51.425   0.650  17.724  0.00  0.00    +0.000 N 
ATOM     11  O   UNL     1      53.146   1.759  18.636  0.00  0.00    +0.000 OA
ATOM     12  H   UNL     1      50.551   0.585  17.229  0.00  0.00    +0.000 HD
ATOM     13  H   UNL     1      51.899  -0.214  17.960  0.00  0.00    +0.000 HD
ENDBRANCH   5   9
BRANCH   3  15
ATOM     14  C   UNL     1      47.060   5.145  18.515  0.00  0.00    +0.000 C 
ATOM     15  S   UNL     1      47.594   4.242  17.039  0.00  0.00    +0.000 S 
ENDBRANCH   3  15
ENDBRANCH   2   8
ENDBRANCH   1   2
BRANCH   1  16
ATOM     16  O   UNL     1      49.074   6.325  14.571  0.00  0.00    +0.000 OA
BRANCH  16  17
ATOM     17  C   UNL     1      48.033   6.739  13.785  0.00  0.00    +0.000 A 
ATOM     18  C   UNL     1      47.602   8.046  13.936  0.00  0.00    +0.000 A 
ATOM     19  N   UNL     1      46.557   8.578  13.264  0.00  0.00    +0.000 NA
ATOM     20  C   UNL     1      45.895   7.749  12.414  0.00  0.00    +0.000 A 
ATOM     21  C   UNL     1      46.234   6.421  12.151  0.00  0.00    +0.000 A 
ATOM     22  C   UNL     1      47.341   5.939  12.874  0.00  0.00    +0.000 A 
BRANCH  21  23
ATOM     23  C   UNL     1      45.468   5.523  11.239  0.00  0.00    +0.000 A 
ATOM     24  C   UNL     1      45.880   5.427   9.885  0.00  0.00    +0.000 A 
ATOM     25  C   UNL     1      45.219   4.627   8.951  0.00  0.00    +0.000 A 
ATOM     26  C   UNL     1      44.139   3.860   9.350  0.00  0.00    +0.000 A 
ATOM     27  C   UNL     1      43.705   3.921  10.670  0.00  0.00    +0.000 A 
ATOM     28  C   UNL     1      44.329   4.765  11.616  0.00  0.00    +0.000 A 
ATOM     29  C   UNL     1      43.704   4.823  12.985  0.00  0.00    +0.000 C 
ENDBRANCH  21  23
ENDBRANCH  16  17
ENDBRANCH   1  16
TORSDOF 7
ENDMDL
MODEL 4
REMARK VINA RESULT:    -6.206      2.991      7.905
REMARK INTER + INTRA:         -10.066
REMARK INTER:                  -9.215
REMARK INTRA:                  -0.851
REMARK UNBOUND:                -1.321
REMARK  Name = 
REMARK  9 active torsions:
REMARK  status: ('A' for Active; 'I' for Inactive)
REMARK    1  A    between atoms: C_1  and  S_2
REMARK    2  A    between atoms: S_2  and  C_3
REMARK    3  A    between atoms: C_5  and  C_6
REMARK    4  A    between atoms: C_11  and  C_12
REMARK    5  A    between atoms: C_12  and  C_13
REMARK    6  A    between atoms: C_13  and  O_14
REMARK    7  A    between atoms: O_14  and  C_15
REMARK    8  A    between atoms: C_19  and  C_20
REMARK    9  A    between atoms: C_25  and  C_26
REMARK                            x       y       z     vdW  Elec       q    Type
REMARK                         _______ _______ _______ _____ _____    ______ ____
ROOT
ATOM      1  C   UNL     1      49.142   7.234  14.810  0.00  0.00    +0.000 C 
ENDROOT
BRANCH   1   2
ATOM      2  C   UNL     1      48.851   6.867  13.359  0.00  0.00    +0.000 C 
BRANCH   2   8
ATOM      3  C   UNL     1      46.426   7.489  12.760  0.00  0.00    +0.000 A 
ATOM      4  C   UNL     1      45.082   7.101  12.627  0.00  0.00    +0.000 A 
ATOM      5  C   UNL     1      44.682   5.775  12.845  0.00  0.00    +0.000 A 
ATOM      6  C   UNL     1      45.651   4.821  13.160  0.00  0.00    +0.000 A 
ATOM      7  C   UNL     1      46.989   5.201  13.305  0.00  0.00    +0.000 A 
ATOM      8  C   UNL     1      47.390   6.539  13.141  0.00  0.00    +0.000 A 
BRANCH   5   9
ATOM      9  C   UNL     1      43.225   5.464  12.739  0.00  0.00    +0.000 C 
ATOM     10  N   UNL     1      42.457   6.204  11.886  0.00  0.00    +0.000 N 
ATOM     11  O   UNL     1      42.718   4.563  13.390  0.00  0.00    +0.000 OA
ATOM     12  H   UNL     1      42.785   6.948  11.291  0.00  0.00    +0.000 HD
ATOM     13  H   UNL     1      41.480   5.944  11.819  0.00  0.00    +0.000 HD
ENDBRANCH   5   9
BRANCH   3  15
ATOM     14  C   UNL     1      45.155   9.825  12.106  0.00  0.00    +0.000 C 
ATOM     15  S   UNL     1      46.830   9.189  12.369  0.00  0.00    +0.000 S 
ENDBRANCH   3  15
ENDBRANCH   2   8
ENDBRANCH   1   2
BRANCH   1  16
ATOM     16  O   UNL     1      49.403   6.040  15.556  0.00  0.00    +0.000 OA
BRANCH  16  17
ATOM     17  C   UNL     1      48.625   5.864  16.668  0.00  0.00    +0.000 A 
ATOM     18  C   UNL     1      47.900   4.688  16.757  0.00  0.00    +0.000 A 
ATOM     19  N   UNL     1      47.054   4.400  17.771  0.00  0.00    +0.000 NA
ATOM     20  C   UNL     1      46.911   5.349  18.733  0.00  0.00    +0.000 A 
ATOM     21  C   UNL     1      47.594   6.565  18.779  0.00  0.00    +0.000 A 
ATOM     22  C   UNL     1      48.469   6.792  17.699  0.00  0.00    +0.000 A 
BRANCH  21  23
ATOM     23  C   UNL     1      47.393   7.605  19.828  0.00  0.00    +0.000 A 
ATOM     24  C   UNL     1      47.108   8.932  19.415  0.00  0.00    +0.000 A 
ATOM     25  C   UNL     1      46.921   9.979  20.320  0.00  0.00    +0.000 A 
ATOM     26  C   UNL     1      46.973   9.726  21.680  0.00  0.00    +0.000 A 
ATOM     27  C   UNL     1      47.246   8.437  22.127  0.00  0.00    +0.000 A 
ATOM     28  C   UNL     1      47.490   7.377  21.225  0.00  0.00    +0.000 A 
ATOM     29  C   UNL     1      47.877   6.053  21.830  0.00  0.00    +0.000 C 
ENDBRANCH  21  23
ENDBRANCH  16  17
ENDBRANCH   1  16
TORSDOF 7
ENDMDL
MODEL 5
REMARK VINA RESULT:    -6.187      2.922      4.943
REMARK INTER + INTRA:         -10.039
REMARK INTER:                  -9.299
REMARK INTRA:                  -0.740
REMARK UNBOUND:                -1.321
REMARK  Name = 
REMARK  9 active torsions:
REMARK  status: ('A' for Active; 'I' for Inactive)
REMARK    1  A    between atoms: C_1  and  S_2
REMARK    2  A    between atoms: S_2  and  C_3
REMARK    3  A    between atoms: C_5  and  C_6
REMARK    4  A    between atoms: C_11  and  C_12
REMARK    5  A    between atoms: C_12  and  C_13
REMARK    6  A    between atoms: C_13  and  O_14
REMARK    7  A    between atoms: O_14  and  C_15
REMARK    8  A    between atoms: C_19  and  C_20
REMARK    9  A    between atoms: C_25  and  C_26
REMARK                            x       y       z     vdW  Elec       q    Type
REMARK                         _______ _______ _______ _____ _____    ______ ____
ROOT
ATOM      1  C   UNL     1      47.321   4.464  15.645  0.00  0.00    +0.000 C 
ENDROOT
BRANCH   1   2
ATOM      2  C   UNL     1      47.377   3.505  16.829  0.00  0.00    +0.000 C 
BRANCH   2   8
ATOM      3  C   UNL     1      49.547   3.972  18.134  0.00  0.00    +0.000 A 
ATOM      4  C   UNL     1      50.880   3.628  18.414  0.00  0.00    +0.000 A 
ATOM      5  C   UNL     1      51.481   2.504  17.830  0.00  0.00    +0.000 A 
ATOM      6  C   UNL     1      50.718   1.694  16.987  0.00  0.00    +0.000 A 
ATOM      7  C   UNL     1      49.394   2.035  16.694  0.00  0.00    +0.000 A 
ATOM      8  C   UNL     1      48.801   3.190  17.234  0.00  0.00    +0.000 A 
BRANCH   5   9
ATOM      9  C   UNL     1      52.919   2.247  18.138  0.00  0.00    +0.000 C 
ATOM     10  N   UNL     1      53.399   2.596  19.368  0.00  0.00    +0.000 N 
ATOM     11  O   UNL     1      53.662   1.727  17.320  0.00  0.00    +0.000 OA
ATOM     12  H   UNL     1      52.862   3.006  20.116  0.00  0.00    +0.000 HD
ATOM     13  H   UNL     1      54.371   2.378  19.551  0.00  0.00    +0.000 HD
ENDBRANCH   5   9
BRANCH   3  15
ATOM     14  C   UNL     1      48.789   4.666  20.672  0.00  0.00    +0.000 C 
ATOM     15  S   UNL     1      48.863   5.377  19.009  0.00  0.00    +0.000 S 
ENDBRANCH   3  15
ENDBRANCH   2   8
ENDBRANCH   1   2
BRANCH   1  16
ATOM     16  O   UNL     1      46.522   3.886  14.607  0.00  0.00    +0.000 OA
BRANCH  16  17
ATOM     17  C   UNL     1      46.293   4.695  13.528  0.00  0.00    +0.000 A 
ATOM     18  C   UNL     1      45.462   4.208  12.533  0.00  0.00    +0.000 A 
ATOM     19  N   UNL     1      45.184   4.874  11.390  0.00  0.00    +0.000 NA
ATOM     20  C   UNL     1      45.788   6.080  11.227  0.00  0.00    +0.000 A 
ATOM     21  C   UNL     1      46.628   6.698  12.154  0.00  0.00    +0.000 A 
ATOM     22  C   UNL     1      46.861   5.954  13.327  0.00  0.00    +0.000 A 
BRANCH  21  23
ATOM     23  C   UNL     1      47.307   8.007  11.935  0.00  0.00    +0.000 A 
ATOM     24  C   UNL     1      48.693   8.006  11.637  0.00  0.00    +0.000 A 
ATOM     25  C   UNL     1      49.422   9.180  11.432  0.00  0.00    +0.000 A 
ATOM     26  C   UNL     1      48.776  10.402  11.480  0.00  0.00    +0.000 A 
ATOM     27  C   UNL     1      47.415  10.449  11.766  0.00  0.00    +0.000 A 
ATOM     28  C   UNL     1      46.673   9.274  12.027  0.00  0.00    +0.000 A 
ATOM     29  C   UNL     1      45.233   9.460  12.427  0.00  0.00    +0.000 C 
ENDBRANCH  21  23
ENDBRANCH  16  17
ENDBRANCH   1  16
TORSDOF 7
ENDMDL
MODEL 6
REMARK VINA RESULT:    -6.183      3.011      6.719
REMARK INTER + INTRA:         -10.034
REMARK INTER:                  -8.569
REMARK INTRA:                  -1.465
REMARK UNBOUND:                -1.321
REMARK  Name = 
REMARK  9 active torsions:
REMARK  status: ('A' for Active; 'I' for Inactive)
REMARK    1  A    between atoms: C_1  and  S_2
REMARK    2  A    between atoms: S_2  and  C_3
REMARK    3  A    between atoms: C_5  and  C_6
REMARK    4  A    between atoms: C_11  and  C_12
REMARK    5  A    between atoms: C_12  and  C_13
REMARK    6  A    between atoms: C_13  and  O_14
REMARK    7  A    between atoms: O_14  and  C_15
REMARK    8  A    between atoms: C_19  and  C_20
REMARK    9  A    between atoms: C_25  and  C_26
REMARK                            x       y       z     vdW  Elec       q    Type
REMARK                         _______ _______ _______ _____ _____    ______ ____
ROOT
ATOM      1  C   UNL     1      48.145   9.187  14.811  0.00  0.00    +0.000 C 
ENDROOT
BRANCH   1   2
ATOM      2  C   UNL     1      48.290   8.518  13.449  0.00  0.00    +0.000 C 
BRANCH   2   8
ATOM      3  C   UNL     1      45.936   7.656  12.865  0.00  0.00    +0.000 A 
ATOM      4  C   UNL     1      45.045   6.575  12.747  0.00  0.00    +0.000 A 
ATOM      5  C   UNL     1      45.463   5.258  12.981  0.00  0.00    +0.000 A 
ATOM      6  C   UNL     1      46.802   5.021  13.297  0.00  0.00    +0.000 A 
ATOM      7  C   UNL     1      47.692   6.091  13.427  0.00  0.00    +0.000 A 
ATOM      8  C   UNL     1      47.269   7.420  13.247  0.00  0.00    +0.000 A 
BRANCH   5   9
ATOM      9  C   UNL     1      44.435   4.178  12.890  0.00  0.00    +0.000 C 
ATOM     10  N   UNL     1      44.829   2.930  12.498  0.00  0.00    +0.000 N 
ATOM     11  O   UNL     1      43.265   4.388  13.168  0.00  0.00    +0.000 OA
ATOM     12  H   UNL     1      45.770   2.652  12.272  0.00  0.00    +0.000 HD
ATOM     13  H   UNL     1      44.109   2.217  12.477  0.00  0.00    +0.000 HD
ENDBRANCH   5   9
BRANCH   3  15
ATOM     14  C   UNL     1      44.230   8.830  11.072  0.00  0.00    +0.000 C 
ATOM     15  S   UNL     1      45.309   9.282  12.454  0.00  0.00    +0.000 S 
ENDBRANCH   3  15
ENDBRANCH   2   8
ENDBRANCH   1   2
BRANCH   1  16
ATOM     16  O   UNL     1      49.291   8.881  15.612  0.00  0.00    +0.000 OA
BRANCH  16  17
ATOM     17  C   UNL     1      49.097   7.919  16.566  0.00  0.00    +0.000 A 
ATOM     18  C   UNL     1      48.439   8.295  17.724  0.00  0.00    +0.000 A 
ATOM     19  N   UNL     1      48.220   7.466  18.769  0.00  0.00    +0.000 NA
ATOM     20  C   UNL     1      48.706   6.202  18.655  0.00  0.00    +0.000 A 
ATOM     21  C   UNL     1      49.366   5.685  17.540  0.00  0.00    +0.000 A 
ATOM     22  C   UNL     1      49.546   6.599  16.484  0.00  0.00    +0.000 A 
BRANCH  21  23
ATOM     23  C   UNL     1      49.921   4.304  17.455  0.00  0.00    +0.000 A 
ATOM     24  C   UNL     1      51.272   4.096  17.833  0.00  0.00    +0.000 A 
ATOM     25  C   UNL     1      51.887   2.844  17.772  0.00  0.00    +0.000 A 
ATOM     26  C   UNL     1      51.157   1.741  17.365  0.00  0.00    +0.000 A 
ATOM     27  C   UNL     1      49.827   1.901  16.989  0.00  0.00    +0.000 A 
ATOM     28  C   UNL     1      49.203   3.169  16.994  0.00  0.00    +0.000 A 
ATOM     29  C   UNL     1      47.794   3.231  16.467  0.00  0.00    +0.000 C 
ENDBRANCH  21  23
ENDBRANCH  16  17
ENDBRANCH   1  16
TORSDOF 7
ENDMDL
MODEL 7
REMARK VINA RESULT:    -5.696      2.743      5.023
REMARK INTER + INTRA:          -9.347
REMARK INTER:                  -7.992
REMARK INTRA:                  -1.355
REMARK UNBOUND:                -1.321
REMARK  Name = 
REMARK  9 active torsions:
REMARK  status: ('A' for Active; 'I' for Inactive)
REMARK    1  A    between atoms: C_1  and  S_2
REMARK    2  A    between atoms: S_2  and  C_3
REMARK    3  A    between atoms: C_5  and  C_6
REMARK    4  A    between atoms: C_11  and  C_12
REMARK    5  A    between atoms: C_12  and  C_13
REMARK    6  A    between atoms: C_13  and  O_14
REMARK    7  A    between atoms: O_14  and  C_15
REMARK    8  A    between atoms: C_19  and  C_20
REMARK    9  A    between atoms: C_25  and  C_26
REMARK                            x       y       z     vdW  Elec       q    Type
REMARK                         _______ _______ _______ _____ _____    ______ ____
ROOT
ATOM      1  C   UNL     1      47.204   3.939  16.169  0.00  0.00    +0.000 C 
ENDROOT
BRANCH   1   2
ATOM      2  C   UNL     1      48.538   4.436  16.715  0.00  0.00    +0.000 C 
BRANCH   2   8
ATOM      3  C   UNL     1      48.241   6.605  18.070  0.00  0.00    +0.000 A 
ATOM      4  C   UNL     1      48.241   8.010  18.106  0.00  0.00    +0.000 A 
ATOM      5  C   UNL     1      48.575   8.769  16.976  0.00  0.00    +0.000 A 
ATOM      6  C   UNL     1      48.952   8.106  15.807  0.00  0.00    +0.000 A 
ATOM      7  C   UNL     1      48.944   6.709  15.757  0.00  0.00    +0.000 A 
ATOM      8  C   UNL     1      48.559   5.941  16.871  0.00  0.00    +0.000 A 
BRANCH   5   9
ATOM      9  C   UNL     1      48.492  10.256  17.089  0.00  0.00    +0.000 C 
ATOM     10  N   UNL     1      48.612  11.007  15.954  0.00  0.00    +0.000 N 
ATOM     11  O   UNL     1      48.310  10.803  18.165  0.00  0.00    +0.000 OA
ATOM     12  H   UNL     1      48.739  10.650  15.021  0.00  0.00    +0.000 HD
ATOM     13  H   UNL     1      48.520  12.010  16.067  0.00  0.00    +0.000 HD
ENDBRANCH   5   9
BRANCH   3  15
ATOM     14  C   UNL     1      48.146   7.112  20.759  0.00  0.00    +0.000 C 
ATOM     15  S   UNL     1      47.885   5.746  19.599  0.00  0.00    +0.000 S 
ENDBRANCH   3  15
ENDBRANCH   2   8
ENDBRANCH   1   2
BRANCH   1  16
ATOM     16  O   UNL     1      47.397   3.429  14.845  0.00  0.00    +0.000 OA
BRANCH  16  17
ATOM     17  C   UNL     1      46.781   4.139  13.851  0.00  0.00    +0.000 A 
ATOM     18  C   UNL     1      46.018   3.428  12.940  0.00  0.00    +0.000 A 
ATOM     19  N   UNL     1      45.393   3.988  11.881  0.00  0.00    +0.000 NA
ATOM     20  C   UNL     1      45.559   5.327  11.714  0.00  0.00    +0.000 A 
ATOM     21  C   UNL     1      46.279   6.165  12.565  0.00  0.00    +0.000 A 
ATOM     22  C   UNL     1      46.891   5.517  13.655  0.00  0.00    +0.000 A 
BRANCH  21  23
ATOM     23  C   UNL     1      46.476   7.626  12.339  0.00  0.00    +0.000 A 
ATOM     24  C   UNL     1      45.333   8.467  12.337  0.00  0.00    +0.000 A 
ATOM     25  C   UNL     1      45.411   9.844  12.118  0.00  0.00    +0.000 A 
ATOM     26  C   UNL     1      46.647  10.438  11.930  0.00  0.00    +0.000 A 
ATOM     27  C   UNL     1      47.793   9.650  11.928  0.00  0.00    +0.000 A 
ATOM     28  C   UNL     1      47.728   8.248  12.097  0.00  0.00    +0.000 A 
ATOM     29  C   UNL     1      49.025   7.492  11.972  0.00  0.00    +0.000 C 
ENDBRANCH  21  23
ENDBRANCH  16  17
ENDBRANCH   1  16
TORSDOF 7
ENDMDL
MODEL 8
REMARK VINA RESULT:    -5.629      2.533      4.005
REMARK INTER + INTRA:          -9.253
REMARK INTER:                  -7.782
REMARK INTRA:                  -1.471
REMARK UNBOUND:                -1.321
REMARK  Name = 
REMARK  9 active torsions:
REMARK  status: ('A' for Active; 'I' for Inactive)
REMARK    1  A    between atoms: C_1  and  S_2
REMARK    2  A    between atoms: S_2  and  C_3
REMARK    3  A    between atoms: C_5  and  C_6
REMARK    4  A    between atoms: C_11  and  C_12
REMARK    5  A    between atoms: C_12  and  C_13
REMARK    6  A    between atoms: C_13  and  O_14
REMARK    7  A    between atoms: O_14  and  C_15
REMARK    8  A    between atoms: C_19  and  C_20
REMARK    9  A    between atoms: C_25  and  C_26
REMARK                            x       y       z     vdW  Elec       q    Type
REMARK                         _______ _______ _______ _____ _____    ______ ____
ROOT
ATOM      1  C   UNL     1      50.504   8.520  17.970  0.00  0.00    +0.000 C 
ENDROOT
BRANCH   1   2
ATOM      2  C   UNL     1      50.279   7.480  19.062  0.00  0.00    +0.000 C 
BRANCH   2   8
ATOM      3  C   UNL     1      49.089   5.272  18.482  0.00  0.00    +0.000 A 
ATOM      4  C   UNL     1      49.165   3.959  17.988  0.00  0.00    +0.000 A 
ATOM      5  C   UNL     1      50.367   3.434  17.493  0.00  0.00    +0.000 A 
ATOM      6  C   UNL     1      51.496   4.254  17.457  0.00  0.00    +0.000 A 
ATOM      7  C   UNL     1      51.433   5.558  17.957  0.00  0.00    +0.000 A 
ATOM      8  C   UNL     1      50.245   6.074  18.505  0.00  0.00    +0.000 A 
BRANCH   5   9
ATOM      9  C   UNL     1      50.370   2.010  17.042  0.00  0.00    +0.000 C 
ATOM     10  N   UNL     1      51.147   1.111  17.714  0.00  0.00    +0.000 N 
ATOM     11  O   UNL     1      49.688   1.641  16.098  0.00  0.00    +0.000 OA
ATOM     12  H   UNL     1      51.722   1.313  18.516  0.00  0.00    +0.000 HD
ATOM     13  H   UNL     1      51.099   0.150  17.398  0.00  0.00    +0.000 HD
ENDBRANCH   5   9
BRANCH   3  15
ATOM     14  C   UNL     1      47.703   5.739  20.796  0.00  0.00    +0.000 C 
ATOM     15  S   UNL     1      47.481   5.860  19.004  0.00  0.00    +0.000 S 
ENDBRANCH   3  15
ENDBRANCH   2   8
ENDBRANCH   1   2
BRANCH   1  16
ATOM     16  O   UNL     1      49.292   8.693  17.227  0.00  0.00    +0.000 OA
BRANCH  16  17
ATOM     17  C   UNL     1      49.295   8.152  15.971  0.00  0.00    +0.000 A 
ATOM     18  C   UNL     1      50.343   8.494  15.133  0.00  0.00    +0.000 A 
ATOM     19  N   UNL     1      50.451   8.075  13.852  0.00  0.00    +0.000 NA
ATOM     20  C   UNL     1      49.446   7.290  13.382  0.00  0.00    +0.000 A 
ATOM     21  C   UNL     1      48.347   6.853  14.121  0.00  0.00    +0.000 A 
ATOM     22  C   UNL     1      48.306   7.315  15.450  0.00  0.00    +0.000 A 
BRANCH  21  23
ATOM     23  C   UNL     1      47.239   6.021  13.569  0.00  0.00    +0.000 A 
ATOM     24  C   UNL     1      47.274   4.620  13.789  0.00  0.00    +0.000 A 
ATOM     25  C   UNL     1      46.293   3.755  13.299  0.00  0.00    +0.000 A 
ATOM     26  C   UNL     1      45.216   4.269  12.600  0.00  0.00    +0.000 A 
ATOM     27  C   UNL     1      45.140   5.638  12.364  0.00  0.00    +0.000 A 
ATOM     28  C   UNL     1      46.150   6.521  12.808  0.00  0.00    +0.000 A 
ATOM     29  C   UNL     1      46.010   7.965  12.403  0.00  0.00    +0.000 C 
ENDBRANCH  21  23
ENDBRANCH  16  17
ENDBRANCH   1  16
TORSDOF 7
ENDMDL
MODEL 9
REMARK VINA RESULT:    -5.570      1.955      2.619
REMARK INTER + INTRA:          -9.170
REMARK INTER:                  -8.283
REMARK INTRA:                  -0.888
REMARK UNBOUND:                -1.321
REMARK  Name = 
REMARK  9 active torsions:
REMARK  status: ('A' for Active; 'I' for Inactive)
REMARK    1  A    between atoms: C_1  and  S_2
REMARK    2  A    between atoms: S_2  and  C_3
REMARK    3  A    between atoms: C_5  and  C_6
REMARK    4  A    between atoms: C_11  and  C_12
REMARK    5  A    between atoms: C_12  and  C_13
REMARK    6  A    between atoms: C_13  and  O_14
REMARK    7  A    between atoms: O_14  and  C_15
REMARK    8  A    between atoms: C_19  and  C_20
REMARK    9  A    between atoms: C_25  and  C_26
REMARK                            x       y       z     vdW  Elec       q    Type
REMARK                         _______ _______ _______ _____ _____    ______ ____
ROOT
ATOM      1  C   UNL     1      48.756   8.474  15.340  0.00  0.00    +0.000 C 
ENDROOT
BRANCH   1   2
ATOM      2  C   UNL     1      48.733   8.053  16.805  0.00  0.00    +0.000 C 
BRANCH   2   8
ATOM      3  C   UNL     1      50.723   6.444  17.085  0.00  0.00    +0.000 A 
ATOM      4  C   UNL     1      51.195   5.128  17.227  0.00  0.00    +0.000 A 
ATOM      5  C   UNL     1      50.312   4.043  17.318  0.00  0.00    +0.000 A 
ATOM      6  C   UNL     1      48.938   4.288  17.307  0.00  0.00    +0.000 A 
ATOM      7  C   UNL     1      48.460   5.593  17.154  0.00  0.00    +0.000 A 
ATOM      8  C   UNL     1      49.339   6.681  17.008  0.00  0.00    +0.000 A 
BRANCH   5   9
ATOM      9  C   UNL     1      50.902   2.674  17.409  0.00  0.00    +0.000 C 
ATOM     10  N   UNL     1      50.237   1.633  16.824  0.00  0.00    +0.000 N 
ATOM     11  O   UNL     1      51.961   2.474  17.982  0.00  0.00    +0.000 OA
ATOM     12  H   UNL     1      49.374   1.700  16.310  0.00  0.00    +0.000 HD
ATOM     13  H   UNL     1      50.684   0.725  16.881  0.00  0.00    +0.000 HD
ENDBRANCH   5   9
BRANCH   3  15
ATOM     14  C   UNL     1      52.431   7.667  15.328  0.00  0.00    +0.000 C 
ATOM     15  S   UNL     1      51.943   7.754  17.070  0.00  0.00    +0.000 S 
ENDBRANCH   3  15
ENDBRANCH   2   8
ENDBRANCH   1   2
BRANCH   1  16
ATOM     16  O   UNL     1      48.574   7.320  14.514  0.00  0.00    +0.000 OA
BRANCH  16  17
ATOM     17  C   UNL     1      47.472   7.351  13.702  0.00  0.00    +0.000 A 
ATOM     18  C   UNL     1      46.916   8.589  13.432  0.00  0.00    +0.000 A 
ATOM     19  N   UNL     1      45.802   8.769  12.688  0.00  0.00    +0.000 NA
ATOM     20  C   UNL     1      45.203   7.647  12.209  0.00  0.00    +0.000 A 
ATOM     21  C   UNL     1      45.666   6.343  12.386  0.00  0.00    +0.000 A 
ATOM     22  C   UNL     1      46.838   6.232  13.159  0.00  0.00    +0.000 A 
BRANCH  21  23
ATOM     23  C   UNL     1      44.969   5.125  11.880  0.00  0.00    +0.000 A 
ATOM     24  C   UNL     1      44.264   4.318  12.808  0.00  0.00    +0.000 A 
ATOM     25  C   UNL     1      43.595   3.150  12.436  0.00  0.00    +0.000 A 
ATOM     26  C   UNL     1      43.575   2.767  11.106  0.00  0.00    +0.000 A 
ATOM     27  C   UNL     1      44.252   3.533  10.162  0.00  0.00    +0.000 A 
ATOM     28  C   UNL     1      44.978   4.689  10.530  0.00  0.00    +0.000 A 
ATOM     29  C   UNL     1      45.754   5.375   9.436  0.00  0.00    +0.000 C 
ENDBRANCH  21  23
ENDBRANCH  16  17
ENDBRANCH   1  16
TORSDOF 7
ENDMDL
