MODEL 1
REMARK VINA RESULT:    -8.128      0.000      0.000
REMARK INTER + INTRA:         -12.300
REMARK INTER:                 -11.454
REMARK INTRA:                  -0.846
REMARK UNBOUND:                -0.846
REMARK  Name = 
REMARK  7 active torsions:
REMARK  status: ('A' for Active; 'I' for Inactive)
REMARK    1  A    between atoms: C_2  and  C_20
REMARK    2  A    between atoms: N_3  and  C_4
REMARK    3  A    between atoms: C_4  and  C_5
REMARK    4  A    between atoms: C_8  and  N_9
REMARK    5  A    between atoms: N_9  and  C_10
REMARK    6  A    between atoms: C_10  and  C_11
REMARK    7  A    between atoms: C_11  and  C_12
REMARK                            x       y       z     vdW  Elec       q    Type
REMARK                         _______ _______ _______ _____ _____    ______ ____
ROOT
ATOM      1  C   UNL     1      46.853   6.113  13.077  0.00  0.00    +0.000 A 
ATOM      2  C   UNL     1      45.929   5.152  13.500  0.00  0.00    +0.000 A 
ATOM      3  C   UNL     1      44.923   4.699  12.639  0.00  0.00    +0.000 A 
ATOM      4  C   UNL     1      44.795   5.208  11.344  0.00  0.00    +0.000 A 
ATOM      5  C   UNL     1      45.769   6.100  10.894  0.00  0.00    +0.000 A 
ATOM      6  C   UNL     1      46.779   6.560  11.752  0.00  0.00    +0.000 A 
ENDROOT
BRANCH   4   7
ATOM      7  N   UNL     1      43.739   4.887  10.468  0.00  0.00    +0.000 N 
ATOM      8  H   UNL     1      43.114   5.679  10.333  0.00  0.00    +0.000 HD
BRANCH   7   9
ATOM      9  C   UNL     1      44.103   4.205   9.210  0.00  0.00    +0.000 C 
BRANCH   9  10
ATOM     10  C   UNL     1      44.666   2.794   9.464  0.00  0.00    +0.000 C 
BRANCH  10  11
ATOM     11  C   UNL     1      45.694   2.395   8.431  0.00  0.00    +0.000 A 
ATOM     12  C   UNL     1      46.201   3.320   7.518  0.00  0.00    +0.000 A 
ATOM     13  C   UNL     1      47.154   2.903   6.589  0.00  0.00    +0.000 A 
ATOM     14  C   UNL     1      47.566   1.576   6.579  0.00  0.00    +0.000 A 
ATOM     15  C   UNL     1      46.995   0.719   7.500  0.00  0.00    +0.000 A 
ATOM     16  N   UNL     1      46.074   1.089   8.408  0.00  0.00    +0.000 NA
ENDBRANCH  10  11
ENDBRANCH   9  10
ENDBRANCH   7   9
ENDBRANCH   4   7
BRANCH   1  17
ATOM     17  C   UNL     1      47.886   6.649  14.033  0.00  0.00    +0.000 C 
BRANCH  17  20
ATOM     18  O   UNL     1      49.706   7.041  16.186  0.00  0.00    +0.000 OA
ATOM     19  C   UNL     1      48.882   6.124  16.233  0.00  0.00    +0.000 C 
ATOM     20  N   UNL     1      47.983   5.863  15.228  0.00  0.00    +0.000 N 
ATOM     21  H   UNL     1      47.270   5.160  15.441  0.00  0.00    +0.000 HD
BRANCH  19  22
ATOM     22  C   UNL     1      48.803   5.169  17.354  0.00  0.00    +0.000 A 
ATOM     23  N   UNL     1      49.334   3.923  17.272  0.00  0.00    +0.000 NA
ATOM     24  N   UNL     1      49.257   3.459  18.539  0.00  0.00    +0.000 N 
ATOM     25  C   UNL     1      48.719   4.352  19.420  0.00  0.00    +0.000 A 
ATOM     26  N   UNL     1      48.635   4.205  20.759  0.00  0.00    +0.000 NA
ATOM     27  C   UNL     1      48.070   5.282  21.360  0.00  0.00    +0.000 A 
ATOM     28  C   UNL     1      47.536   6.389  20.711  0.00  0.00    +0.000 A 
ATOM     29  C   UNL     1      47.626   6.470  19.321  0.00  0.00    +0.000 A 
ATOM     30  C   UNL     1      48.298   5.426  18.661  0.00  0.00    +0.000 A 
ATOM     31  H   UNL     1      49.629   2.545  18.760  0.00  0.00    +0.000 HD
ENDBRANCH  19  22
ENDBRANCH  17  20
ENDBRANCH   1  17
TORSDOF 7
ENDMDL
MODEL 2
REMARK VINA RESULT:    -7.441      1.618      2.300
REMARK INTER + INTRA:         -11.332
REMARK INTER:                 -10.542
REMARK INTRA:                  -0.790
REMARK UNBOUND:                -0.846
REMARK  Name = 
REMARK  7 active torsions:
REMARK  status: ('A' for Active; 'I' for Inactive)
REMARK    1  A    between atoms: C_2  and  C_20
REMARK    2  A    between atoms: N_3  and  C_4
REMARK    3  A    between atoms: C_4  and  C_5
REMARK    4  A    between atoms: C_8  and  N_9
REMARK    5  A    between atoms: N_9  and  C_10
REMARK    6  A    between atoms: C_10  and  C_11
REMARK    7  A    between atoms: C_11  and  C_12
REMARK                            x       y       z     vdW  Elec       q    Type
REMARK                         _______ _______ _______ _____ _____    ______ ____
ROOT
ATOM      1  C   UNL     1      46.768   6.322  13.100  0.00  0.00    +0.000 A 
ATOM      2  C   UNL     1      46.133   5.150  13.527  0.00  0.00    +0.000 A 
ATOM      3  C   UNL     1      45.191   4.511  12.712  0.00  0.00    +0.000 A 
ATOM      4  C   UNL     1      44.838   5.033  11.465  0.00  0.00    +0.000 A 
ATOM      5  C   UNL     1      45.535   6.151  11.005  0.00  0.00    +0.000 A 
ATOM      6  C   UNL     1      46.479   6.798  11.815  0.00  0.00    +0.000 A 
ENDROOT
BRANCH   4   7
ATOM      7  N   UNL     1      43.815   4.510  10.649  0.00  0.00    +0.000 N 
ATOM      8  H   UNL     1      42.997   5.115  10.646  0.00  0.00    +0.000 HD
BRANCH   7   9
ATOM      9  C   UNL     1      44.210   4.049   9.303  0.00  0.00    +0.000 C 
BRANCH   9  10
ATOM     10  C   UNL     1      44.724   2.597   9.321  0.00  0.00    +0.000 C 
BRANCH  10  11
ATOM     11  C   UNL     1      45.722   2.331   8.220  0.00  0.00    +0.000 A 
ATOM     12  C   UNL     1      45.998   3.289   7.244  0.00  0.00    +0.000 A 
ATOM     13  C   UNL     1      46.934   2.998   6.252  0.00  0.00    +0.000 A 
ATOM     14  C   UNL     1      47.559   1.757   6.244  0.00  0.00    +0.000 A 
ATOM     15  C   UNL     1      47.210   0.855   7.231  0.00  0.00    +0.000 A 
ATOM     16  N   UNL     1      46.313   1.105   8.201  0.00  0.00    +0.000 NA
ENDBRANCH  10  11
ENDBRANCH   9  10
ENDBRANCH   7   9
ENDBRANCH   4   7
BRANCH   1  17
ATOM     17  C   UNL     1      47.725   7.044  14.012  0.00  0.00    +0.000 C 
BRANCH  17  20
ATOM     18  O   UNL     1      48.868   7.799  16.507  0.00  0.00    +0.000 OA
ATOM     19  C   UNL     1      48.838   6.610  16.175  0.00  0.00    +0.000 C 
ATOM     20  N   UNL     1      48.317   6.171  14.983  0.00  0.00    +0.000 N 
ATOM     21  H   UNL     1      48.233   5.156  14.882  0.00  0.00    +0.000 HD
BRANCH  19  22
ATOM     22  C   UNL     1      49.406   5.529  17.002  0.00  0.00    +0.000 A 
ATOM     23  N   UNL     1      48.634   4.531  17.503  0.00  0.00    +0.000 NA
ATOM     24  N   UNL     1      49.533   3.649  17.995  0.00  0.00    +0.000 N 
ATOM     25  C   UNL     1      50.832   4.030  17.817  0.00  0.00    +0.000 A 
ATOM     26  N   UNL     1      51.928   3.295  18.096  0.00  0.00    +0.000 NA
ATOM     27  C   UNL     1      53.077   3.945  17.783  0.00  0.00    +0.000 A 
ATOM     28  C   UNL     1      53.172   5.252  17.320  0.00  0.00    +0.000 A 
ATOM     29  C   UNL     1      52.002   5.974  17.080  0.00  0.00    +0.000 A 
ATOM     30  C   UNL     1      50.783   5.305  17.288  0.00  0.00    +0.000 A 
ATOM     31  H   UNL     1      49.211   2.780  18.399  0.00  0.00    +0.000 HD
ENDBRANCH  19  22
ENDBRANCH  17  20
ENDBRANCH   1  17
TORSDOF 7
ENDMDL
MODEL 3
REMARK VINA RESULT:    -7.366      2.735      4.726
REMARK INTER + INTRA:         -11.226
REMARK INTER:                 -10.723
REMARK INTRA:                  -0.503
REMARK UNBOUND:                -0.846
REMARK  Name = 
REMARK  7 active torsions:
REMARK  status: ('A' for Active; 'I' for Inactive)
REMARK    1  A    between atoms: C_2  and  C_20
REMARK    2  A    between atoms: N_3  and  C_4
REMARK    3  A    between atoms: C_4  and  C_5
REMARK    4  A    between atoms: C_8  and  N_9
REMARK    5  A    between atoms: N_9  and  C_10
REMARK    6  A    between atoms: C_10  and  C_11
REMARK    7  A    between atoms: C_11  and  C_12
REMARK                            x       y       z     vdW  Elec       q    Type
REMARK                         _______ _______ _______ _____ _____    ______ ____
ROOT
ATOM      1  C   UNL     1      44.707   4.119  10.193  0.00  0.00    +0.000 A 
ATOM      2  C   UNL     1      45.397   4.794   9.181  0.00  0.00    +0.000 A 
ATOM      3  C   UNL     1      45.956   4.093   8.106  0.00  0.00    +0.000 A 
ATOM      4  C   UNL     1      45.866   2.701   8.024  0.00  0.00    +0.000 A 
ATOM      5  C   UNL     1      45.104   2.038   8.987  0.00  0.00    +0.000 A 
ATOM      6  C   UNL     1      44.542   2.733  10.068  0.00  0.00    +0.000 A 
ENDROOT
BRANCH   4   7
ATOM      7  N   UNL     1      46.505   1.923   7.038  0.00  0.00    +0.000 N 
ATOM      8  H   UNL     1      46.096   0.993   6.975  0.00  0.00    +0.000 HD
BRANCH   7   9
ATOM      9  C   UNL     1      46.719   2.561   5.724  0.00  0.00    +0.000 C 
BRANCH   9  10
ATOM     10  C   UNL     1      47.667   1.736   4.832  0.00  0.00    +0.000 C 
BRANCH  10  11
ATOM     11  C   UNL     1      46.916   0.827   3.888  0.00  0.00    +0.000 A 
ATOM     12  C   UNL     1      45.831   1.293   3.144  0.00  0.00    +0.000 A 
ATOM     13  C   UNL     1      45.175   0.416   2.280  0.00  0.00    +0.000 A 
ATOM     14  C   UNL     1      45.601  -0.904   2.191  0.00  0.00    +0.000 A 
ATOM     15  C   UNL     1      46.666  -1.290   2.981  0.00  0.00    +0.000 A 
ATOM     16  N   UNL     1      47.320  -0.470   3.824  0.00  0.00    +0.000 NA
ENDBRANCH  10  11
ENDBRANCH   9  10
ENDBRANCH   7   9
ENDBRANCH   4   7
BRANCH   1  17
ATOM     17  C   UNL     1      44.173   4.872  11.384  0.00  0.00    +0.000 C 
BRANCH  17  20
ATOM     18  O   UNL     1      45.656   3.249  13.190  0.00  0.00    +0.000 OA
ATOM     19  C   UNL     1      45.898   4.457  13.104  0.00  0.00    +0.000 C 
ATOM     20  N   UNL     1      45.215   5.306  12.267  0.00  0.00    +0.000 N 
ATOM     21  H   UNL     1      45.594   6.253  12.191  0.00  0.00    +0.000 HD
BRANCH  19  22
ATOM     22  C   UNL     1      46.915   5.136  13.928  0.00  0.00    +0.000 A 
ATOM     23  N   UNL     1      47.366   6.380  13.626  0.00  0.00    +0.000 NA
ATOM     24  N   UNL     1      48.094   6.726  14.712  0.00  0.00    +0.000 N 
ATOM     25  C   UNL     1      48.114   5.774  15.689  0.00  0.00    +0.000 A 
ATOM     26  N   UNL     1      48.653   5.898  16.919  0.00  0.00    +0.000 NA
ATOM     27  C   UNL     1      48.488   4.780  17.669  0.00  0.00    +0.000 A 
ATOM     28  C   UNL     1      47.923   3.586  17.236  0.00  0.00    +0.000 A 
ATOM     29  C   UNL     1      47.409   3.509  15.941  0.00  0.00    +0.000 A 
ATOM     30  C   UNL     1      47.461   4.676  15.160  0.00  0.00    +0.000 A 
ATOM     31  H   UNL     1      48.517   7.644  14.757  0.00  0.00    +0.000 HD
ENDBRANCH  19  22
ENDBRANCH  17  20
ENDBRANCH   1  17
TORSDOF 7
ENDMDL
MODEL 4
REMARK VINA RESULT:    -7.354      1.405      2.018
REMARK INTER + INTRA:         -11.209
REMARK INTER:                 -10.280
REMARK INTRA:                  -0.930
REMARK UNBOUND:                -0.846
REMARK  Name = 
REMARK  7 active torsions:
REMARK  status: ('A' for Active; 'I' for Inactive)
REMARK    1  A    between atoms: C_2  and  C_20
REMARK    2  A    between atoms: N_3  and  C_4
REMARK    3  A    between atoms: C_4  and  C_5
REMARK    4  A    between atoms: C_8  and  N_9
REMARK    5  A    between atoms: N_9  and  C_10
REMARK    6  A    between atoms: C_10  and  C_11
REMARK    7  A    between atoms: C_11  and  C_12
REMARK                            x       y       z     vdW  Elec       q    Type
REMARK                         _______ _______ _______ _____ _____    ______ ____
ROOT
ATOM      1  C   UNL     1      46.291   6.566  12.937  0.00  0.00    +0.000 A 
ATOM      2  C   UNL     1      45.048   6.979  12.443  0.00  0.00    +0.000 A 
ATOM      3  C   UNL     1      44.130   6.046  11.948  0.00  0.00    +0.000 A 
ATOM      4  C   UNL     1      44.433   4.683  11.907  0.00  0.00    +0.000 A 
ATOM      5  C   UNL     1      45.634   4.263  12.479  0.00  0.00    +0.000 A 
ATOM      6  C   UNL     1      46.561   5.192  12.976  0.00  0.00    +0.000 A 
ENDROOT
BRANCH   4   7
ATOM      7  N   UNL     1      43.608   3.706  11.315  0.00  0.00    +0.000 N 
ATOM      8  H   UNL     1      42.736   4.109  10.979  0.00  0.00    +0.000 HD
BRANCH   7   9
ATOM      9  C   UNL     1      44.247   2.796  10.343  0.00  0.00    +0.000 C 
BRANCH   9  10
ATOM     10  C   UNL     1      44.533   3.496   9.002  0.00  0.00    +0.000 C 
BRANCH  10  11
ATOM     11  C   UNL     1      45.607   2.791   8.207  0.00  0.00    +0.000 A 
ATOM     12  C   UNL     1      46.319   3.452   7.206  0.00  0.00    +0.000 A 
ATOM     13  C   UNL     1      47.307   2.759   6.505  0.00  0.00    +0.000 A 
ATOM     14  C   UNL     1      47.547   1.423   6.804  0.00  0.00    +0.000 A 
ATOM     15  C   UNL     1      46.779   0.837   7.791  0.00  0.00    +0.000 A 
ATOM     16  N   UNL     1      45.821   1.477   8.484  0.00  0.00    +0.000 NA
ENDBRANCH  10  11
ENDBRANCH   9  10
ENDBRANCH   7   9
ENDBRANCH   4   7
BRANCH   1  17
ATOM     17  C   UNL     1      47.302   7.582  13.399  0.00  0.00    +0.000 C 
BRANCH  17  20
ATOM     18  O   UNL     1      49.897   6.937  14.374  0.00  0.00    +0.000 OA
ATOM     19  C   UNL     1      48.961   7.093  15.164  0.00  0.00    +0.000 C 
ATOM     20  N   UNL     1      47.680   7.390  14.769  0.00  0.00    +0.000 N 
ATOM     21  H   UNL     1      47.026   7.621  15.521  0.00  0.00    +0.000 HD
BRANCH  19  22
ATOM     22  C   UNL     1      49.102   6.926  16.622  0.00  0.00    +0.000 A 
ATOM     23  N   UNL     1      49.182   7.991  17.460  0.00  0.00    +0.000 NA
ATOM     24  N   UNL     1      49.077   7.439  18.689  0.00  0.00    +0.000 N 
ATOM     25  C   UNL     1      48.921   6.083  18.672  0.00  0.00    +0.000 A 
ATOM     26  N   UNL     1      48.671   5.292  19.735  0.00  0.00    +0.000 NA
ATOM     27  C   UNL     1      48.543   3.987  19.387  0.00  0.00    +0.000 A 
ATOM     28  C   UNL     1      48.734   3.462  18.114  0.00  0.00    +0.000 A 
ATOM     29  C   UNL     1      49.021   4.329  17.058  0.00  0.00    +0.000 A 
ATOM     30  C   UNL     1      49.058   5.703  17.350  0.00  0.00    +0.000 A 
ATOM     31  H   UNL     1      49.069   8.035  19.506  0.00  0.00    +0.000 HD
ENDBRANCH  19  22
ENDBRANCH  17  20
ENDBRANCH   1  17
TORSDOF 7
ENDMDL
MODEL 5
REMARK VINA RESULT:    -7.021      3.810      6.271
REMARK INTER + INTRA:         -10.740
REMARK INTER:                  -9.849
REMARK INTRA:                  -0.891
REMARK UNBOUND:                -0.846
REMARK  Name = 
REMARK  7 active torsions:
REMARK  status: ('A' for Active; 'I' for Inactive)
REMARK    1  A    between atoms: C_2  and  C_20
REMARK    2  A    between atoms: N_3  and  C_4
REMARK    3  A    between atoms: C_4  and  C_5
REMARK    4  A    between atoms: C_8  and  N_9
REMARK    5  A    between atoms: N_9  and  C_10
REMARK    6  A    between atoms: C_10  and  C_11
REMARK    7  A    between atoms: C_11  and  C_12
REMARK                            x       y       z     vdW  Elec       q    Type
REMARK                         _______ _______ _______ _____ _____    ______ ____
ROOT
ATOM      1  C   UNL     1      47.104   6.128  13.132  0.00  0.00    +0.000 A 
ATOM      2  C   UNL     1      46.546   5.027  13.791  0.00  0.00    +0.000 A 
ATOM      3  C   UNL     1      45.546   4.261  13.183  0.00  0.00    +0.000 A 
ATOM      4  C   UNL     1      45.056   4.584  11.915  0.00  0.00    +0.000 A 
ATOM      5  C   UNL     1      45.673   5.627  11.223  0.00  0.00    +0.000 A 
ATOM      6  C   UNL     1      46.675   6.401  11.827  0.00  0.00    +0.000 A 
ENDROOT
BRANCH   4   7
ATOM      7  N   UNL     1      43.972   3.931  11.294  0.00  0.00    +0.000 N 
ATOM      8  H   UNL     1      43.082   4.326  11.590  0.00  0.00    +0.000 HD
BRANCH   7   9
ATOM      9  C   UNL     1      44.068   3.723   9.836  0.00  0.00    +0.000 C 
BRANCH   9  10
ATOM     10  C   UNL     1      44.538   2.298   9.488  0.00  0.00    +0.000 C 
BRANCH  10  11
ATOM     11  C   UNL     1      45.600   2.294   8.414  0.00  0.00    +0.000 A 
ATOM     12  C   UNL     1      45.851   3.425   7.638  0.00  0.00    +0.000 A 
ATOM     13  C   UNL     1      46.849   3.372   6.664  0.00  0.00    +0.000 A 
ATOM     14  C   UNL     1      47.559   2.193   6.475  0.00  0.00    +0.000 A 
ATOM     15  C   UNL     1      47.230   1.111   7.269  0.00  0.00    +0.000 A 
ATOM     16  N   UNL     1      46.275   1.129   8.215  0.00  0.00    +0.000 NA
ENDBRANCH  10  11
ENDBRANCH   9  10
ENDBRANCH   7   9
ENDBRANCH   4   7
BRANCH   1  17
ATOM     17  C   UNL     1      48.127   6.992  13.823  0.00  0.00    +0.000 C 
BRANCH  17  20
ATOM     18  O   UNL     1      50.823   7.850  14.128  0.00  0.00    +0.000 OA
ATOM     19  C   UNL     1      50.190   8.149  13.111  0.00  0.00    +0.000 C 
ATOM     20  N   UNL     1      48.883   7.785  12.899  0.00  0.00    +0.000 N 
ATOM     21  H   UNL     1      48.513   7.981  11.966  0.00  0.00    +0.000 HD
BRANCH  19  22
ATOM     22  C   UNL     1      50.752   8.977  12.028  0.00  0.00    +0.000 A 
ATOM     23  N   UNL     1      50.749  10.333  12.089  0.00  0.00    +0.000 NA
ATOM     24  N   UNL     1      51.531  10.700  11.048  0.00  0.00    +0.000 N 
ATOM     25  C   UNL     1      52.039   9.648  10.343  0.00  0.00    +0.000 A 
ATOM     26  N   UNL     1      52.939   9.715   9.341  0.00  0.00    +0.000 NA
ATOM     27  C   UNL     1      53.265   8.490   8.858  0.00  0.00    +0.000 A 
ATOM     28  C   UNL     1      52.695   7.284   9.249  0.00  0.00    +0.000 A 
ATOM     29  C   UNL     1      51.745   7.282  10.271  0.00  0.00    +0.000 A 
ATOM     30  C   UNL     1      51.452   8.517  10.876  0.00  0.00    +0.000 A 
ATOM     31  H   UNL     1      51.726  11.681  10.891  0.00  0.00    +0.000 HD
ENDBRANCH  19  22
ENDBRANCH  17  20
ENDBRANCH   1  17
TORSDOF 7
ENDMDL
MODEL 6
REMARK VINA RESULT:    -6.841      2.444      8.713
REMARK INTER + INTRA:         -10.487
REMARK INTER:                  -9.200
REMARK INTRA:                  -1.286
REMARK UNBOUND:                -0.846
REMARK  Name = 
REMARK  7 active torsions:
REMARK  status: ('A' for Active; 'I' for Inactive)
REMARK    1  A    between atoms: C_2  and  C_20
REMARK    2  A    between atoms: N_3  and  C_4
REMARK    3  A    between atoms: C_4  and  C_5
REMARK    4  A    between atoms: C_8  and  N_9
REMARK    5  A    between atoms: N_9  and  C_10
REMARK    6  A    between atoms: C_10  and  C_11
REMARK    7  A    between atoms: C_11  and  C_12
REMARK                            x       y       z     vdW  Elec       q    Type
REMARK                         _______ _______ _______ _____ _____    ______ ____
ROOT
ATOM      1  C   UNL     1      48.164   8.051  13.476  0.00  0.00    +0.000 A 
ATOM      2  C   UNL     1      47.764   8.887  14.524  0.00  0.00    +0.000 A 
ATOM      3  C   UNL     1      48.468   8.904  15.734  0.00  0.00    +0.000 A 
ATOM      4  C   UNL     1      49.572   8.073  15.941  0.00  0.00    +0.000 A 
ATOM      5  C   UNL     1      50.023   7.306  14.867  0.00  0.00    +0.000 A 
ATOM      6  C   UNL     1      49.321   7.281  13.652  0.00  0.00    +0.000 A 
ENDROOT
BRANCH   4   7
ATOM      7  N   UNL     1      50.253   7.952  17.169  0.00  0.00    +0.000 N 
ATOM      8  H   UNL     1      50.749   8.809  17.405  0.00  0.00    +0.000 HD
BRANCH   7   9
ATOM      9  C   UNL     1      49.490   7.385  18.298  0.00  0.00    +0.000 C 
BRANCH   9  10
ATOM     10  C   UNL     1      50.001   5.986  18.692  0.00  0.00    +0.000 C 
BRANCH  10  11
ATOM     11  C   UNL     1      49.324   4.888  17.906  0.00  0.00    +0.000 A 
ATOM     12  C   UNL     1      49.875   3.609  17.825  0.00  0.00    +0.000 A 
ATOM     13  C   UNL     1      49.207   2.628  17.092  0.00  0.00    +0.000 A 
ATOM     14  C   UNL     1      48.020   2.947  16.444  0.00  0.00    +0.000 A 
ATOM     15  C   UNL     1      47.557   4.244  16.553  0.00  0.00    +0.000 A 
ATOM     16  N   UNL     1      48.176   5.212  17.251  0.00  0.00    +0.000 NA
ENDBRANCH  10  11
ENDBRANCH   9  10
ENDBRANCH   7   9
ENDBRANCH   4   7
BRANCH   1  17
ATOM     17  C   UNL     1      47.357   7.983  12.206  0.00  0.00    +0.000 C 
BRANCH  17  20
ATOM     18  O   UNL     1      44.824   6.941  12.978  0.00  0.00    +0.000 OA
ATOM     19  C   UNL     1      45.614   6.237  12.342  0.00  0.00    +0.000 C 
ATOM     20  N   UNL     1      46.858   6.665  11.947  0.00  0.00    +0.000 N 
ATOM     21  H   UNL     1      47.364   6.037  11.317  0.00  0.00    +0.000 HD
BRANCH  19  22
ATOM     22  C   UNL     1      45.330   4.837  11.976  0.00  0.00    +0.000 A 
ATOM     23  N   UNL     1      44.997   3.908  12.906  0.00  0.00    +0.000 NA
ATOM     24  N   UNL     1      44.607   2.844  12.169  0.00  0.00    +0.000 N 
ATOM     25  C   UNL     1      44.661   3.057  10.822  0.00  0.00    +0.000 A 
ATOM     26  N   UNL     1      44.219   2.222   9.860  0.00  0.00    +0.000 NA
ATOM     27  C   UNL     1      44.394   2.733   8.615  0.00  0.00    +0.000 A 
ATOM     28  C   UNL     1      45.035   3.927   8.309  0.00  0.00    +0.000 A 
ATOM     29  C   UNL     1      45.498   4.735   9.348  0.00  0.00    +0.000 A 
ATOM     30  C   UNL     1      45.246   4.299  10.660  0.00  0.00    +0.000 A 
ATOM     31  H   UNL     1      44.265   2.012  12.633  0.00  0.00    +0.000 HD
ENDBRANCH  19  22
ENDBRANCH  17  20
ENDBRANCH   1  17
TORSDOF 7
ENDMDL
MODEL 7
REMARK VINA RESULT:    -6.777      4.580      9.547
REMARK INTER + INTRA:         -10.396
REMARK INTER:                  -9.408
REMARK INTRA:                  -0.988
REMARK UNBOUND:                -0.846
REMARK  Name = 
REMARK  7 active torsions:
REMARK  status: ('A' for Active; 'I' for Inactive)
REMARK    1  A    between atoms: C_2  and  C_20
REMARK    2  A    between atoms: N_3  and  C_4
REMARK    3  A    between atoms: C_4  and  C_5
REMARK    4  A    between atoms: C_8  and  N_9
REMARK    5  A    between atoms: N_9  and  C_10
REMARK    6  A    between atoms: C_10  and  C_11
REMARK    7  A    between atoms: C_11  and  C_12
REMARK                            x       y       z     vdW  Elec       q    Type
REMARK                         _______ _______ _______ _____ _____    ______ ____
ROOT
ATOM      1  C   UNL     1      48.917   4.029  17.265  0.00  0.00    +0.000 A 
ATOM      2  C   UNL     1      49.002   2.657  17.002  0.00  0.00    +0.000 A 
ATOM      3  C   UNL     1      50.212   1.973  17.158  0.00  0.00    +0.000 A 
ATOM      4  C   UNL     1      51.376   2.638  17.553  0.00  0.00    +0.000 A 
ATOM      5  C   UNL     1      51.271   3.986  17.899  0.00  0.00    +0.000 A 
ATOM      6  C   UNL     1      50.061   4.680  17.745  0.00  0.00    +0.000 A 
ENDROOT
BRANCH   4   7
ATOM      7  N   UNL     1      52.649   2.039  17.614  0.00  0.00    +0.000 N 
ATOM      8  H   UNL     1      52.860   1.526  16.760  0.00  0.00    +0.000 HD
BRANCH   7   9
ATOM      9  C   UNL     1      53.763   2.890  18.078  0.00  0.00    +0.000 C 
BRANCH   9  10
ATOM     10  C   UNL     1      55.135   2.274  17.746  0.00  0.00    +0.000 C 
BRANCH  10  11
ATOM     11  C   UNL     1      55.078   0.767  17.655  0.00  0.00    +0.000 A 
ATOM     12  C   UNL     1      55.220  -0.033  18.790  0.00  0.00    +0.000 A 
ATOM     13  C   UNL     1      55.152  -1.420  18.654  0.00  0.00    +0.000 A 
ATOM     14  C   UNL     1      54.963  -1.976  17.395  0.00  0.00    +0.000 A 
ATOM     15  C   UNL     1      54.858  -1.113  16.321  0.00  0.00    +0.000 A 
ATOM     16  N   UNL     1      54.919   0.227  16.417  0.00  0.00    +0.000 NA
ENDBRANCH  10  11
ENDBRANCH   9  10
ENDBRANCH   7   9
ENDBRANCH   4   7
BRANCH   1  17
ATOM     17  C   UNL     1      47.629   4.772  17.025  0.00  0.00    +0.000 C 
BRANCH  17  20
ATOM     18  O   UNL     1      48.025   5.759  14.386  0.00  0.00    +0.000 OA
ATOM     19  C   UNL     1      47.216   4.850  14.590  0.00  0.00    +0.000 C 
ATOM     20  N   UNL     1      46.960   4.332  15.836  0.00  0.00    +0.000 N 
ATOM     21  H   UNL     1      46.367   3.499  15.857  0.00  0.00    +0.000 HD
BRANCH  19  22
ATOM     22  C   UNL     1      46.392   4.250  13.524  0.00  0.00    +0.000 A 
ATOM     23  N   UNL     1      46.369   2.911  13.307  0.00  0.00    +0.000 NA
ATOM     24  N   UNL     1      45.356   2.748  12.425  0.00  0.00    +0.000 N 
ATOM     25  C   UNL     1      44.730   3.913  12.087  0.00  0.00    +0.000 A 
ATOM     26  N   UNL     1      43.619   4.034  11.331  0.00  0.00    +0.000 NA
ATOM     27  C   UNL     1      43.227   5.326  11.197  0.00  0.00    +0.000 A 
ATOM     28  C   UNL     1      43.908   6.437  11.679  0.00  0.00    +0.000 A 
ATOM     29  C   UNL     1      45.070   6.249  12.429  0.00  0.00    +0.000 A 
ATOM     30  C   UNL     1      45.458   4.922  12.686  0.00  0.00    +0.000 A 
ATOM     31  H   UNL     1      45.101   1.817  12.123  0.00  0.00    +0.000 HD
ENDBRANCH  19  22
ENDBRANCH  17  20
ENDBRANCH   1  17
TORSDOF 7
ENDMDL
MODEL 8
REMARK VINA RESULT:    -6.747      1.950      2.580
REMARK INTER + INTRA:         -10.354
REMARK INTER:                  -9.584
REMARK INTRA:                  -0.771
REMARK UNBOUND:                -0.846
REMARK  Name = 
REMARK  7 active torsions:
REMARK  status: ('A' for Active; 'I' for Inactive)
REMARK    1  A    between atoms: C_2  and  C_20
REMARK    2  A    between atoms: N_3  and  C_4
REMARK    3  A    between atoms: C_4  and  C_5
REMARK    4  A    between atoms: C_8  and  N_9
REMARK    5  A    between atoms: N_9  and  C_10
REMARK    6  A    between atoms: C_10  and  C_11
REMARK    7  A    between atoms: C_11  and  C_12
REMARK                            x       y       z     vdW  Elec       q    Type
REMARK                         _______ _______ _______ _____ _____    ______ ____
ROOT
ATOM      1  C   UNL     1      48.564   6.816  13.888  0.00  0.00    +0.000 A 
ATOM      2  C   UNL     1      47.639   5.791  14.118  0.00  0.00    +0.000 A 
ATOM      3  C   UNL     1      46.669   5.475  13.160  0.00  0.00    +0.000 A 
ATOM      4  C   UNL     1      46.576   6.186  11.961  0.00  0.00    +0.000 A 
ATOM      5  C   UNL     1      47.552   7.147  11.695  0.00  0.00    +0.000 A 
ATOM      6  C   UNL     1      48.527   7.471  12.651  0.00  0.00    +0.000 A 
ENDROOT
BRANCH   4   7
ATOM      7  N   UNL     1      45.555   6.003  11.008  0.00  0.00    +0.000 N 
ATOM      8  H   UNL     1      45.885   6.202  10.066  0.00  0.00    +0.000 HD
BRANCH   7   9
ATOM      9  C   UNL     1      44.772   4.755  11.105  0.00  0.00    +0.000 C 
BRANCH   9  10
ATOM     10  C   UNL     1      44.149   4.360   9.752  0.00  0.00    +0.000 C 
BRANCH  10  11
ATOM     11  C   UNL     1      45.131   3.636   8.862  0.00  0.00    +0.000 A 
ATOM     12  C   UNL     1      45.271   2.249   8.914  0.00  0.00    +0.000 A 
ATOM     13  C   UNL     1      46.186   1.627   8.065  0.00  0.00    +0.000 A 
ATOM     14  C   UNL     1      46.951   2.399   7.199  0.00  0.00    +0.000 A 
ATOM     15  C   UNL     1      46.769   3.768   7.228  0.00  0.00    +0.000 A 
ATOM     16  N   UNL     1      45.896   4.399   8.034  0.00  0.00    +0.000 NA
ENDBRANCH  10  11
ENDBRANCH   9  10
ENDBRANCH   7   9
ENDBRANCH   4   7
BRANCH   1  17
ATOM     17  C   UNL     1      49.557   7.198  14.954  0.00  0.00    +0.000 C 
BRANCH  17  20
ATOM     18  O   UNL     1      48.441   9.097  16.756  0.00  0.00    +0.000 OA
ATOM     19  C   UNL     1      48.526   7.909  17.084  0.00  0.00    +0.000 C 
ATOM     20  N   UNL     1      49.065   6.939  16.275  0.00  0.00    +0.000 N 
ATOM     21  H   UNL     1      48.961   5.977  16.606  0.00  0.00    +0.000 HD
BRANCH  19  22
ATOM     22  C   UNL     1      48.103   7.406  18.404  0.00  0.00    +0.000 A 
ATOM     23  N   UNL     1      48.341   6.127  18.792  0.00  0.00    +0.000 NA
ATOM     24  N   UNL     1      48.015   6.127  20.104  0.00  0.00    +0.000 N 
ATOM     25  C   UNL     1      47.599   7.340  20.568  0.00  0.00    +0.000 A 
ATOM     26  N   UNL     1      47.330   7.659  21.852  0.00  0.00    +0.000 NA
ATOM     27  C   UNL     1      46.961   8.956  21.994  0.00  0.00    +0.000 A 
ATOM     28  C   UNL     1      46.771   9.866  20.961  0.00  0.00    +0.000 A 
ATOM     29  C   UNL     1      47.036   9.469  19.649  0.00  0.00    +0.000 A 
ATOM     30  C   UNL     1      47.524   8.164  19.461  0.00  0.00    +0.000 A 
ATOM     31  H   UNL     1      48.141   5.284  20.650  0.00  0.00    +0.000 HD
ENDBRANCH  19  22
ENDBRANCH  17  20
ENDBRANCH   1  17
TORSDOF 7
ENDMDL
MODEL 9
REMARK VINA RESULT:    -6.651      3.308      8.431
REMARK INTER + INTRA:         -10.219
REMARK INTER:                  -8.734
REMARK INTRA:                  -1.485
REMARK UNBOUND:                -0.846
REMARK  Name = 
REMARK  7 active torsions:
REMARK  status: ('A' for Active; 'I' for Inactive)
REMARK    1  A    between atoms: C_2  and  C_20
REMARK    2  A    between atoms: N_3  and  C_4
REMARK    3  A    between atoms: C_4  and  C_5
REMARK    4  A    between atoms: C_8  and  N_9
REMARK    5  A    between atoms: N_9  and  C_10
REMARK    6  A    between atoms: C_10  and  C_11
REMARK    7  A    between atoms: C_11  and  C_12
REMARK                            x       y       z     vdW  Elec       q    Type
REMARK                         _______ _______ _______ _____ _____    ______ ____
ROOT
ATOM      1  C   UNL     1      48.780   8.222  15.753  0.00  0.00    +0.000 A 
ATOM      2  C   UNL     1      48.196   8.814  16.878  0.00  0.00    +0.000 A 
ATOM      3  C   UNL     1      48.718   8.589  18.157  0.00  0.00    +0.000 A 
ATOM      4  C   UNL     1      49.818   7.749  18.354  0.00  0.00    +0.000 A 
ATOM      5  C   UNL     1      50.452   7.230  17.225  0.00  0.00    +0.000 A 
ATOM      6  C   UNL     1      49.934   7.449  15.939  0.00  0.00    +0.000 A 
ENDROOT
BRANCH   4   7
ATOM      7  N   UNL     1      50.320   7.385  19.619  0.00  0.00    +0.000 N 
ATOM      8  H   UNL     1      50.024   8.040  20.339  0.00  0.00    +0.000 HD
BRANCH   7   9
ATOM      9  C   UNL     1      50.165   5.970  20.012  0.00  0.00    +0.000 C 
BRANCH   9  10
ATOM     10  C   UNL     1      48.699   5.507  19.930  0.00  0.00    +0.000 C 
BRANCH  10  11
ATOM     11  C   UNL     1      48.451   4.604  18.745  0.00  0.00    +0.000 A 
ATOM     12  C   UNL     1      47.291   4.718  17.977  0.00  0.00    +0.000 A 
ATOM     13  C   UNL     1      47.113   3.865  16.887  0.00  0.00    +0.000 A 
ATOM     14  C   UNL     1      48.080   2.910  16.601  0.00  0.00    +0.000 A 
ATOM     15  C   UNL     1      49.186   2.846  17.427  0.00  0.00    +0.000 A 
ATOM     16  N   UNL     1      49.388   3.653  18.484  0.00  0.00    +0.000 NA
ENDBRANCH  10  11
ENDBRANCH   9  10
ENDBRANCH   7   9
ENDBRANCH   4   7
BRANCH   1  17
ATOM     17  C   UNL     1      48.168   8.409  14.390  0.00  0.00    +0.000 C 
BRANCH  17  20
ATOM     18  O   UNL     1      48.767   6.133  12.790  0.00  0.00    +0.000 OA
ATOM     19  C   UNL     1      47.640   6.268  13.275  0.00  0.00    +0.000 C 
ATOM     20  N   UNL     1      47.272   7.345  14.044  0.00  0.00    +0.000 N 
ATOM     21  H   UNL     1      46.355   7.277  14.492  0.00  0.00    +0.000 HD
BRANCH  19  22
ATOM     22  C   UNL     1      46.543   5.311  13.041  0.00  0.00    +0.000 A 
ATOM     23  N   UNL     1      46.565   4.057  13.558  0.00  0.00    +0.000 NA
ATOM     24  N   UNL     1      45.320   3.589  13.315  0.00  0.00    +0.000 N 
ATOM     25  C   UNL     1      44.508   4.488  12.685  0.00  0.00    +0.000 A 
ATOM     26  N   UNL     1      43.192   4.338  12.430  0.00  0.00    +0.000 NA
ATOM     27  C   UNL     1      42.661   5.421  11.811  0.00  0.00    +0.000 A 
ATOM     28  C   UNL     1      43.365   6.538  11.380  0.00  0.00    +0.000 A 
ATOM     29  C   UNL     1      44.733   6.623  11.645  0.00  0.00    +0.000 A 
ATOM     30  C   UNL     1      45.309   5.572  12.379  0.00  0.00    +0.000 A 
ATOM     31  H   UNL     1      45.059   2.669  13.642  0.00  0.00    +0.000 HD
ENDBRANCH  19  22
ENDBRANCH  17  20
ENDBRANCH   1  17
TORSDOF 7
ENDMDL
