MODEL 1
REMARK VINA RESULT:    -7.470      0.000      0.000
REMARK INTER + INTRA:         -11.932
REMARK INTER:                 -11.182
REMARK INTRA:                  -0.750
REMARK UNBOUND:                -0.750
REMARK  Name = 
REMARK  11 active torsions:
REMARK  status: ('A' for Active; 'I' for Inactive)
REMARK    1  A    between atoms: C_1  and  C_2
REMARK    2  A    between atoms: C_2  and  C_3
REMARK    3  A    between atoms: C_2  and  N_16
REMARK    4  A    between atoms: C_3  and  C_4
REMARK    5  A    between atoms: C_6  and  C_7
REMARK    6  A    between atoms: N_16  and  C_17
REMARK    7  A    between atoms: N_16  and  C_18
REMARK    8  A    between atoms: C_21  and  O_22
REMARK    9  A    between atoms: O_22  and  C_23
REMARK   10  A    between atoms: C_23  and  C_24
REMARK   11  A    between atoms: C_24  and  O_25
REMARK                            x       y       z     vdW  Elec       q    Type
REMARK                         _______ _______ _______ _____ _____    ______ ____
ROOT
ATOM      1  C   UNL     1      45.484   8.466  12.796  0.00  0.00    +0.000 C 
ATOM      2  C   UNL     1      45.695   7.072  12.181  0.00  0.00    +0.000 C 
ENDROOT
BRANCH   2   3
ATOM      3  N   UNL     1      47.092   6.651  12.489  0.00  0.00    +0.000 N 
ATOM      4  C   UNL     1      48.241   7.389  11.954  0.00  0.00    +0.000 C 
BRANCH   3   5
ATOM      5  C   UNL     1      47.369   5.933  13.663  0.00  0.00    +0.000 A 
ATOM      6  C   UNL     1      48.044   6.535  14.736  0.00  0.00    +0.000 A 
ATOM      7  C   UNL     1      48.300   5.837  15.919  0.00  0.00    +0.000 A 
ATOM      8  C   UNL     1      47.889   4.520  16.004  0.00  0.00    +0.000 A 
ATOM      9  N   UNL     1      47.241   3.885  15.011  0.00  0.00    +0.000 NA
ATOM     10  C   UNL     1      47.005   4.604  13.881  0.00  0.00    +0.000 A 
BRANCH   8  11
ATOM     11  O   UNL     1      48.133   3.855  17.191  0.00  0.00    +0.000 OA
BRANCH  11  12
ATOM     12  C   UNL     1      49.538   3.711  17.446  0.00  0.00    +0.000 C 
BRANCH  12  13
ATOM     13  C   UNL     1      49.927   2.247  17.258  0.00  0.00    +0.000 C 
BRANCH  13  14
ATOM     14  O   UNL     1      49.537   1.780  15.968  0.00  0.00    +0.000 OA
ATOM     15  H   UNL     1      49.437   0.814  16.044  0.00  0.00    +0.000 HD
ENDBRANCH  13  14
ENDBRANCH  12  13
ENDBRANCH  11  12
ENDBRANCH   8  11
ENDBRANCH   3   5
ENDBRANCH   2   3
BRANCH   2  16
ATOM     16  C   UNL     1      44.555   6.140  12.672  0.00  0.00    +0.000 C 
BRANCH  16  17
ATOM     17  C   UNL     1      44.295   4.879  11.881  0.00  0.00    +0.000 A 
ATOM     18  C   UNL     1      44.876   4.650  10.637  0.00  0.00    +0.000 A 
ATOM     19  C   UNL     1      44.744   3.403  10.005  0.00  0.00    +0.000 A 
ATOM     20  C   UNL     1      43.908   2.466  10.619  0.00  0.00    +0.000 A 
ATOM     21  C   UNL     1      43.298   2.795  11.819  0.00  0.00    +0.000 A 
ATOM     22  N   UNL     1      43.488   3.965  12.465  0.00  0.00    +0.000 NA
BRANCH  19  23
ATOM     23  C   UNL     1      45.516   3.100   8.782  0.00  0.00    +0.000 A 
ATOM     24  C   UNL     1      45.947   1.793   8.498  0.00  0.00    +0.000 A 
ATOM     25  C   UNL     1      46.683   1.509   7.351  0.00  0.00    +0.000 A 
ATOM     26  C   UNL     1      46.960   2.547   6.484  0.00  0.00    +0.000 A 
ATOM     27  N   UNL     1      46.558   3.818   6.690  0.00  0.00    +0.000 NA
ATOM     28  C   UNL     1      45.854   4.061   7.826  0.00  0.00    +0.000 A 
ENDBRANCH  19  23
ENDBRANCH  16  17
ENDBRANCH   2  16
TORSDOF 9
ENDMDL
MODEL 2
REMARK VINA RESULT:    -7.394      0.717      1.031
REMARK INTER + INTRA:         -11.817
REMARK INTER:                 -11.121
REMARK INTRA:                  -0.696
REMARK UNBOUND:                -0.750
REMARK  Name = 
REMARK  11 active torsions:
REMARK  status: ('A' for Active; 'I' for Inactive)
REMARK    1  A    between atoms: C_1  and  C_2
REMARK    2  A    between atoms: C_2  and  C_3
REMARK    3  A    between atoms: C_2  and  N_16
REMARK    4  A    between atoms: C_3  and  C_4
REMARK    5  A    between atoms: C_6  and  C_7
REMARK    6  A    between atoms: N_16  and  C_17
REMARK    7  A    between atoms: N_16  and  C_18
REMARK    8  A    between atoms: C_21  and  O_22
REMARK    9  A    between atoms: O_22  and  C_23
REMARK   10  A    between atoms: C_23  and  C_24
REMARK   11  A    between atoms: C_24  and  O_25
REMARK                            x       y       z     vdW  Elec       q    Type
REMARK                         _______ _______ _______ _____ _____    ______ ____
ROOT
ATOM      1  C   UNL     1      45.853   8.613  12.392  0.00  0.00    +0.000 C 
ATOM      2  C   UNL     1      46.007   7.162  11.908  0.00  0.00    +0.000 C 
ENDROOT
BRANCH   2   3
ATOM      3  N   UNL     1      47.351   6.683  12.341  0.00  0.00    +0.000 N 
ATOM      4  C   UNL     1      48.577   7.290  11.812  0.00  0.00    +0.000 C 
BRANCH   3   5
ATOM      5  C   UNL     1      47.511   6.066  13.591  0.00  0.00    +0.000 A 
ATOM      6  C   UNL     1      48.269   6.673  14.605  0.00  0.00    +0.000 A 
ATOM      7  C   UNL     1      48.410   6.080  15.862  0.00  0.00    +0.000 A 
ATOM      8  C   UNL     1      47.801   4.859  16.083  0.00  0.00    +0.000 A 
ATOM      9  N   UNL     1      47.065   4.224  15.153  0.00  0.00    +0.000 NA
ATOM     10  C   UNL     1      46.946   4.841  13.947  0.00  0.00    +0.000 A 
BRANCH   8  11
ATOM     11  O   UNL     1      47.935   4.300  17.340  0.00  0.00    +0.000 OA
BRANCH  11  12
ATOM     12  C   UNL     1      48.010   2.868  17.285  0.00  0.00    +0.000 C 
BRANCH  12  13
ATOM     13  C   UNL     1      49.472   2.454  17.142  0.00  0.00    +0.000 C 
BRANCH  13  14
ATOM     14  O   UNL     1      49.664   1.670  15.965  0.00  0.00    +0.000 OA
ATOM     15  H   UNL     1      50.184   0.892  16.236  0.00  0.00    +0.000 HD
ENDBRANCH  13  14
ENDBRANCH  12  13
ENDBRANCH  11  12
ENDBRANCH   8  11
ENDBRANCH   3   5
ENDBRANCH   2   3
BRANCH   2  16
ATOM     16  C   UNL     1      44.779   6.347  12.398  0.00  0.00    +0.000 C 
BRANCH  16  17
ATOM     17  C   UNL     1      44.449   5.071  11.659  0.00  0.00    +0.000 A 
ATOM     18  C   UNL     1      45.060   4.731  10.456  0.00  0.00    +0.000 A 
ATOM     19  C   UNL     1      44.851   3.467   9.880  0.00  0.00    +0.000 A 
ATOM     20  C   UNL     1      43.915   2.634  10.502  0.00  0.00    +0.000 A 
ATOM     21  C   UNL     1      43.285   3.075  11.655  0.00  0.00    +0.000 A 
ATOM     22  N   UNL     1      43.545   4.257  12.250  0.00  0.00    +0.000 NA
BRANCH  19  23
ATOM     23  C   UNL     1      45.645   3.038   8.710  0.00  0.00    +0.000 A 
ATOM     24  C   UNL     1      46.116   3.969   7.769  0.00  0.00    +0.000 A 
ATOM     25  C   UNL     1      46.856   3.564   6.662  0.00  0.00    +0.000 A 
ATOM     26  C   UNL     1      47.136   2.219   6.525  0.00  0.00    +0.000 A 
ATOM     27  N   UNL     1      46.730   1.280   7.404  0.00  0.00    +0.000 NA
ATOM     28  C   UNL     1      45.999   1.709   8.465  0.00  0.00    +0.000 A 
ENDBRANCH  19  23
ENDBRANCH  16  17
ENDBRANCH   2  16
TORSDOF 9
ENDMDL
MODEL 3
REMARK VINA RESULT:    -7.318      3.330      7.325
REMARK INTER + INTRA:         -11.704
REMARK INTER:                 -10.687
REMARK INTRA:                  -1.017
REMARK UNBOUND:                -0.750
REMARK  Name = 
REMARK  11 active torsions:
REMARK  status: ('A' for Active; 'I' for Inactive)
REMARK    1  A    between atoms: C_1  and  C_2
REMARK    2  A    between atoms: C_2  and  C_3
REMARK    3  A    between atoms: C_2  and  N_16
REMARK    4  A    between atoms: C_3  and  C_4
REMARK    5  A    between atoms: C_6  and  C_7
REMARK    6  A    between atoms: N_16  and  C_17
REMARK    7  A    between atoms: N_16  and  C_18
REMARK    8  A    between atoms: C_21  and  O_22
REMARK    9  A    between atoms: O_22  and  C_23
REMARK   10  A    between atoms: C_23  and  C_24
REMARK   11  A    between atoms: C_24  and  O_25
REMARK                            x       y       z     vdW  Elec       q    Type
REMARK                         _______ _______ _______ _____ _____    ______ ____
ROOT
ATOM      1  C   UNL     1      43.347   4.397  13.294  0.00  0.00    +0.000 C 
ATOM      2  C   UNL     1      43.915   3.579  12.122  0.00  0.00    +0.000 C 
ENDROOT
BRANCH   2   3
ATOM      3  N   UNL     1      43.730   4.382  10.880  0.00  0.00    +0.000 N 
ATOM      4  C   UNL     1      43.149   5.727  10.928  0.00  0.00    +0.000 C 
BRANCH   3   5
ATOM      5  C   UNL     1      44.547   4.151   9.763  0.00  0.00    +0.000 A 
ATOM      6  C   UNL     1      44.505   2.926   9.078  0.00  0.00    +0.000 A 
ATOM      7  C   UNL     1      45.294   2.697   7.948  0.00  0.00    +0.000 A 
ATOM      8  C   UNL     1      46.144   3.704   7.527  0.00  0.00    +0.000 A 
ATOM      9  N   UNL     1      46.233   4.896   8.142  0.00  0.00    +0.000 NA
ATOM     10  C   UNL     1      45.440   5.080   9.231  0.00  0.00    +0.000 A 
BRANCH   8  11
ATOM     11  O   UNL     1      46.899   3.464   6.395  0.00  0.00    +0.000 OA
BRANCH  11  12
ATOM     12  C   UNL     1      47.845   2.403   6.597  0.00  0.00    +0.000 C 
BRANCH  12  13
ATOM     13  C   UNL     1      47.565   1.292   5.588  0.00  0.00    +0.000 C 
BRANCH  13  14
ATOM     14  O   UNL     1      48.079   1.635   4.302  0.00  0.00    +0.000 OA
ATOM     15  H   UNL     1      48.159   0.799   3.807  0.00  0.00    +0.000 HD
ENDBRANCH  13  14
ENDBRANCH  12  13
ENDBRANCH  11  12
ENDBRANCH   8  11
ENDBRANCH   3   5
ENDBRANCH   2   3
BRANCH   2  16
ATOM     16  C   UNL     1      45.366   3.155  12.476  0.00  0.00    +0.000 C 
BRANCH  16  17
ATOM     17  C   UNL     1      46.235   4.167  13.185  0.00  0.00    +0.000 A 
ATOM     18  C   UNL     1      46.595   5.377  12.599  0.00  0.00    +0.000 A 
ATOM     19  C   UNL     1      47.265   6.362  13.344  0.00  0.00    +0.000 A 
ATOM     20  C   UNL     1      47.658   6.017  14.640  0.00  0.00    +0.000 A 
ATOM     21  C   UNL     1      47.334   4.762  15.129  0.00  0.00    +0.000 A 
ATOM     22  N   UNL     1      46.622   3.846  14.441  0.00  0.00    +0.000 NA
BRANCH  19  23
ATOM     23  C   UNL     1      47.474   7.712  12.780  0.00  0.00    +0.000 A 
ATOM     24  C   UNL     1      48.671   8.051  12.128  0.00  0.00    +0.000 A 
ATOM     25  C   UNL     1      48.873   9.326  11.607  0.00  0.00    +0.000 A 
ATOM     26  C   UNL     1      47.850  10.245  11.727  0.00  0.00    +0.000 A 
ATOM     27  N   UNL     1      46.671   9.974  12.323  0.00  0.00    +0.000 NA
ATOM     28  C   UNL     1      46.514   8.725  12.833  0.00  0.00    +0.000 A 
ENDBRANCH  19  23
ENDBRANCH  16  17
ENDBRANCH   2  16
TORSDOF 9
ENDMDL
MODEL 4
REMARK VINA RESULT:    -6.800      3.322      7.898
REMARK INTER + INTRA:         -10.928
REMARK INTER:                 -10.427
REMARK INTRA:                  -0.501
REMARK UNBOUND:                -0.750
REMARK  Name = 
REMARK  11 active torsions:
REMARK  status: ('A' for Active; 'I' for Inactive)
REMARK    1  A    between atoms: C_1  and  C_2
REMARK    2  A    between atoms: C_2  and  C_3
REMARK    3  A    between atoms: C_2  and  N_16
REMARK    4  A    between atoms: C_3  and  C_4
REMARK    5  A    between atoms: C_6  and  C_7
REMARK    6  A    between atoms: N_16  and  C_17
REMARK    7  A    between atoms: N_16  and  C_18
REMARK    8  A    between atoms: C_21  and  O_22
REMARK    9  A    between atoms: O_22  and  C_23
REMARK   10  A    between atoms: C_23  and  C_24
REMARK   11  A    between atoms: C_24  and  O_25
REMARK                            x       y       z     vdW  Elec       q    Type
REMARK                         _______ _______ _______ _____ _____    ______ ____
ROOT
ATOM      1  C   UNL     1      44.927   6.466  12.885  0.00  0.00    +0.000 C 
ATOM      2  C   UNL     1      44.670   4.950  12.876  0.00  0.00    +0.000 C 
ENDROOT
BRANCH   2   3
ATOM      3  N   UNL     1      43.889   4.633  11.646  0.00  0.00    +0.000 N 
ATOM      4  C   UNL     1      42.594   5.270  11.387  0.00  0.00    +0.000 C 
BRANCH   3   5
ATOM      5  C   UNL     1      44.544   4.179  10.492  0.00  0.00    +0.000 A 
ATOM      6  C   UNL     1      44.584   2.812  10.174  0.00  0.00    +0.000 A 
ATOM      7  C   UNL     1      45.211   2.353   9.012  0.00  0.00    +0.000 A 
ATOM      8  C   UNL     1      45.817   3.280   8.185  0.00  0.00    +0.000 A 
ATOM      9  N   UNL     1      45.817   4.602   8.435  0.00  0.00    +0.000 NA
ATOM     10  C   UNL     1      45.188   5.006   9.571  0.00  0.00    +0.000 A 
BRANCH   8  11
ATOM     11  O   UNL     1      46.412   2.807   7.031  0.00  0.00    +0.000 OA
BRANCH  11  12
ATOM     12  C   UNL     1      47.018   1.521   7.229  0.00  0.00    +0.000 C 
BRANCH  12  13
ATOM     13  C   UNL     1      47.433   0.955   5.874  0.00  0.00    +0.000 C 
BRANCH  13  14
ATOM     14  O   UNL     1      48.518   1.701   5.324  0.00  0.00    +0.000 OA
ATOM     15  H   UNL     1      48.302   2.641   5.462  0.00  0.00    +0.000 HD
ENDBRANCH  13  14
ENDBRANCH  12  13
ENDBRANCH  11  12
ENDBRANCH   8  11
ENDBRANCH   3   5
ENDBRANCH   2   3
BRANCH   2  16
ATOM     16  C   UNL     1      46.029   4.220  13.054  0.00  0.00    +0.000 C 
BRANCH  16  17
ATOM     17  C   UNL     1      46.904   4.649  14.208  0.00  0.00    +0.000 A 
ATOM     18  C   UNL     1      47.726   5.771  14.140  0.00  0.00    +0.000 A 
ATOM     19  C   UNL     1      48.401   6.233  15.281  0.00  0.00    +0.000 A 
ATOM     20  C   UNL     1      48.308   5.447  16.434  0.00  0.00    +0.000 A 
ATOM     21  C   UNL     1      47.535   4.297  16.403  0.00  0.00    +0.000 A 
ATOM     22  N   UNL     1      46.824   3.896  15.329  0.00  0.00    +0.000 NA
BRANCH  19  23
ATOM     23  C   UNL     1      49.115   7.527  15.255  0.00  0.00    +0.000 A 
ATOM     24  C   UNL     1      48.534   8.689  15.787  0.00  0.00    +0.000 A 
ATOM     25  C   UNL     1      49.202   9.910  15.753  0.00  0.00    +0.000 A 
ATOM     26  C   UNL     1      50.467   9.943  15.200  0.00  0.00    +0.000 A 
ATOM     27  N   UNL     1      51.086   8.858  14.692  0.00  0.00    +0.000 NA
ATOM     28  C   UNL     1      50.399   7.687  14.729  0.00  0.00    +0.000 A 
ENDBRANCH  19  23
ENDBRANCH  16  17
ENDBRANCH   2  16
TORSDOF 9
ENDMDL
MODEL 5
REMARK VINA RESULT:    -6.661      3.439      7.451
REMARK INTER + INTRA:         -10.721
REMARK INTER:                 -10.234
REMARK INTRA:                  -0.487
REMARK UNBOUND:                -0.750
REMARK  Name = 
REMARK  11 active torsions:
REMARK  status: ('A' for Active; 'I' for Inactive)
REMARK    1  A    between atoms: C_1  and  C_2
REMARK    2  A    between atoms: C_2  and  C_3
REMARK    3  A    between atoms: C_2  and  N_16
REMARK    4  A    between atoms: C_3  and  C_4
REMARK    5  A    between atoms: C_6  and  C_7
REMARK    6  A    between atoms: N_16  and  C_17
REMARK    7  A    between atoms: N_16  and  C_18
REMARK    8  A    between atoms: C_21  and  O_22
REMARK    9  A    between atoms: O_22  and  C_23
REMARK   10  A    between atoms: C_23  and  C_24
REMARK   11  A    between atoms: C_24  and  O_25
REMARK                            x       y       z     vdW  Elec       q    Type
REMARK                         _______ _______ _______ _____ _____    ______ ____
ROOT
ATOM      1  C   UNL     1      45.180   6.934  12.890  0.00  0.00    +0.000 C 
ATOM      2  C   UNL     1      45.094   5.405  13.028  0.00  0.00    +0.000 C 
ENDROOT
BRANCH   2   3
ATOM      3  N   UNL     1      44.149   4.910  11.986  0.00  0.00    +0.000 N 
ATOM      4  C   UNL     1      42.736   5.300  12.000  0.00  0.00    +0.000 C 
BRANCH   3   5
ATOM      5  C   UNL     1      44.628   4.538  10.721  0.00  0.00    +0.000 A 
ATOM      6  C   UNL     1      44.329   3.278  10.178  0.00  0.00    +0.000 A 
ATOM      7  C   UNL     1      44.778   2.908   8.907  0.00  0.00    +0.000 A 
ATOM      8  C   UNL     1      45.550   3.809   8.197  0.00  0.00    +0.000 A 
ATOM      9  N   UNL     1      45.874   5.028   8.663  0.00  0.00    +0.000 NA
ATOM     10  C   UNL     1      45.409   5.351   9.900  0.00  0.00    +0.000 A 
BRANCH   8  11
ATOM     11  O   UNL     1      45.965   3.431   6.934  0.00  0.00    +0.000 OA
BRANCH  11  12
ATOM     12  C   UNL     1      47.275   2.845   6.954  0.00  0.00    +0.000 C 
BRANCH  12  13
ATOM     13  C   UNL     1      47.293   1.641   6.016  0.00  0.00    +0.000 C 
BRANCH  13  14
ATOM     14  O   UNL     1      48.582   1.478   5.426  0.00  0.00    +0.000 OA
ATOM     15  H   UNL     1      49.211   1.941   6.008  0.00  0.00    +0.000 HD
ENDBRANCH  13  14
ENDBRANCH  12  13
ENDBRANCH  11  12
ENDBRANCH   8  11
ENDBRANCH   3   5
ENDBRANCH   2   3
BRANCH   2  16
ATOM     16  C   UNL     1      46.535   4.826  13.003  0.00  0.00    +0.000 C 
BRANCH  16  17
ATOM     17  C   UNL     1      47.651   5.714  13.501  0.00  0.00    +0.000 A 
ATOM     18  C   UNL     1      48.392   6.526  12.647  0.00  0.00    +0.000 A 
ATOM     19  C   UNL     1      49.310   7.456  13.161  0.00  0.00    +0.000 A 
ATOM     20  C   UNL     1      49.529   7.433  14.541  0.00  0.00    +0.000 A 
ATOM     21  C   UNL     1      48.812   6.540  15.321  0.00  0.00    +0.000 A 
ATOM     22  N   UNL     1      47.873   5.701  14.835  0.00  0.00    +0.000 NA
BRANCH  19  23
ATOM     23  C   UNL     1      49.950   8.445  12.269  0.00  0.00    +0.000 A 
ATOM     24  C   UNL     1      51.116   8.130  11.551  0.00  0.00    +0.000 A 
ATOM     25  C   UNL     1      51.726   9.065  10.719  0.00  0.00    +0.000 A 
ATOM     26  C   UNL     1      51.138  10.308  10.599  0.00  0.00    +0.000 A 
ATOM     27  N   UNL     1      50.008  10.664  11.245  0.00  0.00    +0.000 NA
ATOM     28  C   UNL     1      49.449   9.732  12.059  0.00  0.00    +0.000 A 
ENDBRANCH  19  23
ENDBRANCH  16  17
ENDBRANCH   2  16
TORSDOF 9
ENDMDL
MODEL 6
REMARK VINA RESULT:    -6.648      3.367      8.344
REMARK INTER + INTRA:         -10.701
REMARK INTER:                  -9.884
REMARK INTRA:                  -0.817
REMARK UNBOUND:                -0.750
REMARK  Name = 
REMARK  11 active torsions:
REMARK  status: ('A' for Active; 'I' for Inactive)
REMARK    1  A    between atoms: C_1  and  C_2
REMARK    2  A    between atoms: C_2  and  C_3
REMARK    3  A    between atoms: C_2  and  N_16
REMARK    4  A    between atoms: C_3  and  C_4
REMARK    5  A    between atoms: C_6  and  C_7
REMARK    6  A    between atoms: N_16  and  C_17
REMARK    7  A    between atoms: N_16  and  C_18
REMARK    8  A    between atoms: C_21  and  O_22
REMARK    9  A    between atoms: O_22  and  C_23
REMARK   10  A    between atoms: C_23  and  C_24
REMARK   11  A    between atoms: C_24  and  O_25
REMARK                            x       y       z     vdW  Elec       q    Type
REMARK                         _______ _______ _______ _____ _____    ______ ____
ROOT
ATOM      1  C   UNL     1      43.707   4.498  13.333  0.00  0.00    +0.000 C 
ATOM      2  C   UNL     1      44.266   3.576  12.237  0.00  0.00    +0.000 C 
ENDROOT
BRANCH   2   3
ATOM      3  N   UNL     1      43.933   4.188  10.919  0.00  0.00    +0.000 N 
ATOM      4  C   UNL     1      43.189   5.449  10.836  0.00  0.00    +0.000 C 
BRANCH   3   5
ATOM      5  C   UNL     1      44.729   3.918   9.796  0.00  0.00    +0.000 A 
ATOM      6  C   UNL     1      44.824   2.619   9.272  0.00  0.00    +0.000 A 
ATOM      7  C   UNL     1      45.592   2.346   8.137  0.00  0.00    +0.000 A 
ATOM      8  C   UNL     1      46.282   3.388   7.547  0.00  0.00    +0.000 A 
ATOM      9  N   UNL     1      46.236   4.653   8.001  0.00  0.00    +0.000 NA
ATOM     10  C   UNL     1      45.469   4.876   9.102  0.00  0.00    +0.000 A 
BRANCH   8  11
ATOM     11  O   UNL     1      47.018   3.100   6.413  0.00  0.00    +0.000 OA
BRANCH  11  12
ATOM     12  C   UNL     1      46.978   1.702   6.089  0.00  0.00    +0.000 C 
BRANCH  12  13
ATOM     13  C   UNL     1      47.210   1.534   4.590  0.00  0.00    +0.000 C 
BRANCH  13  14
ATOM     14  O   UNL     1      47.344   0.154   4.250  0.00  0.00    +0.000 OA
ATOM     15  H   UNL     1      47.577   0.126   3.305  0.00  0.00    +0.000 HD
ENDBRANCH  13  14
ENDBRANCH  12  13
ENDBRANCH  11  12
ENDBRANCH   8  11
ENDBRANCH   3   5
ENDBRANCH   2   3
BRANCH   2  16
ATOM     16  C   UNL     1      45.768   3.317  12.533  0.00  0.00    +0.000 C 
BRANCH  16  17
ATOM     17  C   UNL     1      46.520   4.375  13.305  0.00  0.00    +0.000 A 
ATOM     18  C   UNL     1      46.818   4.237  14.658  0.00  0.00    +0.000 A 
ATOM     19  C   UNL     1      47.656   5.161  15.304  0.00  0.00    +0.000 A 
ATOM     20  C   UNL     1      48.061   6.275  14.563  0.00  0.00    +0.000 A 
ATOM     21  C   UNL     1      47.658   6.386  13.242  0.00  0.00    +0.000 A 
ATOM     22  N   UNL     1      46.918   5.459  12.599  0.00  0.00    +0.000 NA
BRANCH  19  23
ATOM     23  C   UNL     1      48.124   4.908  16.683  0.00  0.00    +0.000 A 
ATOM     24  C   UNL     1      48.620   5.949  17.485  0.00  0.00    +0.000 A 
ATOM     25  C   UNL     1      49.071   5.709  18.780  0.00  0.00    +0.000 A 
ATOM     26  C   UNL     1      48.995   4.419  19.265  0.00  0.00    +0.000 A 
ATOM     27  N   UNL     1      48.509   3.382  18.552  0.00  0.00    +0.000 NA
ATOM     28  C   UNL     1      48.092   3.650  17.288  0.00  0.00    +0.000 A 
ENDBRANCH  19  23
ENDBRANCH  16  17
ENDBRANCH   2  16
TORSDOF 9
ENDMDL
MODEL 7
REMARK VINA RESULT:    -6.577      3.697      7.580
REMARK INTER + INTRA:         -10.595
REMARK INTER:                  -9.677
REMARK INTRA:                  -0.919
REMARK UNBOUND:                -0.750
REMARK  Name = 
REMARK  11 active torsions:
REMARK  status: ('A' for Active; 'I' for Inactive)
REMARK    1  A    between atoms: C_1  and  C_2
REMARK    2  A    between atoms: C_2  and  C_3
REMARK    3  A    between atoms: C_2  and  N_16
REMARK    4  A    between atoms: C_3  and  C_4
REMARK    5  A    between atoms: C_6  and  C_7
REMARK    6  A    between atoms: N_16  and  C_17
REMARK    7  A    between atoms: N_16  and  C_18
REMARK    8  A    between atoms: C_21  and  O_22
REMARK    9  A    between atoms: O_22  and  C_23
REMARK   10  A    between atoms: C_23  and  C_24
REMARK   11  A    between atoms: C_24  and  O_25
REMARK                            x       y       z     vdW  Elec       q    Type
REMARK                         _______ _______ _______ _____ _____    ______ ____
ROOT
ATOM      1  C   UNL     1      45.828   5.046  13.584  0.00  0.00    +0.000 C 
ATOM      2  C   UNL     1      45.506   5.968  12.395  0.00  0.00    +0.000 C 
ENDROOT
BRANCH   2   3
ATOM      3  N   UNL     1      44.506   5.267  11.540  0.00  0.00    +0.000 N 
ATOM      4  C   UNL     1      43.094   5.661  11.550  0.00  0.00    +0.000 C 
BRANCH   3   5
ATOM      5  C   UNL     1      44.914   4.627  10.360  0.00  0.00    +0.000 A 
ATOM      6  C   UNL     1      44.624   3.272  10.136  0.00  0.00    +0.000 A 
ATOM      7  C   UNL     1      45.001   2.632   8.952  0.00  0.00    +0.000 A 
ATOM      8  C   UNL     1      45.693   3.364   8.004  0.00  0.00    +0.000 A 
ATOM      9  N   UNL     1      46.004   4.663   8.160  0.00  0.00    +0.000 NA
ATOM     10  C   UNL     1      45.610   5.248   9.323  0.00  0.00    +0.000 A 
BRANCH   8  11
ATOM     11  O   UNL     1      46.038   2.718   6.832  0.00  0.00    +0.000 OA
BRANCH  11  12
ATOM     12  C   UNL     1      47.238   1.945   6.979  0.00  0.00    +0.000 C 
BRANCH  12  13
ATOM     13  C   UNL     1      47.388   1.028   5.768  0.00  0.00    +0.000 C 
BRANCH  13  14
ATOM     14  O   UNL     1      48.489   1.437   4.957  0.00  0.00    +0.000 OA
ATOM     15  H   UNL     1      48.133   1.578   4.062  0.00  0.00    +0.000 HD
ENDBRANCH  13  14
ENDBRANCH  12  13
ENDBRANCH  11  12
ENDBRANCH   8  11
ENDBRANCH   3   5
ENDBRANCH   2   3
BRANCH   2  16
ATOM     16  C   UNL     1      45.105   7.362  12.949  0.00  0.00    +0.000 C 
BRANCH  16  17
ATOM     17  C   UNL     1      45.940   8.547  12.525  0.00  0.00    +0.000 A 
ATOM     18  C   UNL     1      47.320   8.464  12.361  0.00  0.00    +0.000 A 
ATOM     19  C   UNL     1      48.041   9.535  11.812  0.00  0.00    +0.000 A 
ATOM     20  C   UNL     1      47.333  10.715  11.562  0.00  0.00    +0.000 A 
ATOM     21  C   UNL     1      45.973  10.750  11.826  0.00  0.00    +0.000 A 
ATOM     22  N   UNL     1      45.266   9.695  12.281  0.00  0.00    +0.000 NA
BRANCH  19  23
ATOM     23  C   UNL     1      49.469   9.374  11.462  0.00  0.00    +0.000 A 
ATOM     24  C   UNL     1      50.080   8.110  11.465  0.00  0.00    +0.000 A 
ATOM     25  C   UNL     1      51.427   7.959  11.146  0.00  0.00    +0.000 A 
ATOM     26  C   UNL     1      52.143   9.089  10.802  0.00  0.00    +0.000 A 
ATOM     27  N   UNL     1      51.608  10.326  10.761  0.00  0.00    +0.000 NA
ATOM     28  C   UNL     1      50.295  10.438  11.092  0.00  0.00    +0.000 A 
ENDBRANCH  19  23
ENDBRANCH  16  17
ENDBRANCH   2  16
TORSDOF 9
ENDMDL
MODEL 8
REMARK VINA RESULT:    -6.502      1.957      2.268
REMARK INTER + INTRA:         -10.482
REMARK INTER:                  -9.742
REMARK INTRA:                  -0.741
REMARK UNBOUND:                -0.750
REMARK  Name = 
REMARK  11 active torsions:
REMARK  status: ('A' for Active; 'I' for Inactive)
REMARK    1  A    between atoms: C_1  and  C_2
REMARK    2  A    between atoms: C_2  and  C_3
REMARK    3  A    between atoms: C_2  and  N_16
REMARK    4  A    between atoms: C_3  and  C_4
REMARK    5  A    between atoms: C_6  and  C_7
REMARK    6  A    between atoms: N_16  and  C_17
REMARK    7  A    between atoms: N_16  and  C_18
REMARK    8  A    between atoms: C_21  and  O_22
REMARK    9  A    between atoms: O_22  and  C_23
REMARK   10  A    between atoms: C_23  and  C_24
REMARK   11  A    between atoms: C_24  and  O_25
REMARK                            x       y       z     vdW  Elec       q    Type
REMARK                         _______ _______ _______ _____ _____    ______ ____
ROOT
ATOM      1  C   UNL     1      45.092   9.447  12.188  0.00  0.00    +0.000 C 
ATOM      2  C   UNL     1      46.110   8.295  12.188  0.00  0.00    +0.000 C 
ENDROOT
BRANCH   2   3
ATOM      3  N   UNL     1      47.391   8.825  12.739  0.00  0.00    +0.000 N 
ATOM      4  C   UNL     1      47.803  10.210  12.495  0.00  0.00    +0.000 C 
BRANCH   3   5
ATOM      5  C   UNL     1      47.951   8.254  13.891  0.00  0.00    +0.000 A 
ATOM      6  C   UNL     1      48.050   8.987  15.085  0.00  0.00    +0.000 A 
ATOM      7  C   UNL     1      48.581   8.418  16.246  0.00  0.00    +0.000 A 
ATOM      8  C   UNL     1      49.033   7.113  16.189  0.00  0.00    +0.000 A 
ATOM      9  N   UNL     1      48.970   6.360  15.076  0.00  0.00    +0.000 NA
ATOM     10  C   UNL     1      48.438   6.950  13.972  0.00  0.00    +0.000 A 
BRANCH   8  11
ATOM     11  O   UNL     1      49.535   6.564  17.354  0.00  0.00    +0.000 OA
BRANCH  11  12
ATOM     12  C   UNL     1      48.539   6.494  18.385  0.00  0.00    +0.000 C 
BRANCH  12  13
ATOM     13  C   UNL     1      47.836   5.142  18.304  0.00  0.00    +0.000 C 
BRANCH  13  14
ATOM     14  O   UNL     1      46.424   5.296  18.450  0.00  0.00    +0.000 OA
ATOM     15  H   UNL     1      46.203   6.169  18.078  0.00  0.00    +0.000 HD
ENDBRANCH  13  14
ENDBRANCH  12  13
ENDBRANCH  11  12
ENDBRANCH   8  11
ENDBRANCH   3   5
ENDBRANCH   2   3
BRANCH   2  16
ATOM     16  C   UNL     1      45.478   7.081  12.921  0.00  0.00    +0.000 C 
BRANCH  16  17
ATOM     17  C   UNL     1      44.759   6.054  12.077  0.00  0.00    +0.000 A 
ATOM     18  C   UNL     1      45.315   5.526  10.915  0.00  0.00    +0.000 A 
ATOM     19  C   UNL     1      44.694   4.460  10.245  0.00  0.00    +0.000 A 
ATOM     20  C   UNL     1      43.447   4.050  10.725  0.00  0.00    +0.000 A 
ATOM     21  C   UNL     1      42.917   4.678  11.842  0.00  0.00    +0.000 A 
ATOM     22  N   UNL     1      43.551   5.650  12.531  0.00  0.00    +0.000 NA
BRANCH  19  23
ATOM     23  C   UNL     1      45.380   3.778   9.128  0.00  0.00    +0.000 A 
ATOM     24  C   UNL     1      45.526   2.381   9.108  0.00  0.00    +0.000 A 
ATOM     25  C   UNL     1      46.182   1.739   8.061  0.00  0.00    +0.000 A 
ATOM     26  C   UNL     1      46.666   2.514   7.026  0.00  0.00    +0.000 A 
ATOM     27  N   UNL     1      46.539   3.856   6.978  0.00  0.00    +0.000 NA
ATOM     28  C   UNL     1      45.907   4.450   8.023  0.00  0.00    +0.000 A 
ENDBRANCH  19  23
ENDBRANCH  16  17
ENDBRANCH   2  16
TORSDOF 9
ENDMDL
MODEL 9
REMARK VINA RESULT:    -6.384      3.182      7.643
REMARK INTER + INTRA:         -10.306
REMARK INTER:                  -9.198
REMARK INTRA:                  -1.107
REMARK UNBOUND:                -0.750
REMARK  Name = 
REMARK  11 active torsions:
REMARK  status: ('A' for Active; 'I' for Inactive)
REMARK    1  A    between atoms: C_1  and  C_2
REMARK    2  A    between atoms: C_2  and  C_3
REMARK    3  A    between atoms: C_2  and  N_16
REMARK    4  A    between atoms: C_3  and  C_4
REMARK    5  A    between atoms: C_6  and  C_7
REMARK    6  A    between atoms: N_16  and  C_17
REMARK    7  A    between atoms: N_16  and  C_18
REMARK    8  A    between atoms: C_21  and  O_22
REMARK    9  A    between atoms: O_22  and  C_23
REMARK   10  A    between atoms: C_23  and  C_24
REMARK   11  A    between atoms: C_24  and  O_25
REMARK                            x       y       z     vdW  Elec       q    Type
REMARK                         _______ _______ _______ _____ _____    ______ ____
ROOT
ATOM      1  C   UNL     1      48.635   9.883  13.959  0.00  0.00    +0.000 C 
ATOM      2  C   UNL     1      48.409   8.484  14.557  0.00  0.00    +0.000 C 
ENDROOT
BRANCH   2   3
ATOM      3  N   UNL     1      48.219   7.535  13.424  0.00  0.00    +0.000 N 
ATOM      4  C   UNL     1      49.349   7.115  12.590  0.00  0.00    +0.000 C 
BRANCH   3   5
ATOM      5  C   UNL     1      47.150   6.626  13.438  0.00  0.00    +0.000 A 
ATOM      6  C   UNL     1      45.912   6.958  12.865  0.00  0.00    +0.000 A 
ATOM      7  C   UNL     1      44.850   6.049  12.850  0.00  0.00    +0.000 A 
ATOM      8  C   UNL     1      45.038   4.812  13.437  0.00  0.00    +0.000 A 
ATOM      9  N   UNL     1      46.198   4.435  14.005  0.00  0.00    +0.000 NA
ATOM     10  C   UNL     1      47.207   5.346  13.989  0.00  0.00    +0.000 A 
BRANCH   8  11
ATOM     11  O   UNL     1      43.982   3.921  13.391  0.00  0.00    +0.000 OA
BRANCH  11  12
ATOM     12  C   UNL     1      43.194   4.085  12.203  0.00  0.00    +0.000 C 
BRANCH  12  13
ATOM     13  C   UNL     1      43.588   3.010  11.194  0.00  0.00    +0.000 C 
BRANCH  13  14
ATOM     14  O   UNL     1      43.077   1.736  11.585  0.00  0.00    +0.000 OA
ATOM     15  H   UNL     1      42.108   1.792  11.502  0.00  0.00    +0.000 HD
ENDBRANCH  13  14
ENDBRANCH  12  13
ENDBRANCH  11  12
ENDBRANCH   8  11
ENDBRANCH   3   5
ENDBRANCH   2   3
BRANCH   2  16
ATOM     16  C   UNL     1      49.569   8.178  15.544  0.00  0.00    +0.000 C 
BRANCH  16  17
ATOM     17  C   UNL     1      49.333   7.113  16.589  0.00  0.00    +0.000 A 
ATOM     18  C   UNL     1      49.917   5.852  16.509  0.00  0.00    +0.000 A 
ATOM     19  C   UNL     1      49.808   4.945  17.575  0.00  0.00    +0.000 A 
ATOM     20  C   UNL     1      48.989   5.319  18.645  0.00  0.00    +0.000 A 
ATOM     21  C   UNL     1      48.374   6.560  18.618  0.00  0.00    +0.000 A 
ATOM     22  N   UNL     1      48.542   7.463  17.629  0.00  0.00    +0.000 NA
BRANCH  19  23
ATOM     23  C   UNL     1      50.586   3.688  17.569  0.00  0.00    +0.000 A 
ATOM     24  C   UNL     1      51.894   3.639  18.076  0.00  0.00    +0.000 A 
ATOM     25  C   UNL     1      52.631   2.458  18.061  0.00  0.00    +0.000 A 
ATOM     26  C   UNL     1      52.028   1.324  17.553  0.00  0.00    +0.000 A 
ATOM     27  N   UNL     1      50.769   1.302  17.071  0.00  0.00    +0.000 NA
ATOM     28  C   UNL     1      50.086   2.475  17.088  0.00  0.00    +0.000 A 
ENDBRANCH  19  23
ENDBRANCH  16  17
ENDBRANCH   2  16
TORSDOF 9
ENDMDL
