MODEL 1
REMARK VINA RESULT:    -6.390      0.000      0.000
REMARK INTER + INTRA:          -9.147
REMARK INTER:                  -8.258
REMARK INTRA:                  -0.889
REMARK UNBOUND:                -0.889
REMARK  Name = 
REMARK  7 active torsions:
REMARK  status: ('A' for Active; 'I' for Inactive)
REMARK    1  A    between atoms: C_1  and  O_2
REMARK    2  A    between atoms: O_2  and  C_3
REMARK    3  A    between atoms: C_5  and  C_6
REMARK    4  A    between atoms: C_8  and  O_9
REMARK    5  A    between atoms: O_9  and  C_10
REMARK    6  A    between atoms: C_10  and  C_11
REMARK    7  A    between atoms: C_16  and  C_17
REMARK                            x       y       z     vdW  Elec       q    Type
REMARK                         _______ _______ _______ _____ _____    ______ ____
ROOT
ATOM      1  C   UNL     1      47.640   7.381  13.323  0.00  0.00    +0.000 A 
ATOM      2  C   UNL     1      46.847   8.493  13.611  0.00  0.00    +0.000 A 
ATOM      3  C   UNL     1      45.711   8.735  12.861  0.00  0.00    +0.000 A 
ATOM      4  C   UNL     1      45.304   7.802  11.921  0.00  0.00    +0.000 A 
ATOM      5  F   UNL     1      44.381   8.197  11.043  0.00  0.00    +0.000 F 
ATOM      6  C   UNL     1      45.861   6.526  11.865  0.00  0.00    +0.000 A 
ATOM      7  C   UNL     1      47.080   6.348  12.539  0.00  0.00    +0.000 A 
ENDROOT
BRANCH   6   8
ATOM      8  C   UNL     1      45.169   5.322  11.240  0.00  0.00    +0.000 C 
ATOM      9  C   UNL     1      43.743   5.509  10.685  0.00  0.00    +0.000 C 
ATOM     10  C   UNL     1      42.635   5.537  11.751  0.00  0.00    +0.000 C 
ATOM     11  N   UNL     1      42.735   4.447  12.718  0.00  0.00    +0.000 NA
ATOM     12  C   UNL     1      44.062   4.402  13.335  0.00  0.00    +0.000 C 
ATOM     13  C   UNL     1      45.144   4.175  12.277  0.00  0.00    +0.000 C 
ATOM     14  H   UNL     1      42.553   3.562  12.250  0.00  0.00    +0.000 HD
ENDBRANCH   6   8
BRANCH   1  15
ATOM     15  C   UNL     1      49.117   7.385  13.652  0.00  0.00    +0.000 C 
ATOM     16  C   UNL     1      49.933   7.917  12.479  0.00  0.00    +0.000 C 
ATOM     17  C   UNL     1      49.959   8.644  13.765  0.00  0.00    +0.000 C 
BRANCH  15  18
ATOM     18  O   UNL     1      49.512   6.467  14.689  0.00  0.00    +0.000 OA
BRANCH  18  24
ATOM     19  C   UNL     1      47.508   5.208  17.518  0.00  0.00    +0.000 A 
ATOM     20  C   UNL     1      47.684   6.270  18.407  0.00  0.00    +0.000 A 
ATOM     21  C   UNL     1      48.434   7.390  18.029  0.00  0.00    +0.000 A 
ATOM     22  C   UNL     1      48.583   8.568  18.947  0.00  0.00    +0.000 C 
ATOM     23  C   UNL     1      49.029   7.405  16.762  0.00  0.00    +0.000 A 
ATOM     24  C   UNL     1      48.847   6.344  15.868  0.00  0.00    +0.000 A 
ATOM     25  C   UNL     1      48.037   5.277  16.230  0.00  0.00    +0.000 A 
BRANCH  19  27
ATOM     26  C   UNL     1      47.510   2.854  17.437  0.00  0.00    +0.000 C 
ATOM     27  O   UNL     1      46.830   4.051  17.797  0.00  0.00    +0.000 OA
ENDBRANCH  19  27
ENDBRANCH  18  24
ENDBRANCH  15  18
ENDBRANCH   1  15
TORSDOF 5
ENDMDL
MODEL 2
REMARK VINA RESULT:    -6.206      1.356      2.374
REMARK INTER + INTRA:          -8.909
REMARK INTER:                  -8.208
REMARK INTRA:                  -0.700
REMARK UNBOUND:                -0.889
REMARK  Name = 
REMARK  7 active torsions:
REMARK  status: ('A' for Active; 'I' for Inactive)
REMARK    1  A    between atoms: C_1  and  O_2
REMARK    2  A    between atoms: O_2  and  C_3
REMARK    3  A    between atoms: C_5  and  C_6
REMARK    4  A    between atoms: C_8  and  O_9
REMARK    5  A    between atoms: O_9  and  C_10
REMARK    6  A    between atoms: C_10  and  C_11
REMARK    7  A    between atoms: C_16  and  C_17
REMARK                            x       y       z     vdW  Elec       q    Type
REMARK                         _______ _______ _______ _____ _____    ______ ____
ROOT
ATOM      1  C   UNL     1      47.372   7.492  12.830  0.00  0.00    +0.000 A 
ATOM      2  C   UNL     1      46.711   8.643  13.259  0.00  0.00    +0.000 A 
ATOM      3  C   UNL     1      45.497   8.986  12.691  0.00  0.00    +0.000 A 
ATOM      4  C   UNL     1      44.892   8.115  11.799  0.00  0.00    +0.000 A 
ATOM      5  F   UNL     1      43.881   8.600  11.078  0.00  0.00    +0.000 F 
ATOM      6  C   UNL     1      45.343   6.807  11.631  0.00  0.00    +0.000 A 
ATOM      7  C   UNL     1      46.632   6.526  12.112  0.00  0.00    +0.000 A 
ENDROOT
BRANCH   6   8
ATOM      8  C   UNL     1      44.484   5.673  11.087  0.00  0.00    +0.000 C 
ATOM      9  C   UNL     1      43.029   5.561  11.584  0.00  0.00    +0.000 C 
ATOM     10  C   UNL     1      42.873   4.948  12.985  0.00  0.00    +0.000 C 
ATOM     11  N   UNL     1      43.637   3.716  13.167  0.00  0.00    +0.000 NA
ATOM     12  C   UNL     1      45.048   3.912  12.829  0.00  0.00    +0.000 C 
ATOM     13  C   UNL     1      45.202   4.333  11.366  0.00  0.00    +0.000 C 
ATOM     14  H   UNL     1      43.248   2.987  12.575  0.00  0.00    +0.000 HD
ENDBRANCH   6   8
BRANCH   1  15
ATOM     15  C   UNL     1      48.878   7.386  12.936  0.00  0.00    +0.000 C 
ATOM     16  C   UNL     1      49.539   7.686  11.596  0.00  0.00    +0.000 C 
ATOM     17  C   UNL     1      49.827   8.558  12.752  0.00  0.00    +0.000 C 
BRANCH  15  18
ATOM     18  O   UNL     1      49.355   6.567  14.020  0.00  0.00    +0.000 OA
BRANCH  18  24
ATOM     19  C   UNL     1      48.890   8.232  17.278  0.00  0.00    +0.000 A 
ATOM     20  C   UNL     1      48.354   7.164  18.001  0.00  0.00    +0.000 A 
ATOM     21  C   UNL     1      48.196   5.912  17.396  0.00  0.00    +0.000 A 
ATOM     22  C   UNL     1      47.680   4.736  18.174  0.00  0.00    +0.000 C 
ATOM     23  C   UNL     1      48.550   5.765  16.049  0.00  0.00    +0.000 A 
ATOM     24  C   UNL     1      49.093   6.834  15.327  0.00  0.00    +0.000 A 
ATOM     25  C   UNL     1      49.316   8.045  15.964  0.00  0.00    +0.000 A 
BRANCH  19  27
ATOM     26  C   UNL     1      47.845  10.181  18.088  0.00  0.00    +0.000 C 
ATOM     27  O   UNL     1      49.052   9.505  17.757  0.00  0.00    +0.000 OA
ENDBRANCH  19  27
ENDBRANCH  18  24
ENDBRANCH  15  18
ENDBRANCH   1  15
TORSDOF 5
ENDMDL
MODEL 3
REMARK VINA RESULT:    -6.137      3.146      5.483
REMARK INTER + INTRA:          -8.820
REMARK INTER:                  -8.665
REMARK INTRA:                  -0.155
REMARK UNBOUND:                -0.889
REMARK  Name = 
REMARK  7 active torsions:
REMARK  status: ('A' for Active; 'I' for Inactive)
REMARK    1  A    between atoms: C_1  and  O_2
REMARK    2  A    between atoms: O_2  and  C_3
REMARK    3  A    between atoms: C_5  and  C_6
REMARK    4  A    between atoms: C_8  and  O_9
REMARK    5  A    between atoms: O_9  and  C_10
REMARK    6  A    between atoms: C_10  and  C_11
REMARK    7  A    between atoms: C_16  and  C_17
REMARK                            x       y       z     vdW  Elec       q    Type
REMARK                         _______ _______ _______ _____ _____    ______ ____
ROOT
ATOM      1  C   UNL     1      47.322   6.512  12.621  0.00  0.00    +0.000 A 
ATOM      2  C   UNL     1      47.432   5.614  13.685  0.00  0.00    +0.000 A 
ATOM      3  C   UNL     1      46.337   4.855  14.055  0.00  0.00    +0.000 A 
ATOM      4  C   UNL     1      45.186   4.900  13.284  0.00  0.00    +0.000 A 
ATOM      5  F   UNL     1      44.082   4.379  13.823  0.00  0.00    +0.000 F 
ATOM      6  C   UNL     1      45.168   5.498  12.026  0.00  0.00    +0.000 A 
ATOM      7  C   UNL     1      46.236   6.359  11.730  0.00  0.00    +0.000 A 
ENDROOT
BRANCH   6   8
ATOM      8  C   UNL     1      44.149   5.170  10.942  0.00  0.00    +0.000 C 
ATOM      9  C   UNL     1      42.952   4.272  11.316  0.00  0.00    +0.000 C 
ATOM     10  C   UNL     1      43.277   2.771  11.404  0.00  0.00    +0.000 C 
ATOM     11  N   UNL     1      44.030   2.273  10.256  0.00  0.00    +0.000 NA
ATOM     12  C   UNL     1      45.242   3.064  10.031  0.00  0.00    +0.000 C 
ATOM     13  C   UNL     1      44.890   4.526   9.748  0.00  0.00    +0.000 C 
ATOM     14  H   UNL     1      43.445   2.313   9.425  0.00  0.00    +0.000 HD
ENDBRANCH   6   8
BRANCH   1  15
ATOM     15  C   UNL     1      48.207   7.737  12.556  0.00  0.00    +0.000 C 
ATOM     16  C   UNL     1      49.675   7.341  12.456  0.00  0.00    +0.000 C 
ATOM     17  C   UNL     1      49.059   8.107  11.353  0.00  0.00    +0.000 C 
BRANCH  15  18
ATOM     18  O   UNL     1      47.625   8.937  13.099  0.00  0.00    +0.000 OA
BRANCH  18  24
ATOM     19  C   UNL     1      44.719  10.713  11.685  0.00  0.00    +0.000 A 
ATOM     20  C   UNL     1      45.391  11.668  10.919  0.00  0.00    +0.000 A 
ATOM     21  C   UNL     1      46.790  11.673  10.866  0.00  0.00    +0.000 A 
ATOM     22  C   UNL     1      47.528  12.651  10.000  0.00  0.00    +0.000 C 
ATOM     23  C   UNL     1      47.495  10.728  11.622  0.00  0.00    +0.000 A 
ATOM     24  C   UNL     1      46.822   9.767  12.384  0.00  0.00    +0.000 A 
ATOM     25  C   UNL     1      45.435   9.728  12.363  0.00  0.00    +0.000 A 
BRANCH  19  27
ATOM     26  C   UNL     1      42.665  10.023  10.763  0.00  0.00    +0.000 C 
ATOM     27  O   UNL     1      43.360  10.642  11.839  0.00  0.00    +0.000 OA
ENDBRANCH  19  27
ENDBRANCH  18  24
ENDBRANCH  15  18
ENDBRANCH   1  15
TORSDOF 5
ENDMDL
MODEL 4
REMARK VINA RESULT:    -5.936      2.811      5.829
REMARK INTER + INTRA:          -8.560
REMARK INTER:                  -8.364
REMARK INTRA:                  -0.195
REMARK UNBOUND:                -0.889
REMARK  Name = 
REMARK  7 active torsions:
REMARK  status: ('A' for Active; 'I' for Inactive)
REMARK    1  A    between atoms: C_1  and  O_2
REMARK    2  A    between atoms: O_2  and  C_3
REMARK    3  A    between atoms: C_5  and  C_6
REMARK    4  A    between atoms: C_8  and  O_9
REMARK    5  A    between atoms: O_9  and  C_10
REMARK    6  A    between atoms: C_10  and  C_11
REMARK    7  A    between atoms: C_16  and  C_17
REMARK                            x       y       z     vdW  Elec       q    Type
REMARK                         _______ _______ _______ _____ _____    ______ ____
ROOT
ATOM      1  C   UNL     1      49.242   7.062  16.331  0.00  0.00    +0.000 A 
ATOM      2  C   UNL     1      48.859   8.040  17.251  0.00  0.00    +0.000 A 
ATOM      3  C   UNL     1      48.036   7.699  18.308  0.00  0.00    +0.000 A 
ATOM      4  C   UNL     1      47.710   6.368  18.516  0.00  0.00    +0.000 A 
ATOM      5  F   UNL     1      46.709   6.120  19.362  0.00  0.00    +0.000 F 
ATOM      6  C   UNL     1      48.364   5.339  17.841  0.00  0.00    +0.000 A 
ATOM      7  C   UNL     1      49.092   5.707  16.699  0.00  0.00    +0.000 A 
ENDROOT
BRANCH   6   8
ATOM      8  C   UNL     1      48.433   3.902  18.342  0.00  0.00    +0.000 C 
ATOM      9  C   UNL     1      49.804   3.196  18.340  0.00  0.00    +0.000 C 
ATOM     10  C   UNL     1      50.265   2.691  16.962  0.00  0.00    +0.000 C 
ATOM     11  N   UNL     1      49.235   1.945  16.244  0.00  0.00    +0.000 NA
ATOM     12  C   UNL     1      47.996   2.719  16.136  0.00  0.00    +0.000 C 
ATOM     13  C   UNL     1      47.440   3.046  17.524  0.00  0.00    +0.000 C 
ATOM     14  H   UNL     1      49.045   1.074  16.733  0.00  0.00    +0.000 HD
ENDBRANCH   6   8
BRANCH   1  15
ATOM     15  C   UNL     1      49.595   7.441  14.910  0.00  0.00    +0.000 C 
ATOM     16  C   UNL     1      49.867   8.937  14.798  0.00  0.00    +0.000 C 
ATOM     17  C   UNL     1      50.950   7.982  14.486  0.00  0.00    +0.000 C 
BRANCH  15  18
ATOM     18  O   UNL     1      49.123   6.527  13.901  0.00  0.00    +0.000 OA
BRANCH  18  24
ATOM     19  C   UNL     1      45.710   5.251  13.335  0.00  0.00    +0.000 A 
ATOM     20  C   UNL     1      45.093   6.436  12.927  0.00  0.00    +0.000 A 
ATOM     21  C   UNL     1      45.836   7.617  12.817  0.00  0.00    +0.000 A 
ATOM     22  C   UNL     1      45.206   8.885  12.321  0.00  0.00    +0.000 C 
ATOM     23  C   UNL     1      47.194   7.592  13.159  0.00  0.00    +0.000 A 
ATOM     24  C   UNL     1      47.814   6.404  13.561  0.00  0.00    +0.000 A 
ATOM     25  C   UNL     1      47.080   5.227  13.589  0.00  0.00    +0.000 A 
BRANCH  19  27
ATOM     26  C   UNL     1      44.747   3.360  12.313  0.00  0.00    +0.000 C 
ATOM     27  O   UNL     1      45.072   4.052  13.513  0.00  0.00    +0.000 OA
ENDBRANCH  19  27
ENDBRANCH  18  24
ENDBRANCH  15  18
ENDBRANCH   1  15
TORSDOF 5
ENDMDL
MODEL 5
REMARK VINA RESULT:    -5.744      3.174      5.798
REMARK INTER + INTRA:          -8.313
REMARK INTER:                  -8.272
REMARK INTRA:                  -0.041
REMARK UNBOUND:                -0.889
REMARK  Name = 
REMARK  7 active torsions:
REMARK  status: ('A' for Active; 'I' for Inactive)
REMARK    1  A    between atoms: C_1  and  O_2
REMARK    2  A    between atoms: O_2  and  C_3
REMARK    3  A    between atoms: C_5  and  C_6
REMARK    4  A    between atoms: C_8  and  O_9
REMARK    5  A    between atoms: O_9  and  C_10
REMARK    6  A    between atoms: C_10  and  C_11
REMARK    7  A    between atoms: C_16  and  C_17
REMARK                            x       y       z     vdW  Elec       q    Type
REMARK                         _______ _______ _______ _____ _____    ______ ____
ROOT
ATOM      1  C   UNL     1      47.497   6.641  12.522  0.00  0.00    +0.000 A 
ATOM      2  C   UNL     1      47.611   5.730  13.573  0.00  0.00    +0.000 A 
ATOM      3  C   UNL     1      46.524   4.948  13.920  0.00  0.00    +0.000 A 
ATOM      4  C   UNL     1      45.381   4.986  13.138  0.00  0.00    +0.000 A 
ATOM      5  F   UNL     1      44.280   4.439  13.657  0.00  0.00    +0.000 F 
ATOM      6  C   UNL     1      45.366   5.602  11.888  0.00  0.00    +0.000 A 
ATOM      7  C   UNL     1      46.423   6.485  11.617  0.00  0.00    +0.000 A 
ENDROOT
BRANCH   6   8
ATOM      8  C   UNL     1      44.364   5.275  10.789  0.00  0.00    +0.000 C 
ATOM      9  C   UNL     1      43.070   4.533  11.181  0.00  0.00    +0.000 C 
ATOM     10  C   UNL     1      43.240   3.023  11.416  0.00  0.00    +0.000 C 
ATOM     11  N   UNL     1      43.985   2.352  10.354  0.00  0.00    +0.000 NA
ATOM     12  C   UNL     1      45.278   2.999  10.121  0.00  0.00    +0.000 C 
ATOM     13  C   UNL     1      45.085   4.456   9.693  0.00  0.00    +0.000 C 
ATOM     14  H   UNL     1      43.441   2.370   9.495  0.00  0.00    +0.000 HD
ENDBRANCH   6   8
BRANCH   1  15
ATOM     15  C   UNL     1      48.363   7.881  12.484  0.00  0.00    +0.000 C 
ATOM     16  C   UNL     1      49.841   7.511  12.440  0.00  0.00    +0.000 C 
ATOM     17  C   UNL     1      49.252   8.262  11.312  0.00  0.00    +0.000 C 
BRANCH  15  18
ATOM     18  O   UNL     1      47.742   9.073  13.002  0.00  0.00    +0.000 OA
BRANCH  18  24
ATOM     19  C   UNL     1      46.956  11.776  10.619  0.00  0.00    +0.000 A 
ATOM     20  C   UNL     1      45.565  11.649  10.587  0.00  0.00    +0.000 A 
ATOM     21  C   UNL     1      44.926  10.693  11.385  0.00  0.00    +0.000 A 
ATOM     22  C   UNL     1      43.429  10.583  11.411  0.00  0.00    +0.000 C 
ATOM     23  C   UNL     1      45.708   9.849  12.182  0.00  0.00    +0.000 A 
ATOM     24  C   UNL     1      47.101   9.980  12.219  0.00  0.00    +0.000 A 
ATOM     25  C   UNL     1      47.712  10.984  11.482  0.00  0.00    +0.000 A 
BRANCH  19  27
ATOM     26  C   UNL     1      49.096  12.534   9.995  0.00  0.00    +0.000 C 
ATOM     27  O   UNL     1      47.685  12.647   9.854  0.00  0.00    +0.000 OA
ENDBRANCH  19  27
ENDBRANCH  18  24
ENDBRANCH  15  18
ENDBRANCH   1  15
TORSDOF 5
ENDMDL
MODEL 6
REMARK VINA RESULT:    -5.732      3.735      6.321
REMARK INTER + INTRA:          -8.297
REMARK INTER:                  -8.265
REMARK INTRA:                  -0.032
REMARK UNBOUND:                -0.889
REMARK  Name = 
REMARK  7 active torsions:
REMARK  status: ('A' for Active; 'I' for Inactive)
REMARK    1  A    between atoms: C_1  and  O_2
REMARK    2  A    between atoms: O_2  and  C_3
REMARK    3  A    between atoms: C_5  and  C_6
REMARK    4  A    between atoms: C_8  and  O_9
REMARK    5  A    between atoms: O_9  and  C_10
REMARK    6  A    between atoms: C_10  and  C_11
REMARK    7  A    between atoms: C_16  and  C_17
REMARK                            x       y       z     vdW  Elec       q    Type
REMARK                         _______ _______ _______ _____ _____    ______ ____
ROOT
ATOM      1  C   UNL     1      46.319   5.577  12.106  0.00  0.00    +0.000 A 
ATOM      2  C   UNL     1      46.492   4.622  13.110  0.00  0.00    +0.000 A 
ATOM      3  C   UNL     1      45.654   3.523  13.160  0.00  0.00    +0.000 A 
ATOM      4  C   UNL     1      44.741   3.316  12.138  0.00  0.00    +0.000 A 
ATOM      5  F   UNL     1      43.782   2.416  12.363  0.00  0.00    +0.000 F 
ATOM      6  C   UNL     1      44.792   4.042  10.950  0.00  0.00    +0.000 A 
ATOM      7  C   UNL     1      45.556   5.220  10.972  0.00  0.00    +0.000 A 
ENDROOT
BRANCH   6   8
ATOM      8  C   UNL     1      44.189   3.566   9.635  0.00  0.00    +0.000 C 
ATOM      9  C   UNL     1      44.394   2.092   9.232  0.00  0.00    +0.000 C 
ATOM     10  C   UNL     1      45.785   1.768   8.660  0.00  0.00    +0.000 C 
ATOM     11  N   UNL     1      46.222   2.709   7.632  0.00  0.00    +0.000 NA
ATOM     12  C   UNL     1      46.156   4.091   8.113  0.00  0.00    +0.000 C 
ATOM     13  C   UNL     1      44.722   4.464   8.495  0.00  0.00    +0.000 C 
ATOM     14  H   UNL     1      45.630   2.612   6.811  0.00  0.00    +0.000 HD
ENDBRANCH   6   8
BRANCH   1  15
ATOM     15  C   UNL     1      46.746   7.011  12.328  0.00  0.00    +0.000 C 
ATOM     16  C   UNL     1      48.229   7.089  12.672  0.00  0.00    +0.000 C 
ATOM     17  C   UNL     1      47.737   7.749  11.445  0.00  0.00    +0.000 C 
BRANCH  15  18
ATOM     18  O   UNL     1      45.683   7.913  12.688  0.00  0.00    +0.000 OA
BRANCH  18  24
ATOM     19  C   UNL     1      45.994  11.344  11.370  0.00  0.00    +0.000 A 
ATOM     20  C   UNL     1      44.861  11.373  10.554  0.00  0.00    +0.000 A 
ATOM     21  C   UNL     1      44.007  10.266  10.492  0.00  0.00    +0.000 A 
ATOM     22  C   UNL     1      42.751  10.302   9.670  0.00  0.00    +0.000 C 
ATOM     23  C   UNL     1      44.331   9.123  11.233  0.00  0.00    +0.000 A 
ATOM     24  C   UNL     1      45.462   9.096  12.056  0.00  0.00    +0.000 A 
ATOM     25  C   UNL     1      46.255  10.229  12.165  0.00  0.00    +0.000 A 
BRANCH  19  27
ATOM     26  C   UNL     1      47.884  12.174  12.502  0.00  0.00    +0.000 C 
ATOM     27  O   UNL     1      46.915  12.351  11.475  0.00  0.00    +0.000 OA
ENDBRANCH  19  27
ENDBRANCH  18  24
ENDBRANCH  15  18
ENDBRANCH   1  15
TORSDOF 5
ENDMDL
MODEL 7
REMARK VINA RESULT:    -5.577      1.747      2.737
REMARK INTER + INTRA:          -8.096
REMARK INTER:                  -7.502
REMARK INTRA:                  -0.594
REMARK UNBOUND:                -0.889
REMARK  Name = 
REMARK  7 active torsions:
REMARK  status: ('A' for Active; 'I' for Inactive)
REMARK    1  A    between atoms: C_1  and  O_2
REMARK    2  A    between atoms: O_2  and  C_3
REMARK    3  A    between atoms: C_5  and  C_6
REMARK    4  A    between atoms: C_8  and  O_9
REMARK    5  A    between atoms: O_9  and  C_10
REMARK    6  A    between atoms: C_10  and  C_11
REMARK    7  A    between atoms: C_16  and  C_17
REMARK                            x       y       z     vdW  Elec       q    Type
REMARK                         _______ _______ _______ _____ _____    ______ ____
ROOT
ATOM      1  C   UNL     1      47.068   7.841  13.280  0.00  0.00    +0.000 A 
ATOM      2  C   UNL     1      46.558   9.107  12.986  0.00  0.00    +0.000 A 
ATOM      3  C   UNL     1      45.434   9.224  12.190  0.00  0.00    +0.000 A 
ATOM      4  C   UNL     1      44.752   8.081  11.802  0.00  0.00    +0.000 A 
ATOM      5  F   UNL     1      43.855   8.220  10.825  0.00  0.00    +0.000 F 
ATOM      6  C   UNL     1      45.019   6.839  12.373  0.00  0.00    +0.000 A 
ATOM      7  C   UNL     1      46.230   6.722  13.074  0.00  0.00    +0.000 A 
ENDROOT
BRANCH   6   8
ATOM      8  C   UNL     1      44.032   5.678  12.387  0.00  0.00    +0.000 C 
ATOM      9  C   UNL     1      44.407   4.414  13.187  0.00  0.00    +0.000 C 
ATOM     10  C   UNL     1      45.418   3.488  12.490  0.00  0.00    +0.000 C 
ATOM     11  N   UNL     1      45.081   3.206  11.096  0.00  0.00    +0.000 NA
ATOM     12  C   UNL     1      44.885   4.443  10.336  0.00  0.00    +0.000 C 
ATOM     13  C   UNL     1      43.737   5.265  10.927  0.00  0.00    +0.000 C 
ATOM     14  H   UNL     1      44.229   2.652  11.060  0.00  0.00    +0.000 HD
ENDBRANCH   6   8
BRANCH   1  15
ATOM     15  C   UNL     1      48.536   7.658  13.595  0.00  0.00    +0.000 C 
ATOM     16  C   UNL     1      49.230   6.856  12.500  0.00  0.00    +0.000 C 
ATOM     17  C   UNL     1      49.663   8.244  12.762  0.00  0.00    +0.000 C 
BRANCH  15  18
ATOM     18  O   UNL     1      48.878   7.776  14.989  0.00  0.00    +0.000 OA
BRANCH  18  24
ATOM     19  C   UNL     1      50.743   5.425  17.133  0.00  0.00    +0.000 A 
ATOM     20  C   UNL     1      49.716   4.525  17.425  0.00  0.00    +0.000 A 
ATOM     21  C   UNL     1      48.442   4.705  16.873  0.00  0.00    +0.000 A 
ATOM     22  C   UNL     1      47.342   3.715  17.124  0.00  0.00    +0.000 C 
ATOM     23  C   UNL     1      48.214   5.820  16.056  0.00  0.00    +0.000 A 
ATOM     24  C   UNL     1      49.245   6.718  15.758  0.00  0.00    +0.000 A 
ATOM     25  C   UNL     1      50.520   6.481  16.251  0.00  0.00    +0.000 A 
BRANCH  19  27
ATOM     26  C   UNL     1      52.991   6.088  16.912  0.00  0.00    +0.000 C 
ATOM     27  O   UNL     1      52.011   5.367  17.648  0.00  0.00    +0.000 OA
ENDBRANCH  19  27
ENDBRANCH  18  24
ENDBRANCH  15  18
ENDBRANCH   1  15
TORSDOF 5
ENDMDL
MODEL 8
REMARK VINA RESULT:    -5.515      3.077      6.148
REMARK INTER + INTRA:          -8.017
REMARK INTER:                  -7.254
REMARK INTRA:                  -0.763
REMARK UNBOUND:                -0.889
REMARK  Name = 
REMARK  7 active torsions:
REMARK  status: ('A' for Active; 'I' for Inactive)
REMARK    1  A    between atoms: C_1  and  O_2
REMARK    2  A    between atoms: O_2  and  C_3
REMARK    3  A    between atoms: C_5  and  C_6
REMARK    4  A    between atoms: C_8  and  O_9
REMARK    5  A    between atoms: O_9  and  C_10
REMARK    6  A    between atoms: C_10  and  C_11
REMARK    7  A    between atoms: C_16  and  C_17
REMARK                            x       y       z     vdW  Elec       q    Type
REMARK                         _______ _______ _______ _____ _____    ______ ____
ROOT
ATOM      1  C   UNL     1      50.076   7.283  15.164  0.00  0.00    +0.000 A 
ATOM      2  C   UNL     1      51.440   7.534  15.328  0.00  0.00    +0.000 A 
ATOM      3  C   UNL     1      52.075   7.126  16.487  0.00  0.00    +0.000 A 
ATOM      4  C   UNL     1      51.381   6.360  17.410  0.00  0.00    +0.000 A 
ATOM      5  F   UNL     1      51.934   6.228  18.617  0.00  0.00    +0.000 F 
ATOM      6  C   UNL     1      50.146   5.790  17.110  0.00  0.00    +0.000 A 
ATOM      7  C   UNL     1      49.473   6.313  15.995  0.00  0.00    +0.000 A 
ENDROOT
BRANCH   6   8
ATOM      8  C   UNL     1      49.570   4.577  17.830  0.00  0.00    +0.000 C 
ATOM      9  C   UNL     1      48.552   3.699  17.076  0.00  0.00    +0.000 C 
ATOM     10  C   UNL     1      47.129   4.278  17.007  0.00  0.00    +0.000 C 
ATOM     11  N   UNL     1      46.632   4.751  18.296  0.00  0.00    +0.000 NA
ATOM     12  C   UNL     1      47.562   5.704  18.907  0.00  0.00    +0.000 C 
ATOM     13  C   UNL     1      48.924   5.051  19.153  0.00  0.00    +0.000 C 
ATOM     14  H   UNL     1      46.506   3.959  18.921  0.00  0.00    +0.000 HD
ENDBRANCH   6   8
BRANCH   1  15
ATOM     15  C   UNL     1      49.233   8.175  14.280  0.00  0.00    +0.000 C 
ATOM     16  C   UNL     1      48.587   9.290  15.094  0.00  0.00    +0.000 C 
ATOM     17  C   UNL     1      49.535   9.640  14.017  0.00  0.00    +0.000 C 
BRANCH  15  18
ATOM     18  O   UNL     1      48.780   7.566  13.056  0.00  0.00    +0.000 OA
BRANCH  18  24
ATOM     19  C   UNL     1      45.647   5.620  13.086  0.00  0.00    +0.000 A 
ATOM     20  C   UNL     1      44.803   6.544  12.467  0.00  0.00    +0.000 A 
ATOM     21  C   UNL     1      45.307   7.774  12.025  0.00  0.00    +0.000 A 
ATOM     22  C   UNL     1      44.430   8.754  11.302  0.00  0.00    +0.000 C 
ATOM     23  C   UNL     1      46.657   8.068  12.249  0.00  0.00    +0.000 A 
ATOM     24  C   UNL     1      47.504   7.139  12.863  0.00  0.00    +0.000 A 
ATOM     25  C   UNL     1      47.007   5.895  13.224  0.00  0.00    +0.000 A 
BRANCH  19  27
ATOM     26  C   UNL     1      44.138   3.818  12.933  0.00  0.00    +0.000 C 
ATOM     27  O   UNL     1      45.254   4.408  13.590  0.00  0.00    +0.000 OA
ENDBRANCH  19  27
ENDBRANCH  18  24
ENDBRANCH  15  18
ENDBRANCH   1  15
TORSDOF 5
ENDMDL
MODEL 9
REMARK VINA RESULT:    -5.342      1.712      2.450
REMARK INTER + INTRA:          -7.793
REMARK INTER:                  -7.193
REMARK INTRA:                  -0.600
REMARK UNBOUND:                -0.889
REMARK  Name = 
REMARK  7 active torsions:
REMARK  status: ('A' for Active; 'I' for Inactive)
REMARK    1  A    between atoms: C_1  and  O_2
REMARK    2  A    between atoms: O_2  and  C_3
REMARK    3  A    between atoms: C_5  and  C_6
REMARK    4  A    between atoms: C_8  and  O_9
REMARK    5  A    between atoms: O_9  and  C_10
REMARK    6  A    between atoms: C_10  and  C_11
REMARK    7  A    between atoms: C_16  and  C_17
REMARK                            x       y       z     vdW  Elec       q    Type
REMARK                         _______ _______ _______ _____ _____    ______ ____
ROOT
ATOM      1  C   UNL     1      47.105   8.372  12.722  0.00  0.00    +0.000 A 
ATOM      2  C   UNL     1      46.377   9.488  12.307  0.00  0.00    +0.000 A 
ATOM      3  C   UNL     1      45.122   9.318  11.750  0.00  0.00    +0.000 A 
ATOM      4  C   UNL     1      44.551   8.055  11.733  0.00  0.00    +0.000 A 
ATOM      5  F   UNL     1      43.483   7.890  10.952  0.00  0.00    +0.000 F 
ATOM      6  C   UNL     1      45.090   6.996  12.460  0.00  0.00    +0.000 A 
ATOM      7  C   UNL     1      46.412   7.155  12.906  0.00  0.00    +0.000 A 
ENDROOT
BRANCH   6   8
ATOM      8  C   UNL     1      44.297   5.770  12.893  0.00  0.00    +0.000 C 
ATOM      9  C   UNL     1      45.056   4.619  13.585  0.00  0.00    +0.000 C 
ATOM     10  C   UNL     1      45.854   3.712  12.634  0.00  0.00    +0.000 C 
ATOM     11  N   UNL     1      45.087   3.274  11.470  0.00  0.00    +0.000 NA
ATOM     12  C   UNL     1      44.511   4.414  10.754  0.00  0.00    +0.000 C 
ATOM     13  C   UNL     1      43.560   5.199  11.660  0.00  0.00    +0.000 C 
ATOM     14  H   UNL     1      44.339   2.655  11.772  0.00  0.00    +0.000 HD
ENDBRANCH   6   8
BRANCH   1  15
ATOM     15  C   UNL     1      48.617   8.411  12.757  0.00  0.00    +0.000 C 
ATOM     16  C   UNL     1      49.209   7.517  11.674  0.00  0.00    +0.000 C 
ATOM     17  C   UNL     1      49.479   8.969  11.637  0.00  0.00    +0.000 C 
BRANCH  15  18
ATOM     18  O   UNL     1      49.186   8.804  14.021  0.00  0.00    +0.000 OA
BRANCH  18  24
ATOM     19  C   UNL     1      49.270   6.209  16.641  0.00  0.00    +0.000 A 
ATOM     20  C   UNL     1      50.652   6.053  16.757  0.00  0.00    +0.000 A 
ATOM     21  C   UNL     1      51.518   6.839  15.988  0.00  0.00    +0.000 A 
ATOM     22  C   UNL     1      53.007   6.731  16.144  0.00  0.00    +0.000 C 
ATOM     23  C   UNL     1      50.970   7.753  15.080  0.00  0.00    +0.000 A 
ATOM     24  C   UNL     1      49.584   7.914  14.968  0.00  0.00    +0.000 A 
ATOM     25  C   UNL     1      48.743   7.182  15.793  0.00  0.00    +0.000 A 
BRANCH  19  27
ATOM     26  C   UNL     1      48.376   4.070  17.054  0.00  0.00    +0.000 C 
ATOM     27  O   UNL     1      48.334   5.468  17.313  0.00  0.00    +0.000 OA
ENDBRANCH  19  27
ENDBRANCH  18  24
ENDBRANCH  15  18
ENDBRANCH   1  15
TORSDOF 5
ENDMDL
