MODEL 1
REMARK VINA RESULT:    -8.705      0.000      0.000
REMARK INTER + INTRA:         -11.971
REMARK INTER:                 -11.250
REMARK INTRA:                  -0.721
REMARK UNBOUND:                -0.721
REMARK  Name = 
REMARK  5 active torsions:
REMARK  status: ('A' for Active; 'I' for Inactive)
REMARK    1  A    between atoms: C_2  and  C_18
REMARK    2  A    between atoms: N_3  and  C_4
REMARK    3  A    between atoms: C_4  and  C_5
REMARK    4  A    between atoms: C_8  and  C_9
REMARK    5  A    between atoms: C_9  and  C_10
REMARK                            x       y       z     vdW  Elec       q    Type
REMARK                         _______ _______ _______ _____ _____    ______ ____
ROOT
ATOM      1  O   UNL     1      46.547   3.123  13.561  0.00  0.00    +0.000 OA
ATOM      2  C   UNL     1      46.321   4.314  13.767  0.00  0.00    +0.000 C 
ATOM      3  N   UNL     1      45.118   4.884  13.411  0.00  0.00    +0.000 N 
ATOM      4  H   UNL     1      45.026   5.896  13.393  0.00  0.00    +0.000 HD
ENDROOT
BRANCH   2   5
ATOM      5  C   UNL     1      47.309   5.164  14.438  0.00  0.00    +0.000 A 
ATOM      6  C   UNL     1      47.917   6.189  13.727  0.00  0.00    +0.000 A 
ATOM      7  S   UNL     1      49.028   7.098  14.645  0.00  0.00    +0.000 S 
ATOM      8  C   UNL     1      48.704   6.184  16.040  0.00  0.00    +0.000 A 
ATOM      9  N   UNL     1      49.309   6.477  17.219  0.00  0.00    +0.000 NA
ATOM     10  C   UNL     1      48.943   5.733  18.206  0.00  0.00    +0.000 A 
ATOM     11  N   UNL     1      48.036   4.704  18.112  0.00  0.00    +0.000 N 
ATOM     12  C   UNL     1      47.429   4.347  16.928  0.00  0.00    +0.000 A 
ATOM     13  O   UNL     1      46.678   3.384  16.870  0.00  0.00    +0.000 OA
ATOM     14  C   UNL     1      47.788   5.174  15.799  0.00  0.00    +0.000 A 
ATOM     15  H   UNL     1      47.806   4.148  18.924  0.00  0.00    +0.000 HD
ENDBRANCH   2   5
BRANCH   3  16
ATOM     16  C   UNL     1      44.147   4.102  12.673  0.00  0.00    +0.000 C 
BRANCH  16  17
ATOM     17  C   UNL     1      44.486   3.964  11.209  0.00  0.00    +0.000 A 
ATOM     18  C   UNL     1      44.168   2.778  10.542  0.00  0.00    +0.000 A 
ATOM     19  C   UNL     1      44.487   2.606   9.190  0.00  0.00    +0.000 A 
ATOM     20  C   UNL     1      45.146   3.614   8.471  0.00  0.00    +0.000 A 
ATOM     21  C   UNL     1      45.450   4.806   9.139  0.00  0.00    +0.000 A 
ATOM     22  C   UNL     1      45.130   4.982  10.499  0.00  0.00    +0.000 A 
BRANCH  20  23
ATOM     23  C   UNL     1      45.638   3.334   7.069  0.00  0.00    +0.000 C 
BRANCH  23  24
ATOM     24  C   UNL     1      47.083   2.868   6.754  0.00  0.00    +0.000 C 
ATOM     25  C   UNL     1      47.478   2.902   5.279  0.00  0.00    +0.000 C 
ATOM     26  C   UNL     1      46.995   1.683   4.509  0.00  0.00    +0.000 C 
ATOM     27  C   UNL     1      47.264   0.361   5.231  0.00  0.00    +0.000 C 
ATOM     28  N   UNL     1      46.995   0.344   6.666  0.00  0.00    +0.000 NA
ATOM     29  C   UNL     1      47.500   1.526   7.366  0.00  0.00    +0.000 C 
ATOM     30  H   UNL     1      45.994   0.253   6.819  0.00  0.00    +0.000 HD
ENDBRANCH  23  24
ENDBRANCH  20  23
ENDBRANCH  16  17
ENDBRANCH   3  16
TORSDOF 5
ENDMDL
MODEL 2
REMARK VINA RESULT:    -8.222      1.759      2.619
REMARK INTER + INTRA:         -11.346
REMARK INTER:                 -10.426
REMARK INTRA:                  -0.920
REMARK UNBOUND:                -0.721
REMARK  Name = 
REMARK  5 active torsions:
REMARK  status: ('A' for Active; 'I' for Inactive)
REMARK    1  A    between atoms: C_2  and  C_18
REMARK    2  A    between atoms: N_3  and  C_4
REMARK    3  A    between atoms: C_4  and  C_5
REMARK    4  A    between atoms: C_8  and  C_9
REMARK    5  A    between atoms: C_9  and  C_10
REMARK                            x       y       z     vdW  Elec       q    Type
REMARK                         _______ _______ _______ _____ _____    ______ ____
ROOT
ATOM      1  O   UNL     1      46.597   3.631  14.129  0.00  0.00    +0.000 OA
ATOM      2  C   UNL     1      46.566   4.854  14.018  0.00  0.00    +0.000 C 
ATOM      3  N   UNL     1      45.486   5.493  13.449  0.00  0.00    +0.000 N 
ATOM      4  H   UNL     1      45.564   6.468  13.174  0.00  0.00    +0.000 HD
ENDROOT
BRANCH   2   5
ATOM      5  C   UNL     1      47.663   5.686  14.525  0.00  0.00    +0.000 A 
ATOM      6  C   UNL     1      48.095   5.516  15.832  0.00  0.00    +0.000 A 
ATOM      7  S   UNL     1      49.385   6.540  16.269  0.00  0.00    +0.000 S 
ATOM      8  C   UNL     1      49.443   7.217  14.712  0.00  0.00    +0.000 A 
ATOM      9  N   UNL     1      50.374   8.153  14.395  0.00  0.00    +0.000 NA
ATOM     10  C   UNL     1      50.334   8.552  13.170  0.00  0.00    +0.000 A 
ATOM     11  N   UNL     1      49.428   8.111  12.236  0.00  0.00    +0.000 N 
ATOM     12  C   UNL     1      48.442   7.193  12.525  0.00  0.00    +0.000 A 
ATOM     13  O   UNL     1      47.612   6.874  11.685  0.00  0.00    +0.000 OA
ATOM     14  C   UNL     1      48.467   6.695  13.881  0.00  0.00    +0.000 A 
ATOM     15  H   UNL     1      49.442   8.479  11.295  0.00  0.00    +0.000 HD
ENDBRANCH   2   5
BRANCH   3  16
ATOM     16  C   UNL     1      44.419   4.707  12.862  0.00  0.00    +0.000 C 
BRANCH  16  17
ATOM     17  C   UNL     1      44.648   4.392  11.404  0.00  0.00    +0.000 A 
ATOM     18  C   UNL     1      44.283   3.137  10.909  0.00  0.00    +0.000 A 
ATOM     19  C   UNL     1      44.500   2.802   9.568  0.00  0.00    +0.000 A 
ATOM     20  C   UNL     1      45.101   3.713   8.686  0.00  0.00    +0.000 A 
ATOM     21  C   UNL     1      45.452   4.974   9.182  0.00  0.00    +0.000 A 
ATOM     22  C   UNL     1      45.234   5.314  10.531  0.00  0.00    +0.000 A 
BRANCH  20  23
ATOM     23  C   UNL     1      45.488   3.264   7.294  0.00  0.00    +0.000 C 
BRANCH  23  24
ATOM     24  C   UNL     1      46.947   2.940   6.882  0.00  0.00    +0.000 C 
ATOM     25  C   UNL     1      47.264   3.113   5.397  0.00  0.00    +0.000 C 
ATOM     26  C   UNL     1      46.840   1.917   4.560  0.00  0.00    +0.000 C 
ATOM     27  C   UNL     1      47.246   0.572   5.166  0.00  0.00    +0.000 C 
ATOM     28  N   UNL     1      47.051   0.431   6.607  0.00  0.00    +0.000 NA
ATOM     29  C   UNL     1      47.498   1.597   7.372  0.00  0.00    +0.000 C 
ATOM     30  H   UNL     1      46.070   0.247   6.797  0.00  0.00    +0.000 HD
ENDBRANCH  23  24
ENDBRANCH  20  23
ENDBRANCH  16  17
ENDBRANCH   3  16
TORSDOF 5
ENDMDL
MODEL 3
REMARK VINA RESULT:    -7.170      4.533      9.842
REMARK INTER + INTRA:          -9.987
REMARK INTER:                  -9.057
REMARK INTRA:                  -0.931
REMARK UNBOUND:                -0.721
REMARK  Name = 
REMARK  5 active torsions:
REMARK  status: ('A' for Active; 'I' for Inactive)
REMARK    1  A    between atoms: C_2  and  C_18
REMARK    2  A    between atoms: N_3  and  C_4
REMARK    3  A    between atoms: C_4  and  C_5
REMARK    4  A    between atoms: C_8  and  C_9
REMARK    5  A    between atoms: C_9  and  C_10
REMARK                            x       y       z     vdW  Elec       q    Type
REMARK                         _______ _______ _______ _____ _____    ______ ____
ROOT
ATOM      1  O   UNL     1      47.289   3.197  14.014  0.00  0.00    +0.000 OA
ATOM      2  C   UNL     1      46.823   4.237  14.473  0.00  0.00    +0.000 C 
ATOM      3  N   UNL     1      46.844   4.495  15.826  0.00  0.00    +0.000 N 
ATOM      4  H   UNL     1      46.274   5.246  16.206  0.00  0.00    +0.000 HD
ENDROOT
BRANCH   2   5
ATOM      5  C   UNL     1      46.260   5.265  13.590  0.00  0.00    +0.000 A 
ATOM      6  C   UNL     1      47.021   6.382  13.279  0.00  0.00    +0.000 A 
ATOM      7  S   UNL     1      46.239   7.477  12.232  0.00  0.00    +0.000 S 
ATOM      8  C   UNL     1      44.873   6.474  12.119  0.00  0.00    +0.000 A 
ATOM      9  N   UNL     1      43.824   6.814  11.328  0.00  0.00    +0.000 NA
ATOM     10  C   UNL     1      42.871   5.947  11.301  0.00  0.00    +0.000 A 
ATOM     11  N   UNL     1      42.866   4.773  12.016  0.00  0.00    +0.000 N 
ATOM     12  C   UNL     1      43.891   4.407  12.861  0.00  0.00    +0.000 A 
ATOM     13  O   UNL     1      43.821   3.386  13.532  0.00  0.00    +0.000 OA
ATOM     14  C   UNL     1      44.996   5.338  12.900  0.00  0.00    +0.000 A 
ATOM     15  H   UNL     1      42.078   4.143  11.962  0.00  0.00    +0.000 HD
ENDBRANCH   2   5
BRANCH   3  16
ATOM     16  C   UNL     1      47.314   3.474  16.740  0.00  0.00    +0.000 C 
BRANCH  16  17
ATOM     17  C   UNL     1      48.778   3.613  17.081  0.00  0.00    +0.000 A 
ATOM     18  C   UNL     1      49.314   4.887  17.288  0.00  0.00    +0.000 A 
ATOM     19  C   UNL     1      50.671   5.055  17.584  0.00  0.00    +0.000 A 
ATOM     20  C   UNL     1      51.533   3.951  17.671  0.00  0.00    +0.000 A 
ATOM     21  C   UNL     1      50.989   2.676  17.477  0.00  0.00    +0.000 A 
ATOM     22  C   UNL     1      49.623   2.503  17.180  0.00  0.00    +0.000 A 
BRANCH  20  23
ATOM     23  C   UNL     1      53.023   4.174  17.812  0.00  0.00    +0.000 C 
BRANCH  23  24
ATOM     24  C   UNL     1      53.725   4.367  19.180  0.00  0.00    +0.000 C 
ATOM     25  C   UNL     1      52.918   3.926  20.401  0.00  0.00    +0.000 C 
ATOM     26  C   UNL     1      51.912   4.973  20.853  0.00  0.00    +0.000 C 
ATOM     27  C   UNL     1      52.492   6.387  20.924  0.00  0.00    +0.000 C 
ATOM     28  N   UNL     1      53.356   6.784  19.816  0.00  0.00    +0.000 NA
ATOM     29  C   UNL     1      54.324   5.754  19.434  0.00  0.00    +0.000 C 
ATOM     30  H   UNL     1      52.783   7.034  19.015  0.00  0.00    +0.000 HD
ENDBRANCH  23  24
ENDBRANCH  20  23
ENDBRANCH  16  17
ENDBRANCH   3  16
TORSDOF 5
ENDMDL
MODEL 4
REMARK VINA RESULT:    -7.095      4.177     10.071
REMARK INTER + INTRA:          -9.889
REMARK INTER:                  -8.734
REMARK INTRA:                  -1.155
REMARK UNBOUND:                -0.721
REMARK  Name = 
REMARK  5 active torsions:
REMARK  status: ('A' for Active; 'I' for Inactive)
REMARK    1  A    between atoms: C_2  and  C_18
REMARK    2  A    between atoms: N_3  and  C_4
REMARK    3  A    between atoms: C_4  and  C_5
REMARK    4  A    between atoms: C_8  and  C_9
REMARK    5  A    between atoms: C_9  and  C_10
REMARK                            x       y       z     vdW  Elec       q    Type
REMARK                         _______ _______ _______ _____ _____    ______ ____
ROOT
ATOM      1  O   UNL     1      47.804   7.192  12.406  0.00  0.00    +0.000 OA
ATOM      2  C   UNL     1      46.986   6.536  13.046  0.00  0.00    +0.000 C 
ATOM      3  N   UNL     1      47.231   6.162  14.349  0.00  0.00    +0.000 N 
ATOM      4  H   UNL     1      46.652   5.452  14.788  0.00  0.00    +0.000 HD
ENDROOT
BRANCH   2   5
ATOM      5  C   UNL     1      45.696   6.159  12.459  0.00  0.00    +0.000 A 
ATOM      6  C   UNL     1      44.911   7.135  11.862  0.00  0.00    +0.000 A 
ATOM      7  S   UNL     1      43.452   6.542  11.211  0.00  0.00    +0.000 S 
ATOM      8  C   UNL     1      43.836   4.950  11.663  0.00  0.00    +0.000 A 
ATOM      9  N   UNL     1      43.006   3.921  11.358  0.00  0.00    +0.000 NA
ATOM     10  C   UNL     1      43.436   2.762  11.722  0.00  0.00    +0.000 A 
ATOM     11  N   UNL     1      44.620   2.543  12.386  0.00  0.00    +0.000 N 
ATOM     12  C   UNL     1      45.474   3.562  12.749  0.00  0.00    +0.000 A 
ATOM     13  O   UNL     1      46.486   3.335  13.397  0.00  0.00    +0.000 OA
ATOM     14  C   UNL     1      45.045   4.878  12.335  0.00  0.00    +0.000 A 
ATOM     15  H   UNL     1      44.891   1.608  12.657  0.00  0.00    +0.000 HD
ENDBRANCH   2   5
BRANCH   3  16
ATOM     16  C   UNL     1      48.524   6.442  14.941  0.00  0.00    +0.000 C 
BRANCH  16  17
ATOM     17  C   UNL     1      48.685   5.852  16.321  0.00  0.00    +0.000 A 
ATOM     18  C   UNL     1      47.721   4.960  16.800  0.00  0.00    +0.000 A 
ATOM     19  C   UNL     1      47.826   4.411  18.083  0.00  0.00    +0.000 A 
ATOM     20  C   UNL     1      48.894   4.749  18.927  0.00  0.00    +0.000 A 
ATOM     21  C   UNL     1      49.864   5.631  18.438  0.00  0.00    +0.000 A 
ATOM     22  C   UNL     1      49.762   6.185  17.147  0.00  0.00    +0.000 A 
BRANCH  20  23
ATOM     23  C   UNL     1      48.887   4.284  20.367  0.00  0.00    +0.000 C 
BRANCH  23  24
ATOM     24  C   UNL     1      48.385   5.165  21.539  0.00  0.00    +0.000 C 
ATOM     25  C   UNL     1      47.201   6.076  21.217  0.00  0.00    +0.000 C 
ATOM     26  C   UNL     1      47.618   7.364  20.524  0.00  0.00    +0.000 C 
ATOM     27  C   UNL     1      48.816   8.051  21.184  0.00  0.00    +0.000 C 
ATOM     28  N   UNL     1      49.911   7.178  21.598  0.00  0.00    +0.000 NA
ATOM     29  C   UNL     1      49.461   5.965  22.282  0.00  0.00    +0.000 C 
ATOM     30  H   UNL     1      50.469   6.931  20.786  0.00  0.00    +0.000 HD
ENDBRANCH  23  24
ENDBRANCH  20  23
ENDBRANCH  16  17
ENDBRANCH   3  16
TORSDOF 5
ENDMDL
MODEL 5
REMARK VINA RESULT:    -7.073      4.146      6.780
REMARK INTER + INTRA:          -9.861
REMARK INTER:                  -8.979
REMARK INTRA:                  -0.883
REMARK UNBOUND:                -0.721
REMARK  Name = 
REMARK  5 active torsions:
REMARK  status: ('A' for Active; 'I' for Inactive)
REMARK    1  A    between atoms: C_2  and  C_18
REMARK    2  A    between atoms: N_3  and  C_4
REMARK    3  A    between atoms: C_4  and  C_5
REMARK    4  A    between atoms: C_8  and  C_9
REMARK    5  A    between atoms: C_9  and  C_10
REMARK                            x       y       z     vdW  Elec       q    Type
REMARK                         _______ _______ _______ _____ _____    ______ ____
ROOT
ATOM      1  O   UNL     1      51.689   6.086  16.536  0.00  0.00    +0.000 OA
ATOM      2  C   UNL     1      51.363   5.240  17.366  0.00  0.00    +0.000 C 
ATOM      3  N   UNL     1      50.067   5.152  17.826  0.00  0.00    +0.000 N 
ATOM      4  H   UNL     1      49.862   4.600  18.654  0.00  0.00    +0.000 HD
ENDROOT
BRANCH   2   5
ATOM      5  C   UNL     1      52.335   4.265  17.870  0.00  0.00    +0.000 A 
ATOM      6  C   UNL     1      53.461   4.715  18.544  0.00  0.00    +0.000 A 
ATOM      7  S   UNL     1      54.487   3.465  19.083  0.00  0.00    +0.000 S 
ATOM      8  C   UNL     1      53.440   2.273  18.474  0.00  0.00    +0.000 A 
ATOM      9  N   UNL     1      53.715   0.955  18.640  0.00  0.00    +0.000 NA
ATOM     10  C   UNL     1      52.820   0.158  18.167  0.00  0.00    +0.000 A 
ATOM     11  N   UNL     1      51.677   0.566  17.520  0.00  0.00    +0.000 N 
ATOM     12  C   UNL     1      51.378   1.892  17.295  0.00  0.00    +0.000 A 
ATOM     13  O   UNL     1      50.384   2.214  16.658  0.00  0.00    +0.000 OA
ATOM     14  C   UNL     1      52.342   2.823  17.835  0.00  0.00    +0.000 A 
ATOM     15  H   UNL     1      51.023  -0.114  17.159  0.00  0.00    +0.000 HD
ENDBRANCH   2   5
BRANCH   3  16
ATOM     16  C   UNL     1      49.095   6.146  17.418  0.00  0.00    +0.000 C 
BRANCH  16  17
ATOM     17  C   UNL     1      48.372   5.780  16.145  0.00  0.00    +0.000 A 
ATOM     18  C   UNL     1      48.466   6.627  15.037  0.00  0.00    +0.000 A 
ATOM     19  C   UNL     1      47.791   6.330  13.847  0.00  0.00    +0.000 A 
ATOM     20  C   UNL     1      46.993   5.181  13.738  0.00  0.00    +0.000 A 
ATOM     21  C   UNL     1      46.913   4.329  14.845  0.00  0.00    +0.000 A 
ATOM     22  C   UNL     1      47.592   4.624  16.044  0.00  0.00    +0.000 A 
BRANCH  20  23
ATOM     23  C   UNL     1      46.135   4.980  12.509  0.00  0.00    +0.000 C 
BRANCH  23  24
ATOM     24  C   UNL     1      44.864   4.092  12.498  0.00  0.00    +0.000 C 
ATOM     25  C   UNL     1      44.241   3.854  11.123  0.00  0.00    +0.000 C 
ATOM     26  C   UNL     1      43.353   5.003  10.670  0.00  0.00    +0.000 C 
ATOM     27  C   UNL     1      42.390   5.493  11.752  0.00  0.00    +0.000 C 
ATOM     28  N   UNL     1      42.944   5.621  13.097  0.00  0.00    +0.000 NA
ATOM     29  C   UNL     1      43.769   4.480  13.497  0.00  0.00    +0.000 C 
ATOM     30  H   UNL     1      43.486   6.479  13.157  0.00  0.00    +0.000 HD
ENDBRANCH  23  24
ENDBRANCH  20  23
ENDBRANCH  16  17
ENDBRANCH   3  16
TORSDOF 5
ENDMDL
MODEL 6
REMARK VINA RESULT:    -6.950      3.632      4.237
REMARK INTER + INTRA:          -9.703
REMARK INTER:                  -9.186
REMARK INTRA:                  -0.517
REMARK UNBOUND:                -0.721
REMARK  Name = 
REMARK  5 active torsions:
REMARK  status: ('A' for Active; 'I' for Inactive)
REMARK    1  A    between atoms: C_2  and  C_18
REMARK    2  A    between atoms: N_3  and  C_4
REMARK    3  A    between atoms: C_4  and  C_5
REMARK    4  A    between atoms: C_8  and  C_9
REMARK    5  A    between atoms: C_9  and  C_10
REMARK                            x       y       z     vdW  Elec       q    Type
REMARK                         _______ _______ _______ _____ _____    ______ ____
ROOT
ATOM      1  O   UNL     1      45.271   6.678  13.167  0.00  0.00    +0.000 OA
ATOM      2  C   UNL     1      44.895   7.446  12.284  0.00  0.00    +0.000 C 
ATOM      3  N   UNL     1      43.809   7.147  11.491  0.00  0.00    +0.000 N 
ATOM      4  H   UNL     1      43.643   7.679  10.642  0.00  0.00    +0.000 HD
ENDROOT
BRANCH   2   5
ATOM      5  C   UNL     1      45.568   8.731  12.067  0.00  0.00    +0.000 A 
ATOM      6  C   UNL     1      44.807   9.887  11.973  0.00  0.00    +0.000 A 
ATOM      7  S   UNL     1      45.730  11.301  11.737  0.00  0.00    +0.000 S 
ATOM      8  C   UNL     1      47.184  10.424  11.799  0.00  0.00    +0.000 A 
ATOM      9  N   UNL     1      48.382  11.055  11.701  0.00  0.00    +0.000 NA
ATOM     10  C   UNL     1      49.405  10.279  11.804  0.00  0.00    +0.000 A 
ATOM     11  N   UNL     1      49.335   8.917  11.976  0.00  0.00    +0.000 N 
ATOM     12  C   UNL     1      48.142   8.230  12.041  0.00  0.00    +0.000 A 
ATOM     13  O   UNL     1      48.121   7.011  12.128  0.00  0.00    +0.000 OA
ATOM     14  C   UNL     1      46.966   9.066  11.959  0.00  0.00    +0.000 A 
ATOM     15  H   UNL     1      50.179   8.364  12.033  0.00  0.00    +0.000 HD
ENDBRANCH   2   5
BRANCH   3  16
ATOM     16  C   UNL     1      43.167   5.854  11.616  0.00  0.00    +0.000 C 
BRANCH  16  17
ATOM     17  C   UNL     1      43.820   4.784  10.775  0.00  0.00    +0.000 A 
ATOM     18  C   UNL     1      44.592   5.158   9.672  0.00  0.00    +0.000 A 
ATOM     19  C   UNL     1      45.194   4.193   8.857  0.00  0.00    +0.000 A 
ATOM     20  C   UNL     1      45.031   2.824   9.118  0.00  0.00    +0.000 A 
ATOM     21  C   UNL     1      44.268   2.455  10.233  0.00  0.00    +0.000 A 
ATOM     22  C   UNL     1      43.662   3.424  11.056  0.00  0.00    +0.000 A 
BRANCH  20  23
ATOM     23  C   UNL     1      45.539   1.806   8.123  0.00  0.00    +0.000 C 
BRANCH  23  24
ATOM     24  C   UNL     1      46.992   1.800   7.582  0.00  0.00    +0.000 C 
ATOM     25  C   UNL     1      47.374   2.997   6.711  0.00  0.00    +0.000 C 
ATOM     26  C   UNL     1      46.914   2.848   5.269  0.00  0.00    +0.000 C 
ATOM     27  C   UNL     1      47.221   1.474   4.670  0.00  0.00    +0.000 C 
ATOM     28  N   UNL     1      46.965   0.324   5.532  0.00  0.00    +0.000 NA
ATOM     29  C   UNL     1      47.448   0.504   6.902  0.00  0.00    +0.000 C 
ATOM     30  H   UNL     1      45.968   0.125   5.539  0.00  0.00    +0.000 HD
ENDBRANCH  23  24
ENDBRANCH  20  23
ENDBRANCH  16  17
ENDBRANCH   3  16
TORSDOF 5
ENDMDL
MODEL 7
REMARK VINA RESULT:    -6.911      4.526      5.985
REMARK INTER + INTRA:          -9.652
REMARK INTER:                  -8.979
REMARK INTRA:                  -0.673
REMARK UNBOUND:                -0.721
REMARK  Name = 
REMARK  5 active torsions:
REMARK  status: ('A' for Active; 'I' for Inactive)
REMARK    1  A    between atoms: C_2  and  C_18
REMARK    2  A    between atoms: N_3  and  C_4
REMARK    3  A    between atoms: C_4  and  C_5
REMARK    4  A    between atoms: C_8  and  C_9
REMARK    5  A    between atoms: C_9  and  C_10
REMARK                            x       y       z     vdW  Elec       q    Type
REMARK                         _______ _______ _______ _____ _____    ______ ____
ROOT
ATOM      1  O   UNL     1      45.433   8.198  13.197  0.00  0.00    +0.000 OA
ATOM      2  C   UNL     1      44.948   8.487  12.105  0.00  0.00    +0.000 C 
ATOM      3  N   UNL     1      44.174   7.586  11.406  0.00  0.00    +0.000 N 
ATOM      4  H   UNL     1      43.960   7.757  10.428  0.00  0.00    +0.000 HD
ENDROOT
BRANCH   2   5
ATOM      5  C   UNL     1      45.142   9.818  11.522  0.00  0.00    +0.000 A 
ATOM      6  C   UNL     1      46.386  10.425  11.614  0.00  0.00    +0.000 A 
ATOM      7  S   UNL     1      46.460  11.960  10.877  0.00  0.00    +0.000 S 
ATOM      8  C   UNL     1      44.843  11.851  10.368  0.00  0.00    +0.000 A 
ATOM      9  N   UNL     1      44.277  12.841   9.632  0.00  0.00    +0.000 NA
ATOM     10  C   UNL     1      43.059  12.614   9.278  0.00  0.00    +0.000 A 
ATOM     11  N   UNL     1      42.347  11.487   9.613  0.00  0.00    +0.000 N 
ATOM     12  C   UNL     1      42.869  10.476  10.391  0.00  0.00    +0.000 A 
ATOM     13  O   UNL     1      42.183   9.519  10.724  0.00  0.00    +0.000 OA
ATOM     14  C   UNL     1      44.244  10.675  10.788  0.00  0.00    +0.000 A 
ATOM     15  H   UNL     1      41.388  11.379   9.315  0.00  0.00    +0.000 HD
ENDBRANCH   2   5
BRANCH   3  16
ATOM     16  C   UNL     1      44.025   6.234  11.905  0.00  0.00    +0.000 C 
BRANCH  16  17
ATOM     17  C   UNL     1      44.381   5.182  10.883  0.00  0.00    +0.000 A 
ATOM     18  C   UNL     1      43.848   3.896  11.011  0.00  0.00    +0.000 A 
ATOM     19  C   UNL     1      44.173   2.890  10.094  0.00  0.00    +0.000 A 
ATOM     20  C   UNL     1      45.051   3.141   9.029  0.00  0.00    +0.000 A 
ATOM     21  C   UNL     1      45.570   4.434   8.896  0.00  0.00    +0.000 A 
ATOM     22  C   UNL     1      45.244   5.449   9.816  0.00  0.00    +0.000 A 
BRANCH  20  23
ATOM     23  C   UNL     1      45.524   1.995   8.163  0.00  0.00    +0.000 C 
BRANCH  23  24
ATOM     24  C   UNL     1      46.984   1.859   7.661  0.00  0.00    +0.000 C 
ATOM     25  C   UNL     1      47.450   2.944   6.691  0.00  0.00    +0.000 C 
ATOM     26  C   UNL     1      47.010   2.685   5.259  0.00  0.00    +0.000 C 
ATOM     27  C   UNL     1      47.250   1.246   4.798  0.00  0.00    +0.000 C 
ATOM     28  N   UNL     1      46.912   0.198   5.758  0.00  0.00    +0.000 NA
ATOM     29  C   UNL     1      47.378   0.481   7.116  0.00  0.00    +0.000 C 
ATOM     30  H   UNL     1      45.906   0.055   5.760  0.00  0.00    +0.000 HD
ENDBRANCH  23  24
ENDBRANCH  20  23
ENDBRANCH  16  17
ENDBRANCH   3  16
TORSDOF 5
ENDMDL
MODEL 8
REMARK VINA RESULT:    -6.899      3.643     10.417
REMARK INTER + INTRA:          -9.637
REMARK INTER:                  -8.485
REMARK INTRA:                  -1.151
REMARK UNBOUND:                -0.721
REMARK  Name = 
REMARK  5 active torsions:
REMARK  status: ('A' for Active; 'I' for Inactive)
REMARK    1  A    between atoms: C_2  and  C_18
REMARK    2  A    between atoms: N_3  and  C_4
REMARK    3  A    between atoms: C_4  and  C_5
REMARK    4  A    between atoms: C_8  and  C_9
REMARK    5  A    between atoms: C_9  and  C_10
REMARK                            x       y       z     vdW  Elec       q    Type
REMARK                         _______ _______ _______ _____ _____    ______ ____
ROOT
ATOM      1  O   UNL     1      48.555   6.138  14.061  0.00  0.00    +0.000 OA
ATOM      2  C   UNL     1      47.432   5.656  14.191  0.00  0.00    +0.000 C 
ATOM      3  N   UNL     1      47.101   4.902  15.296  0.00  0.00    +0.000 N 
ATOM      4  H   UNL     1      46.254   4.342  15.289  0.00  0.00    +0.000 HD
ENDROOT
BRANCH   2   5
ATOM      5  C   UNL     1      46.387   5.898  13.190  0.00  0.00    +0.000 A 
ATOM      6  C   UNL     1      46.105   7.201  12.806  0.00  0.00    +0.000 A 
ATOM      7  S   UNL     1      44.880   7.320  11.627  0.00  0.00    +0.000 S 
ATOM      8  C   UNL     1      44.715   5.631  11.552  0.00  0.00    +0.000 A 
ATOM      9  N   UNL     1      43.841   5.055  10.688  0.00  0.00    +0.000 NA
ATOM     10  C   UNL     1      43.844   3.766  10.705  0.00  0.00    +0.000 A 
ATOM     11  N   UNL     1      44.634   2.999  11.528  0.00  0.00    +0.000 N 
ATOM     12  C   UNL     1      45.506   3.542  12.448  0.00  0.00    +0.000 A 
ATOM     13  O   UNL     1      46.143   2.828  13.209  0.00  0.00    +0.000 OA
ATOM     14  C   UNL     1      45.556   4.986  12.444  0.00  0.00    +0.000 A 
ATOM     15  H   UNL     1      44.575   1.991  11.502  0.00  0.00    +0.000 HD
ENDBRANCH   2   5
BRANCH   3  16
ATOM     16  C   UNL     1      48.125   4.570  16.267  0.00  0.00    +0.000 C 
BRANCH  16  17
ATOM     17  C   UNL     1      48.083   5.446  17.495  0.00  0.00    +0.000 A 
ATOM     18  C   UNL     1      49.093   6.393  17.695  0.00  0.00    +0.000 A 
ATOM     19  C   UNL     1      49.098   7.207  18.832  0.00  0.00    +0.000 A 
ATOM     20  C   UNL     1      48.098   7.088  19.810  0.00  0.00    +0.000 A 
ATOM     21  C   UNL     1      47.082   6.149  19.599  0.00  0.00    +0.000 A 
ATOM     22  C   UNL     1      47.073   5.329  18.454  0.00  0.00    +0.000 A 
BRANCH  20  23
ATOM     23  C   UNL     1      48.228   7.850  21.110  0.00  0.00    +0.000 C 
BRANCH  23  24
ATOM     24  C   UNL     1      47.757   9.316  21.284  0.00  0.00    +0.000 C 
ATOM     25  C   UNL     1      46.765   9.818  20.235  0.00  0.00    +0.000 C 
ATOM     26  C   UNL     1      47.443  10.265  18.949  0.00  0.00    +0.000 C 
ATOM     27  C   UNL     1      48.662  11.160  19.181  0.00  0.00    +0.000 C 
ATOM     28  N   UNL     1      49.563  10.754  20.256  0.00  0.00    +0.000 NA
ATOM     29  C   UNL     1      48.865  10.356  21.481  0.00  0.00    +0.000 C 
ATOM     30  H   UNL     1      50.153   9.992  19.931  0.00  0.00    +0.000 HD
ENDBRANCH  23  24
ENDBRANCH  20  23
ENDBRANCH  16  17
ENDBRANCH   3  16
TORSDOF 5
ENDMDL
MODEL 9
REMARK VINA RESULT:    -6.783      4.809      7.819
REMARK INTER + INTRA:          -9.486
REMARK INTER:                  -8.577
REMARK INTRA:                  -0.909
REMARK UNBOUND:                -0.721
REMARK  Name = 
REMARK  5 active torsions:
REMARK  status: ('A' for Active; 'I' for Inactive)
REMARK    1  A    between atoms: C_2  and  C_18
REMARK    2  A    between atoms: N_3  and  C_4
REMARK    3  A    between atoms: C_4  and  C_5
REMARK    4  A    between atoms: C_8  and  C_9
REMARK    5  A    between atoms: C_9  and  C_10
REMARK                            x       y       z     vdW  Elec       q    Type
REMARK                         _______ _______ _______ _____ _____    ______ ____
ROOT
ATOM      1  O   UNL     1      44.687   7.646  11.061  0.00  0.00    +0.000 OA
ATOM      2  C   UNL     1      45.127   6.736  11.760  0.00  0.00    +0.000 C 
ATOM      3  N   UNL     1      46.028   6.984  12.772  0.00  0.00    +0.000 N 
ATOM      4  H   UNL     1      46.537   6.213  13.194  0.00  0.00    +0.000 HD
ENDROOT
BRANCH   2   5
ATOM      5  C   UNL     1      44.679   5.353  11.566  0.00  0.00    +0.000 A 
ATOM      6  C   UNL     1      43.936   4.735  12.562  0.00  0.00    +0.000 A 
ATOM      7  S   UNL     1      43.475   3.138  12.186  0.00  0.00    +0.000 S 
ATOM      8  C   UNL     1      44.213   3.229  10.659  0.00  0.00    +0.000 A 
ATOM      9  N   UNL     1      44.151   2.186   9.793  0.00  0.00    +0.000 NA
ATOM     10  C   UNL     1      44.716   2.402   8.655  0.00  0.00    +0.000 A 
ATOM     11  N   UNL     1      45.359   3.568   8.313  0.00  0.00    +0.000 N 
ATOM     12  C   UNL     1      45.480   4.636   9.174  0.00  0.00    +0.000 A 
ATOM     13  O   UNL     1      46.117   5.631   8.858  0.00  0.00    +0.000 OA
ATOM     14  C   UNL     1      44.836   4.449  10.454  0.00  0.00    +0.000 A 
ATOM     15  H   UNL     1      45.796   3.665   7.407  0.00  0.00    +0.000 HD
ENDBRANCH   2   5
BRANCH   3  16
ATOM     16  C   UNL     1      46.559   8.321  12.944  0.00  0.00    +0.000 C 
BRANCH  16  17
ATOM     17  C   UNL     1      47.949   8.484  12.379  0.00  0.00    +0.000 A 
ATOM     18  C   UNL     1      48.788   7.369  12.295  0.00  0.00    +0.000 A 
ATOM     19  C   UNL     1      50.090   7.487  11.796  0.00  0.00    +0.000 A 
ATOM     20  C   UNL     1      50.593   8.728  11.378  0.00  0.00    +0.000 A 
ATOM     21  C   UNL     1      49.745   9.839  11.451  0.00  0.00    +0.000 A 
ATOM     22  C   UNL     1      48.433   9.724  11.951  0.00  0.00    +0.000 A 
BRANCH  20  23
ATOM     23  C   UNL     1      52.056   8.860  11.015  0.00  0.00    +0.000 C 
BRANCH  23  24
ATOM     24  C   UNL     1      52.620   8.487   9.621  0.00  0.00    +0.000 C 
ATOM     25  C   UNL     1      52.348   7.055   9.162  0.00  0.00    +0.000 C 
ATOM     26  C   UNL     1      53.329   6.051   9.747  0.00  0.00    +0.000 C 
ATOM     27  C   UNL     1      54.788   6.503   9.660  0.00  0.00    +0.000 C 
ATOM     28  N   UNL     1      55.050   7.901   9.989  0.00  0.00    +0.000 NA
ATOM     29  C   UNL     1      54.095   8.830   9.383  0.00  0.00    +0.000 C 
ATOM     30  H   UNL     1      55.050   8.014  10.999  0.00  0.00    +0.000 HD
ENDBRANCH  23  24
ENDBRANCH  20  23
ENDBRANCH  16  17
ENDBRANCH   3  16
TORSDOF 5
ENDMDL
