MODEL 1
REMARK VINA RESULT:    -7.311      0.000      0.000
REMARK INTER + INTRA:         -11.731
REMARK INTER:                 -10.517
REMARK INTRA:                  -1.214
REMARK UNBOUND:                -1.214
REMARK  Name = 
REMARK  10 active torsions:
REMARK  status: ('A' for Active; 'I' for Inactive)
REMARK    1  A    between atoms: C_1  and  C_2
REMARK    2  A    between atoms: C_2  and  C_3
REMARK    3  A    between atoms: C_3  and  C_4
REMARK    4  A    between atoms: C_3  and  O_13
REMARK    5  A    between atoms: C_4  and  C_5
REMARK    6  A    between atoms: C_9  and  C_10
REMARK    7  A    between atoms: C_10  and  N_11
REMARK    8  A    between atoms: O_13  and  C_14
REMARK    9  A    between atoms: C_17  and  C_18
REMARK   10  A    between atoms: C_21  and  C_22
REMARK                            x       y       z     vdW  Elec       q    Type
REMARK                         _______ _______ _______ _____ _____    ______ ____
ROOT
ATOM      1  C   UNL     1      44.286   3.690  11.314  0.00  0.00    +0.000 C 
ENDROOT
BRANCH   1   3
ATOM      2  C   UNL     1      42.484   5.513  11.766  0.00  0.00    +0.000 C 
ATOM      3  C   UNL     1      42.858   4.035  11.795  0.00  0.00    +0.000 C 
ENDBRANCH   1   3
BRANCH   1   4
ATOM      4  C   UNL     1      44.259   2.566  10.247  0.00  0.00    +0.000 C 
BRANCH   4   5
ATOM      5  C   UNL     1      45.167   2.875   9.077  0.00  0.00    +0.000 A 
ATOM      6  C   UNL     1      45.402   4.194   8.673  0.00  0.00    +0.000 A 
ATOM      7  C   UNL     1      46.347   4.468   7.684  0.00  0.00    +0.000 A 
ATOM      8  C   UNL     1      47.037   3.426   7.068  0.00  0.00    +0.000 A 
ATOM      9  C   UNL     1      46.759   2.093   7.399  0.00  0.00    +0.000 A 
ATOM     10  C   UNL     1      45.834   1.831   8.418  0.00  0.00    +0.000 A 
BRANCH   9  11
ATOM     11  C   UNL     1      47.455   0.961   6.688  0.00  0.00    +0.000 C 
BRANCH  11  12
ATOM     12  N   UNL     1      48.240   1.446   5.557  0.00  0.00    +0.000 NA
ATOM     13  H   UNL     1      48.773   0.666   5.177  0.00  0.00    +0.000 HD
ATOM     14  H   UNL     1      48.917   2.128   5.888  0.00  0.00    +0.000 HD
ENDBRANCH  11  12
ENDBRANCH   9  11
ENDBRANCH   4   5
ENDBRANCH   1   4
BRANCH   1  15
ATOM     15  O   UNL     1      45.102   3.268  12.421  0.00  0.00    +0.000 OA
BRANCH  15  16
ATOM     16  C   UNL     1      45.916   4.177  13.044  0.00  0.00    +0.000 A 
ATOM     17  C   UNL     1      46.491   4.046  14.303  0.00  0.00    +0.000 A 
ATOM     18  C   UNL     1      47.355   5.033  14.790  0.00  0.00    +0.000 A 
ATOM     19  C   UNL     1      47.682   6.167  14.025  0.00  0.00    +0.000 A 
ATOM     20  C   UNL     1      47.144   6.292  12.734  0.00  0.00    +0.000 A 
ATOM     21  C   UNL     1      47.532   7.378  11.772  0.00  0.00    +0.000 C 
ATOM     22  C   UNL     1      46.218   5.319  12.289  0.00  0.00    +0.000 A 
BRANCH  19  23
ATOM     23  C   UNL     1      48.660   7.110  14.649  0.00  0.00    +0.000 C 
ATOM     24  N   UNL     1      48.168   8.210  15.293  0.00  0.00    +0.000 N 
ATOM     25  O   UNL     1      49.860   6.884  14.632  0.00  0.00    +0.000 OA
ATOM     26  H   UNL     1      47.190   8.334  15.507  0.00  0.00    +0.000 HD
ATOM     27  H   UNL     1      48.844   8.778  15.789  0.00  0.00    +0.000 HD
ENDBRANCH  19  23
ENDBRANCH  15  16
ENDBRANCH   1  15
TORSDOF 8
ENDMDL
MODEL 2
REMARK VINA RESULT:    -7.041      2.650      7.159
REMARK INTER + INTRA:         -11.342
REMARK INTER:                 -10.441
REMARK INTRA:                  -0.900
REMARK UNBOUND:                -1.214
REMARK  Name = 
REMARK  10 active torsions:
REMARK  status: ('A' for Active; 'I' for Inactive)
REMARK    1  A    between atoms: C_1  and  C_2
REMARK    2  A    between atoms: C_2  and  C_3
REMARK    3  A    between atoms: C_3  and  C_4
REMARK    4  A    between atoms: C_3  and  O_13
REMARK    5  A    between atoms: C_4  and  C_5
REMARK    6  A    between atoms: C_9  and  C_10
REMARK    7  A    between atoms: C_10  and  N_11
REMARK    8  A    between atoms: O_13  and  C_14
REMARK    9  A    between atoms: C_17  and  C_18
REMARK   10  A    between atoms: C_21  and  C_22
REMARK                            x       y       z     vdW  Elec       q    Type
REMARK                         _______ _______ _______ _____ _____    ______ ____
ROOT
ATOM      1  C   UNL     1      44.570   4.170  11.345  0.00  0.00    +0.000 C 
ENDROOT
BRANCH   1   3
ATOM      2  C   UNL     1      42.939   4.637  13.319  0.00  0.00    +0.000 C 
ATOM      3  C   UNL     1      43.977   3.709  12.696  0.00  0.00    +0.000 C 
ENDBRANCH   1   3
BRANCH   1   4
ATOM      4  C   UNL     1      44.144   5.623  11.015  0.00  0.00    +0.000 C 
BRANCH   4   5
ATOM      5  C   UNL     1      45.184   6.631  11.449  0.00  0.00    +0.000 A 
ATOM      6  C   UNL     1      46.523   6.259  11.623  0.00  0.00    +0.000 A 
ATOM      7  C   UNL     1      47.492   7.226  11.888  0.00  0.00    +0.000 A 
ATOM      8  C   UNL     1      47.127   8.566  12.016  0.00  0.00    +0.000 A 
ATOM      9  C   UNL     1      45.783   8.950  11.926  0.00  0.00    +0.000 A 
ATOM     10  C   UNL     1      44.822   7.975  11.625  0.00  0.00    +0.000 A 
BRANCH   9  11
ATOM     11  C   UNL     1      45.376  10.386  12.131  0.00  0.00    +0.000 C 
BRANCH  11  12
ATOM     12  N   UNL     1      43.925  10.540  12.084  0.00  0.00    +0.000 NA
ATOM     13  H   UNL     1      43.503   9.614  12.051  0.00  0.00    +0.000 HD
ATOM     14  H   UNL     1      43.666  11.008  11.220  0.00  0.00    +0.000 HD
ENDBRANCH  11  12
ENDBRANCH   9  11
ENDBRANCH   4   5
ENDBRANCH   1   4
BRANCH   1  15
ATOM     15  O   UNL     1      44.138   3.300  10.284  0.00  0.00    +0.000 OA
BRANCH  15  16
ATOM     16  C   UNL     1      44.931   3.142   9.178  0.00  0.00    +0.000 A 
ATOM     17  C   UNL     1      45.425   4.154   8.363  0.00  0.00    +0.000 A 
ATOM     18  C   UNL     1      46.279   3.850   7.297  0.00  0.00    +0.000 A 
ATOM     19  C   UNL     1      46.676   2.527   7.029  0.00  0.00    +0.000 A 
ATOM     20  C   UNL     1      46.221   1.498   7.870  0.00  0.00    +0.000 A 
ATOM     21  C   UNL     1      46.691   0.076   7.773  0.00  0.00    +0.000 C 
ATOM     22  C   UNL     1      45.303   1.820   8.898  0.00  0.00    +0.000 A 
BRANCH  19  23
ATOM     23  C   UNL     1      47.634   2.355   5.894  0.00  0.00    +0.000 C 
ATOM     24  N   UNL     1      48.970   2.477   6.157  0.00  0.00    +0.000 N 
ATOM     25  O   UNL     1      47.245   2.063   4.774  0.00  0.00    +0.000 OA
ATOM     26  H   UNL     1      49.347   2.515   7.091  0.00  0.00    +0.000 HD
ATOM     27  H   UNL     1      49.598   2.259   5.393  0.00  0.00    +0.000 HD
ENDBRANCH  19  23
ENDBRANCH  15  16
ENDBRANCH   1  15
TORSDOF 8
ENDMDL
MODEL 3
REMARK VINA RESULT:    -6.948      2.197      6.935
REMARK INTER + INTRA:         -11.208
REMARK INTER:                 -10.379
REMARK INTRA:                  -0.829
REMARK UNBOUND:                -1.214
REMARK  Name = 
REMARK  10 active torsions:
REMARK  status: ('A' for Active; 'I' for Inactive)
REMARK    1  A    between atoms: C_1  and  C_2
REMARK    2  A    between atoms: C_2  and  C_3
REMARK    3  A    between atoms: C_3  and  C_4
REMARK    4  A    between atoms: C_3  and  O_13
REMARK    5  A    between atoms: C_4  and  C_5
REMARK    6  A    between atoms: C_9  and  C_10
REMARK    7  A    between atoms: C_10  and  N_11
REMARK    8  A    between atoms: O_13  and  C_14
REMARK    9  A    between atoms: C_17  and  C_18
REMARK   10  A    between atoms: C_21  and  C_22
REMARK                            x       y       z     vdW  Elec       q    Type
REMARK                         _______ _______ _______ _____ _____    ______ ____
ROOT
ATOM      1  C   UNL     1      44.637   3.908  11.469  0.00  0.00    +0.000 C 
ENDROOT
BRANCH   1   3
ATOM      2  C   UNL     1      42.908   4.571  13.298  0.00  0.00    +0.000 C 
ATOM      3  C   UNL     1      43.718   3.465  12.629  0.00  0.00    +0.000 C 
ENDBRANCH   1   3
BRANCH   1   4
ATOM      4  C   UNL     1      44.843   5.444  11.476  0.00  0.00    +0.000 C 
BRANCH   4   5
ATOM      5  C   UNL     1      46.144   5.838  12.139  0.00  0.00    +0.000 A 
ATOM      6  C   UNL     1      47.010   6.761  11.542  0.00  0.00    +0.000 A 
ATOM      7  C   UNL     1      48.135   7.216  12.229  0.00  0.00    +0.000 A 
ATOM      8  C   UNL     1      48.421   6.729  13.503  0.00  0.00    +0.000 A 
ATOM      9  C   UNL     1      47.613   5.745  14.088  0.00  0.00    +0.000 A 
ATOM     10  C   UNL     1      46.466   5.320  13.403  0.00  0.00    +0.000 A 
BRANCH   9  11
ATOM     11  C   UNL     1      47.956   5.167  15.436  0.00  0.00    +0.000 C 
BRANCH  11  12
ATOM     12  N   UNL     1      46.824   4.444  16.009  0.00  0.00    +0.000 NA
ATOM     13  H   UNL     1      46.337   5.065  16.651  0.00  0.00    +0.000 HD
ATOM     14  H   UNL     1      47.172   3.666  16.564  0.00  0.00    +0.000 HD
ENDBRANCH  11  12
ENDBRANCH   9  11
ENDBRANCH   4   5
ENDBRANCH   1   4
BRANCH   1  15
ATOM     15  O   UNL     1      44.075   3.515  10.204  0.00  0.00    +0.000 OA
BRANCH  15  16
ATOM     16  C   UNL     1      44.905   3.311   9.133  0.00  0.00    +0.000 A 
ATOM     17  C   UNL     1      45.475   4.292   8.329  0.00  0.00    +0.000 A 
ATOM     18  C   UNL     1      46.357   3.940   7.302  0.00  0.00    +0.000 A 
ATOM     19  C   UNL     1      46.708   2.599   7.063  0.00  0.00    +0.000 A 
ATOM     20  C   UNL     1      46.176   1.600   7.894  0.00  0.00    +0.000 A 
ATOM     21  C   UNL     1      46.587   0.158   7.830  0.00  0.00    +0.000 C 
ATOM     22  C   UNL     1      45.231   1.972   8.881  0.00  0.00    +0.000 A 
BRANCH  19  23
ATOM     23  C   UNL     1      47.702   2.374   5.970  0.00  0.00    +0.000 C 
ATOM     24  N   UNL     1      49.025   2.568   6.255  0.00  0.00    +0.000 N 
ATOM     25  O   UNL     1      47.356   1.978   4.868  0.00  0.00    +0.000 OA
ATOM     26  H   UNL     1      49.374   2.696   7.192  0.00  0.00    +0.000 HD
ATOM     27  H   UNL     1      49.682   2.314   5.527  0.00  0.00    +0.000 HD
ENDBRANCH  19  23
ENDBRANCH  15  16
ENDBRANCH   1  15
TORSDOF 8
ENDMDL
MODEL 4
REMARK VINA RESULT:    -6.898      2.298      6.949
REMARK INTER + INTRA:         -11.136
REMARK INTER:                 -10.187
REMARK INTRA:                  -0.949
REMARK UNBOUND:                -1.214
REMARK  Name = 
REMARK  10 active torsions:
REMARK  status: ('A' for Active; 'I' for Inactive)
REMARK    1  A    between atoms: C_1  and  C_2
REMARK    2  A    between atoms: C_2  and  C_3
REMARK    3  A    between atoms: C_3  and  C_4
REMARK    4  A    between atoms: C_3  and  O_13
REMARK    5  A    between atoms: C_4  and  C_5
REMARK    6  A    between atoms: C_9  and  C_10
REMARK    7  A    between atoms: C_10  and  N_11
REMARK    8  A    between atoms: O_13  and  C_14
REMARK    9  A    between atoms: C_17  and  C_18
REMARK   10  A    between atoms: C_21  and  C_22
REMARK                            x       y       z     vdW  Elec       q    Type
REMARK                         _______ _______ _______ _____ _____    ______ ____
ROOT
ATOM      1  C   UNL     1      45.079   4.550  11.481  0.00  0.00    +0.000 C 
ENDROOT
BRANCH   1   3
ATOM      2  C   UNL     1      46.266   4.175  13.767  0.00  0.00    +0.000 C 
ATOM      3  C   UNL     1      45.029   3.947  12.903  0.00  0.00    +0.000 C 
ENDBRANCH   1   3
BRANCH   1   4
ATOM      4  C   UNL     1      44.333   5.908  11.424  0.00  0.00    +0.000 C 
BRANCH   4   5
ATOM      5  C   UNL     1      45.274   7.079  11.598  0.00  0.00    +0.000 A 
ATOM      6  C   UNL     1      44.787   8.385  11.732  0.00  0.00    +0.000 A 
ATOM      7  C   UNL     1      45.657   9.433  12.029  0.00  0.00    +0.000 A 
ATOM      8  C   UNL     1      47.024   9.190  12.161  0.00  0.00    +0.000 A 
ATOM      9  C   UNL     1      47.544   7.907  11.952  0.00  0.00    +0.000 A 
ATOM     10  C   UNL     1      46.656   6.855  11.688  0.00  0.00    +0.000 A 
BRANCH   9  11
ATOM     11  C   UNL     1      49.027   7.654  12.028  0.00  0.00    +0.000 C 
BRANCH  11  12
ATOM     12  N   UNL     1      49.329   6.513  12.887  0.00  0.00    +0.000 NA
ATOM     13  H   UNL     1      49.078   5.660  12.391  0.00  0.00    +0.000 HD
ATOM     14  H   UNL     1      48.739   6.553  13.715  0.00  0.00    +0.000 HD
ENDBRANCH  11  12
ENDBRANCH   9  11
ENDBRANCH   4   5
ENDBRANCH   1   4
BRANCH   1  15
ATOM     15  O   UNL     1      44.485   3.648  10.531  0.00  0.00    +0.000 OA
BRANCH  15  16
ATOM     16  C   UNL     1      45.120   3.410   9.340  0.00  0.00    +0.000 A 
ATOM     17  C   UNL     1      45.554   4.367   8.429  0.00  0.00    +0.000 A 
ATOM     18  C   UNL     1      46.247   3.981   7.276  0.00  0.00    +0.000 A 
ATOM     19  C   UNL     1      46.541   2.631   7.013  0.00  0.00    +0.000 A 
ATOM     20  C   UNL     1      46.148   1.657   7.945  0.00  0.00    +0.000 A 
ATOM     21  C   UNL     1      46.529   0.208   7.846  0.00  0.00    +0.000 C 
ATOM     22  C   UNL     1      45.387   2.062   9.068  0.00  0.00    +0.000 A 
BRANCH  19  23
ATOM     23  C   UNL     1      47.334   2.370   5.773  0.00  0.00    +0.000 C 
ATOM     24  N   UNL     1      48.697   2.405   5.863  0.00  0.00    +0.000 N 
ATOM     25  O   UNL     1      46.789   2.081   4.719  0.00  0.00    +0.000 OA
ATOM     26  H   UNL     1      49.191   2.438   6.742  0.00  0.00    +0.000 HD
ATOM     27  H   UNL     1      49.208   2.129   5.034  0.00  0.00    +0.000 HD
ENDBRANCH  19  23
ENDBRANCH  15  16
ENDBRANCH   1  15
TORSDOF 8
ENDMDL
MODEL 5
REMARK VINA RESULT:    -6.781      1.186      1.979
REMARK INTER + INTRA:         -10.967
REMARK INTER:                  -9.968
REMARK INTRA:                  -0.999
REMARK UNBOUND:                -1.214
REMARK  Name = 
REMARK  10 active torsions:
REMARK  status: ('A' for Active; 'I' for Inactive)
REMARK    1  A    between atoms: C_1  and  C_2
REMARK    2  A    between atoms: C_2  and  C_3
REMARK    3  A    between atoms: C_3  and  C_4
REMARK    4  A    between atoms: C_3  and  O_13
REMARK    5  A    between atoms: C_4  and  C_5
REMARK    6  A    between atoms: C_9  and  C_10
REMARK    7  A    between atoms: C_10  and  N_11
REMARK    8  A    between atoms: O_13  and  C_14
REMARK    9  A    between atoms: C_17  and  C_18
REMARK   10  A    between atoms: C_21  and  C_22
REMARK                            x       y       z     vdW  Elec       q    Type
REMARK                         _______ _______ _______ _____ _____    ______ ____
ROOT
ATOM      1  C   UNL     1      44.613   4.011  11.879  0.00  0.00    +0.000 C 
ENDROOT
BRANCH   1   3
ATOM      2  C   UNL     1      42.406   5.380  11.713  0.00  0.00    +0.000 C 
ATOM      3  C   UNL     1      43.357   4.568  12.586  0.00  0.00    +0.000 C 
ENDBRANCH   1   3
BRANCH   1   4
ATOM      4  C   UNL     1      44.232   2.947  10.818  0.00  0.00    +0.000 C 
BRANCH   4   5
ATOM      5  C   UNL     1      45.016   3.121   9.536  0.00  0.00    +0.000 A 
ATOM      6  C   UNL     1      45.227   4.389   8.984  0.00  0.00    +0.000 A 
ATOM      7  C   UNL     1      46.066   4.545   7.880  0.00  0.00    +0.000 A 
ATOM      8  C   UNL     1      46.672   3.431   7.300  0.00  0.00    +0.000 A 
ATOM      9  C   UNL     1      46.411   2.144   7.786  0.00  0.00    +0.000 A 
ATOM     10  C   UNL     1      45.594   2.002   8.916  0.00  0.00    +0.000 A 
BRANCH   9  11
ATOM     11  C   UNL     1      47.010   0.932   7.120  0.00  0.00    +0.000 C 
BRANCH  11  12
ATOM     12  N   UNL     1      46.675  -0.292   7.842  0.00  0.00    +0.000 NA
ATOM     13  H   UNL     1      45.662  -0.392   7.853  0.00  0.00    +0.000 HD
ATOM     14  H   UNL     1      46.968  -0.199   8.811  0.00  0.00    +0.000 HD
ENDBRANCH  11  12
ENDBRANCH   9  11
ENDBRANCH   4   5
ENDBRANCH   1   4
BRANCH   1  15
ATOM     15  O   UNL     1      45.509   3.419  12.837  0.00  0.00    +0.000 OA
BRANCH  15  16
ATOM     16  C   UNL     1      46.398   4.216  13.509  0.00  0.00    +0.000 A 
ATOM     17  C   UNL     1      46.869   5.459  13.099  0.00  0.00    +0.000 A 
ATOM     18  C   UNL     1      47.732   6.193  13.920  0.00  0.00    +0.000 A 
ATOM     19  C   UNL     1      48.132   5.713  15.180  0.00  0.00    +0.000 A 
ATOM     20  C   UNL     1      47.631   4.480  15.627  0.00  0.00    +0.000 A 
ATOM     21  C   UNL     1      47.870   3.936  17.006  0.00  0.00    +0.000 C 
ATOM     22  C   UNL     1      46.816   3.723  14.752  0.00  0.00    +0.000 A 
BRANCH  19  23
ATOM     23  C   UNL     1      49.012   6.627  15.972  0.00  0.00    +0.000 C 
ATOM     24  N   UNL     1      48.416   7.508  16.830  0.00  0.00    +0.000 N 
ATOM     25  O   UNL     1      50.229   6.558  15.898  0.00  0.00    +0.000 OA
ATOM     26  H   UNL     1      47.438   7.465  17.074  0.00  0.00    +0.000 HD
ATOM     27  H   UNL     1      49.037   8.044  17.423  0.00  0.00    +0.000 HD
ENDBRANCH  19  23
ENDBRANCH  15  16
ENDBRANCH   1  15
TORSDOF 8
ENDMDL
MODEL 6
REMARK VINA RESULT:    -6.404      3.376      5.850
REMARK INTER + INTRA:         -10.426
REMARK INTER:                  -9.745
REMARK INTRA:                  -0.681
REMARK UNBOUND:                -1.214
REMARK  Name = 
REMARK  10 active torsions:
REMARK  status: ('A' for Active; 'I' for Inactive)
REMARK    1  A    between atoms: C_1  and  C_2
REMARK    2  A    between atoms: C_2  and  C_3
REMARK    3  A    between atoms: C_3  and  C_4
REMARK    4  A    between atoms: C_3  and  O_13
REMARK    5  A    between atoms: C_4  and  C_5
REMARK    6  A    between atoms: C_9  and  C_10
REMARK    7  A    between atoms: C_10  and  N_11
REMARK    8  A    between atoms: O_13  and  C_14
REMARK    9  A    between atoms: C_17  and  C_18
REMARK   10  A    between atoms: C_21  and  C_22
REMARK                            x       y       z     vdW  Elec       q    Type
REMARK                         _______ _______ _______ _____ _____    ______ ____
ROOT
ATOM      1  C   UNL     1      46.482   2.083   6.376  0.00  0.00    +0.000 C 
ENDROOT
BRANCH   1   3
ATOM      2  C   UNL     1      46.919  -0.136   7.665  0.00  0.00    +0.000 C 
ATOM      3  C   UNL     1      47.427   1.247   7.268  0.00  0.00    +0.000 C 
ENDBRANCH   1   3
BRANCH   1   4
ATOM      4  C   UNL     1      47.058   2.240   4.945  0.00  0.00    +0.000 C 
BRANCH   4   5
ATOM      5  C   UNL     1      46.508   1.198   3.996  0.00  0.00    +0.000 A 
ATOM      6  C   UNL     1      45.604   1.547   2.985  0.00  0.00    +0.000 A 
ATOM      7  C   UNL     1      45.215   0.604   2.035  0.00  0.00    +0.000 A 
ATOM      8  C   UNL     1      45.698  -0.702   2.106  0.00  0.00    +0.000 A 
ATOM      9  C   UNL     1      46.540  -1.094   3.155  0.00  0.00    +0.000 A 
ATOM     10  C   UNL     1      46.953  -0.129   4.085  0.00  0.00    +0.000 A 
BRANCH   9  11
ATOM     11  C   UNL     1      47.011  -2.520   3.274  0.00  0.00    +0.000 C 
BRANCH  11  12
ATOM     12  N   UNL     1      46.155  -3.290   4.171  0.00  0.00    +0.000 NA
ATOM     13  H   UNL     1      46.422  -4.270   4.110  0.00  0.00    +0.000 HD
ATOM     14  H   UNL     1      45.193  -3.231   3.847  0.00  0.00    +0.000 HD
ENDBRANCH  11  12
ENDBRANCH   9  11
ENDBRANCH   4   5
ENDBRANCH   1   4
BRANCH   1  15
ATOM     15  O   UNL     1      46.276   3.388   6.945  0.00  0.00    +0.000 OA
BRANCH  15  16
ATOM     16  C   UNL     1      45.565   3.510   8.110  0.00  0.00    +0.000 A 
ATOM     17  C   UNL     1      44.725   2.554   8.670  0.00  0.00    +0.000 A 
ATOM     18  C   UNL     1      44.108   2.791   9.903  0.00  0.00    +0.000 A 
ATOM     19  C   UNL     1      44.328   3.983  10.617  0.00  0.00    +0.000 A 
ATOM     20  C   UNL     1      45.207   4.940  10.086  0.00  0.00    +0.000 A 
ATOM     21  C   UNL     1      45.631   6.179  10.820  0.00  0.00    +0.000 C 
ATOM     22  C   UNL     1      45.765   4.710   8.806  0.00  0.00    +0.000 A 
BRANCH  19  23
ATOM     23  C   UNL     1      43.647   4.078  11.945  0.00  0.00    +0.000 C 
ATOM     24  N   UNL     1      42.521   4.848  12.035  0.00  0.00    +0.000 N 
ATOM     25  O   UNL     1      44.048   3.449  12.911  0.00  0.00    +0.000 OA
ATOM     26  H   UNL     1      42.041   5.220  11.230  0.00  0.00    +0.000 HD
ATOM     27  H   UNL     1      42.026   4.816  12.918  0.00  0.00    +0.000 HD
ENDBRANCH  19  23
ENDBRANCH  15  16
ENDBRANCH   1  15
TORSDOF 8
ENDMDL
MODEL 7
REMARK VINA RESULT:    -6.286      2.430      6.737
REMARK INTER + INTRA:         -10.256
REMARK INTER:                  -9.656
REMARK INTRA:                  -0.600
REMARK UNBOUND:                -1.214
REMARK  Name = 
REMARK  10 active torsions:
REMARK  status: ('A' for Active; 'I' for Inactive)
REMARK    1  A    between atoms: C_1  and  C_2
REMARK    2  A    between atoms: C_2  and  C_3
REMARK    3  A    between atoms: C_3  and  C_4
REMARK    4  A    between atoms: C_3  and  O_13
REMARK    5  A    between atoms: C_4  and  C_5
REMARK    6  A    between atoms: C_9  and  C_10
REMARK    7  A    between atoms: C_10  and  N_11
REMARK    8  A    between atoms: O_13  and  C_14
REMARK    9  A    between atoms: C_17  and  C_18
REMARK   10  A    between atoms: C_21  and  C_22
REMARK                            x       y       z     vdW  Elec       q    Type
REMARK                         _______ _______ _______ _____ _____    ______ ____
ROOT
ATOM      1  C   UNL     1      43.838   5.367  11.083  0.00  0.00    +0.000 C 
ENDROOT
BRANCH   1   3
ATOM      2  C   UNL     1      43.295   4.179  13.335  0.00  0.00    +0.000 C 
ATOM      3  C   UNL     1      42.768   4.846  12.069  0.00  0.00    +0.000 C 
ENDBRANCH   1   3
BRANCH   1   4
ATOM      4  C   UNL     1      43.829   6.915  11.016  0.00  0.00    +0.000 C 
BRANCH   4   5
ATOM      5  C   UNL     1      45.015   7.521  11.733  0.00  0.00    +0.000 A 
ATOM      6  C   UNL     1      45.218   8.906  11.752  0.00  0.00    +0.000 A 
ATOM      7  C   UNL     1      46.236   9.456  12.531  0.00  0.00    +0.000 A 
ATOM      8  C   UNL     1      47.078   8.625  13.269  0.00  0.00    +0.000 A 
ATOM      9  C   UNL     1      46.944   7.233  13.202  0.00  0.00    +0.000 A 
ATOM     10  C   UNL     1      45.897   6.692  12.444  0.00  0.00    +0.000 A 
BRANCH   9  11
ATOM     11  C   UNL     1      47.894   6.330  13.945  0.00  0.00    +0.000 C 
BRANCH  11  12
ATOM     12  N   UNL     1      47.650   4.925  13.630  0.00  0.00    +0.000 NA
ATOM     13  H   UNL     1      48.321   4.358  14.144  0.00  0.00    +0.000 HD
ATOM     14  H   UNL     1      47.832   4.768  12.642  0.00  0.00    +0.000 HD
ENDBRANCH  11  12
ENDBRANCH   9  11
ENDBRANCH   4   5
ENDBRANCH   1   4
BRANCH   1  15
ATOM     15  O   UNL     1      43.608   4.837   9.765  0.00  0.00    +0.000 OA
BRANCH  15  16
ATOM     16  C   UNL     1      44.439   3.864   9.277  0.00  0.00    +0.000 A 
ATOM     17  C   UNL     1      44.410   2.512   9.603  0.00  0.00    +0.000 A 
ATOM     18  C   UNL     1      45.284   1.616   8.977  0.00  0.00    +0.000 A 
ATOM     19  C   UNL     1      46.196   2.044   7.995  0.00  0.00    +0.000 A 
ATOM     20  C   UNL     1      46.207   3.398   7.623  0.00  0.00    +0.000 A 
ATOM     21  C   UNL     1      47.029   3.944   6.492  0.00  0.00    +0.000 C 
ATOM     22  C   UNL     1      45.365   4.298   8.319  0.00  0.00    +0.000 A 
BRANCH  19  23
ATOM     23  C   UNL     1      47.029   0.970   7.372  0.00  0.00    +0.000 C 
ATOM     24  N   UNL     1      46.719  -0.330   7.658  0.00  0.00    +0.000 N 
ATOM     25  O   UNL     1      47.928   1.237   6.590  0.00  0.00    +0.000 OA
ATOM     26  H   UNL     1      45.871  -0.604   8.131  0.00  0.00    +0.000 HD
ATOM     27  H   UNL     1      47.235  -1.036   7.147  0.00  0.00    +0.000 HD
ENDBRANCH  19  23
ENDBRANCH  15  16
ENDBRANCH   1  15
TORSDOF 8
ENDMDL
MODEL 8
REMARK VINA RESULT:    -5.952      3.848      7.807
REMARK INTER + INTRA:          -9.776
REMARK INTER:                  -8.856
REMARK INTRA:                  -0.920
REMARK UNBOUND:                -1.214
REMARK  Name = 
REMARK  10 active torsions:
REMARK  status: ('A' for Active; 'I' for Inactive)
REMARK    1  A    between atoms: C_1  and  C_2
REMARK    2  A    between atoms: C_2  and  C_3
REMARK    3  A    between atoms: C_3  and  C_4
REMARK    4  A    between atoms: C_3  and  O_13
REMARK    5  A    between atoms: C_4  and  C_5
REMARK    6  A    between atoms: C_9  and  C_10
REMARK    7  A    between atoms: C_10  and  N_11
REMARK    8  A    between atoms: O_13  and  C_14
REMARK    9  A    between atoms: C_17  and  C_18
REMARK   10  A    between atoms: C_21  and  C_22
REMARK                            x       y       z     vdW  Elec       q    Type
REMARK                         _______ _______ _______ _____ _____    ______ ____
ROOT
ATOM      1  C   UNL     1      48.750   7.552  14.252  0.00  0.00    +0.000 C 
ENDROOT
BRANCH   1   3
ATOM      2  C   UNL     1      50.244   7.925  12.153  0.00  0.00    +0.000 C 
ATOM      3  C   UNL     1      50.149   7.862  13.674  0.00  0.00    +0.000 C 
ENDBRANCH   1   3
BRANCH   1   4
ATOM      4  C   UNL     1      48.772   7.555  15.801  0.00  0.00    +0.000 C 
BRANCH   4   5
ATOM      5  C   UNL     1      49.319   6.260  16.362  0.00  0.00    +0.000 A 
ATOM      6  C   UNL     1      50.674   6.129  16.689  0.00  0.00    +0.000 A 
ATOM      7  C   UNL     1      51.134   4.980  17.331  0.00  0.00    +0.000 A 
ATOM      8  C   UNL     1      50.251   3.941  17.623  0.00  0.00    +0.000 A 
ATOM      9  C   UNL     1      48.908   4.017  17.233  0.00  0.00    +0.000 A 
ATOM     10  C   UNL     1      48.449   5.190  16.619  0.00  0.00    +0.000 A 
BRANCH   9  11
ATOM     11  C   UNL     1      47.966   2.868  17.486  0.00  0.00    +0.000 C 
BRANCH  11  12
ATOM     12  N   UNL     1      46.578   3.317  17.527  0.00  0.00    +0.000 NA
ATOM     13  H   UNL     1      46.443   3.870  18.372  0.00  0.00    +0.000 HD
ATOM     14  H   UNL     1      45.967   2.508  17.610  0.00  0.00    +0.000 HD
ENDBRANCH  11  12
ENDBRANCH   9  11
ENDBRANCH   4   5
ENDBRANCH   1   4
BRANCH   1  15
ATOM     15  O   UNL     1      48.288   6.269  13.790  0.00  0.00    +0.000 OA
BRANCH  15  16
ATOM     16  C   UNL     1      47.061   6.171  13.190  0.00  0.00    +0.000 A 
ATOM     17  C   UNL     1      46.379   7.188  12.530  0.00  0.00    +0.000 A 
ATOM     18  C   UNL     1      45.154   6.929  11.908  0.00  0.00    +0.000 A 
ATOM     19  C   UNL     1      44.586   5.641  11.912  0.00  0.00    +0.000 A 
ATOM     20  C   UNL     1      45.283   4.595  12.536  0.00  0.00    +0.000 A 
ATOM     21  C   UNL     1      44.851   3.158  12.480  0.00  0.00    +0.000 C 
ATOM     22  C   UNL     1      46.485   4.894  13.220  0.00  0.00    +0.000 A 
BRANCH  19  23
ATOM     23  C   UNL     1      43.301   5.498  11.161  0.00  0.00    +0.000 C 
ATOM     24  N   UNL     1      42.162   5.982  11.740  0.00  0.00    +0.000 N 
ATOM     25  O   UNL     1      43.270   5.010  10.042  0.00  0.00    +0.000 OA
ATOM     26  H   UNL     1      42.166   6.567  12.562  0.00  0.00    +0.000 HD
ATOM     27  H   UNL     1      41.325   5.960  11.169  0.00  0.00    +0.000 HD
ENDBRANCH  19  23
ENDBRANCH  15  16
ENDBRANCH   1  15
TORSDOF 8
ENDMDL
MODEL 9
REMARK VINA RESULT:    -5.915      4.025      7.803
REMARK INTER + INTRA:          -9.722
REMARK INTER:                  -8.446
REMARK INTRA:                  -1.276
REMARK UNBOUND:                -1.214
REMARK  Name = 
REMARK  10 active torsions:
REMARK  status: ('A' for Active; 'I' for Inactive)
REMARK    1  A    between atoms: C_1  and  C_2
REMARK    2  A    between atoms: C_2  and  C_3
REMARK    3  A    between atoms: C_3  and  C_4
REMARK    4  A    between atoms: C_3  and  O_13
REMARK    5  A    between atoms: C_4  and  C_5
REMARK    6  A    between atoms: C_9  and  C_10
REMARK    7  A    between atoms: C_10  and  N_11
REMARK    8  A    between atoms: O_13  and  C_14
REMARK    9  A    between atoms: C_17  and  C_18
REMARK   10  A    between atoms: C_21  and  C_22
REMARK                            x       y       z     vdW  Elec       q    Type
REMARK                         _______ _______ _______ _____ _____    ______ ____
ROOT
ATOM      1  C   UNL     1      49.101   7.369  14.009  0.00  0.00    +0.000 C 
ENDROOT
BRANCH   1   3
ATOM      2  C   UNL     1      50.158   8.065  11.734  0.00  0.00    +0.000 C 
ATOM      3  C   UNL     1      49.676   8.493  13.117  0.00  0.00    +0.000 C 
ENDBRANCH   1   3
BRANCH   1   4
ATOM      4  C   UNL     1      50.075   7.020  15.164  0.00  0.00    +0.000 C 
BRANCH   4   5
ATOM      5  C   UNL     1      49.340   6.570  16.407  0.00  0.00    +0.000 A 
ATOM      6  C   UNL     1      48.908   7.495  17.366  0.00  0.00    +0.000 A 
ATOM      7  C   UNL     1      48.114   7.080  18.435  0.00  0.00    +0.000 A 
ATOM      8  C   UNL     1      47.774   5.735  18.572  0.00  0.00    +0.000 A 
ATOM      9  C   UNL     1      48.261   4.781  17.670  0.00  0.00    +0.000 A 
ATOM     10  C   UNL     1      49.029   5.213  16.581  0.00  0.00    +0.000 A 
BRANCH   9  11
ATOM     11  C   UNL     1      47.951   3.318  17.854  0.00  0.00    +0.000 C 
BRANCH  11  12
ATOM     12  N   UNL     1      46.552   3.028  17.552  0.00  0.00    +0.000 NA
ATOM     13  H   UNL     1      46.257   3.628  16.784  0.00  0.00    +0.000 HD
ATOM     14  H   UNL     1      45.979   3.281  18.353  0.00  0.00    +0.000 HD
ENDBRANCH  11  12
ENDBRANCH   9  11
ENDBRANCH   4   5
ENDBRANCH   1   4
BRANCH   1  15
ATOM     15  O   UNL     1      48.852   6.186  13.230  0.00  0.00    +0.000 OA
BRANCH  15  16
ATOM     16  C   UNL     1      47.565   5.744  13.069  0.00  0.00    +0.000 A 
ATOM     17  C   UNL     1      47.009   4.597  13.625  0.00  0.00    +0.000 A 
ATOM     18  C   UNL     1      45.657   4.299  13.426  0.00  0.00    +0.000 A 
ATOM     19  C   UNL     1      44.820   5.150  12.681  0.00  0.00    +0.000 A 
ATOM     20  C   UNL     1      45.355   6.334  12.150  0.00  0.00    +0.000 A 
ATOM     21  C   UNL     1      44.532   7.387  11.466  0.00  0.00    +0.000 C 
ATOM     22  C   UNL     1      46.741   6.580  12.305  0.00  0.00    +0.000 A 
BRANCH  19  23
ATOM     23  C   UNL     1      43.386   4.736  12.596  0.00  0.00    +0.000 C 
ATOM     24  N   UNL     1      43.032   3.845  11.621  0.00  0.00    +0.000 N 
ATOM     25  O   UNL     1      42.560   5.136  13.401  0.00  0.00    +0.000 OA
ATOM     26  H   UNL     1      43.704   3.337  11.068  0.00  0.00    +0.000 HD
ATOM     27  H   UNL     1      42.077   3.508  11.648  0.00  0.00    +0.000 HD
ENDBRANCH  19  23
ENDBRANCH  15  16
ENDBRANCH   1  15
TORSDOF 8
ENDMDL
