MODEL 1
REMARK VINA RESULT:    -7.104      0.000      0.000
REMARK INTER + INTRA:         -11.144
REMARK INTER:                 -10.426
REMARK INTRA:                  -0.718
REMARK UNBOUND:                -0.718
REMARK  Name = 
REMARK  10 active torsions:
REMARK  status: ('A' for Active; 'I' for Inactive)
REMARK    1  A    between atoms: C_1  and  C_2
REMARK    2  A    between atoms: C_2  and  N_3
REMARK    3  A    between atoms: N_3  and  C_4
REMARK    4  A    between atoms: N_3  and  C_14
REMARK    5  A    between atoms: C_4  and  C_5
REMARK    6  A    between atoms: C_5  and  C_6
REMARK    7  A    between atoms: C_10  and  C_11
REMARK    8  A    between atoms: C_11  and  N_12
REMARK    9  A    between atoms: C_18  and  C_19
REMARK   10  A    between atoms: C_19  and  O_21
REMARK                            x       y       z     vdW  Elec       q    Type
REMARK                         _______ _______ _______ _____ _____    ______ ____
ROOT
ATOM      1  N   UNL     1      44.935   5.203  11.304  0.00  0.00    +0.000 N 
ENDROOT
BRANCH   1   2
ATOM      2  C   UNL     1      45.910   5.518  12.266  0.00  0.00    +0.000 A 
ATOM      3  C   UNL     1      46.678   6.700  12.204  0.00  0.00    +0.000 A 
ATOM      4  C   UNL     1      47.647   7.025  13.162  0.00  0.00    +0.000 A 
ATOM      5  C   UNL     1      47.879   6.175  14.236  0.00  0.00    +0.000 A 
ATOM      6  C   UNL     1      47.120   5.011  14.352  0.00  0.00    +0.000 A 
ATOM      7  C   UNL     1      46.163   4.688  13.372  0.00  0.00    +0.000 A 
BRANCH   6   8
ATOM      8  C   UNL     1      47.313   4.061  15.476  0.00  0.00    +0.000 C 
ATOM      9  O   UNL     1      47.132   4.365  16.642  0.00  0.00    +0.000 OA
BRANCH   8  10
ATOM     10  O   UNL     1      47.746   2.842  15.091  0.00  0.00    +0.000 OA
ATOM     11  H   UNL     1      47.152   2.105  15.321  0.00  0.00    +0.000 HD
ENDBRANCH   8  10
ENDBRANCH   6   8
ENDBRANCH   1   2
BRANCH   1  13
ATOM     12  C   UNL     1      42.505   5.420  11.861  0.00  0.00    +0.000 C 
ATOM     13  C   UNL     1      43.709   4.497  11.715  0.00  0.00    +0.000 C 
ENDBRANCH   1  13
BRANCH   1  14
ATOM     14  C   UNL     1      45.346   5.214   9.880  0.00  0.00    +0.000 C 
BRANCH  14  15
ATOM     15  C   UNL     1      44.515   4.352   8.920  0.00  0.00    +0.000 C 
BRANCH  15  16
ATOM     16  C   UNL     1      45.358   3.250   8.312  0.00  0.00    +0.000 A 
ATOM     17  C   UNL     1      45.392   1.972   8.879  0.00  0.00    +0.000 A 
ATOM     18  C   UNL     1      46.131   0.952   8.276  0.00  0.00    +0.000 A 
ATOM     19  C   UNL     1      46.833   1.194   7.096  0.00  0.00    +0.000 A 
ATOM     20  C   UNL     1      46.805   2.461   6.503  0.00  0.00    +0.000 A 
ATOM     21  C   UNL     1      46.074   3.488   7.131  0.00  0.00    +0.000 A 
BRANCH  20  22
ATOM     22  C   UNL     1      47.542   2.732   5.215  0.00  0.00    +0.000 C 
BRANCH  22  23
ATOM     23  N   UNL     1      47.978   1.493   4.581  0.00  0.00    +0.000 NA
ATOM     24  H   UNL     1      48.897   1.248   4.947  0.00  0.00    +0.000 HD
ATOM     25  H   UNL     1      48.097   1.651   3.583  0.00  0.00    +0.000 HD
ENDBRANCH  22  23
ENDBRANCH  20  22
ENDBRANCH  15  16
ENDBRANCH  14  15
ENDBRANCH   1  14
TORSDOF 9
ENDMDL
MODEL 2
REMARK VINA RESULT:    -6.780      1.540      1.902
REMARK INTER + INTRA:         -10.669
REMARK INTER:                 -10.009
REMARK INTRA:                  -0.660
REMARK UNBOUND:                -0.718
REMARK  Name = 
REMARK  10 active torsions:
REMARK  status: ('A' for Active; 'I' for Inactive)
REMARK    1  A    between atoms: C_1  and  C_2
REMARK    2  A    between atoms: C_2  and  N_3
REMARK    3  A    between atoms: N_3  and  C_4
REMARK    4  A    between atoms: N_3  and  C_14
REMARK    5  A    between atoms: C_4  and  C_5
REMARK    6  A    between atoms: C_5  and  C_6
REMARK    7  A    between atoms: C_10  and  C_11
REMARK    8  A    between atoms: C_11  and  N_12
REMARK    9  A    between atoms: C_18  and  C_19
REMARK   10  A    between atoms: C_19  and  O_21
REMARK                            x       y       z     vdW  Elec       q    Type
REMARK                         _______ _______ _______ _____ _____    ______ ____
ROOT
ATOM      1  N   UNL     1      44.422   5.583  11.095  0.00  0.00    +0.000 N 
ENDROOT
BRANCH   1   2
ATOM      2  C   UNL     1      45.230   6.532  11.745  0.00  0.00    +0.000 A 
ATOM      3  C   UNL     1      44.866   7.891  11.847  0.00  0.00    +0.000 A 
ATOM      4  C   UNL     1      45.662   8.842  12.498  0.00  0.00    +0.000 A 
ATOM      5  C   UNL     1      46.860   8.462  13.089  0.00  0.00    +0.000 A 
ATOM      6  C   UNL     1      47.242   7.121  13.039  0.00  0.00    +0.000 A 
ATOM      7  C   UNL     1      46.442   6.181  12.364  0.00  0.00    +0.000 A 
BRANCH   6   8
ATOM      8  C   UNL     1      48.508   6.647  13.653  0.00  0.00    +0.000 C 
ATOM      9  O   UNL     1      48.594   6.307  14.819  0.00  0.00    +0.000 OA
BRANCH   8  10
ATOM     10  O   UNL     1      49.562   6.665  12.810  0.00  0.00    +0.000 OA
ATOM     11  H   UNL     1      49.344   6.883  11.885  0.00  0.00    +0.000 HD
ENDBRANCH   8  10
ENDBRANCH   6   8
ENDBRANCH   1   2
BRANCH   1  13
ATOM     12  C   UNL     1      42.778   5.045  12.903  0.00  0.00    +0.000 C 
ATOM     13  C   UNL     1      42.998   5.469  11.456  0.00  0.00    +0.000 C 
ENDBRANCH   1  13
BRANCH   1  14
ATOM     14  C   UNL     1      45.101   4.472  10.386  0.00  0.00    +0.000 C 
BRANCH  14  15
ATOM     15  C   UNL     1      44.524   4.074   9.021  0.00  0.00    +0.000 C 
BRANCH  15  16
ATOM     16  C   UNL     1      45.398   3.040   8.343  0.00  0.00    +0.000 A 
ATOM     17  C   UNL     1      45.469   1.729   8.825  0.00  0.00    +0.000 A 
ATOM     18  C   UNL     1      46.237   0.772   8.157  0.00  0.00    +0.000 A 
ATOM     19  C   UNL     1      46.930   1.111   6.996  0.00  0.00    +0.000 A 
ATOM     20  C   UNL     1      46.865   2.414   6.487  0.00  0.00    +0.000 A 
ATOM     21  C   UNL     1      46.105   3.376   7.181  0.00  0.00    +0.000 A 
BRANCH  20  22
ATOM     22  C   UNL     1      47.593   2.790   5.221  0.00  0.00    +0.000 C 
BRANCH  22  23
ATOM     23  N   UNL     1      47.972   1.609   4.455  0.00  0.00    +0.000 NA
ATOM     24  H   UNL     1      48.985   1.611   4.336  0.00  0.00    +0.000 HD
ATOM     25  H   UNL     1      47.571   1.671   3.522  0.00  0.00    +0.000 HD
ENDBRANCH  22  23
ENDBRANCH  20  22
ENDBRANCH  15  16
ENDBRANCH  14  15
ENDBRANCH   1  14
TORSDOF 9
ENDMDL
MODEL 3
REMARK VINA RESULT:    -6.617      3.001      3.595
REMARK INTER + INTRA:         -10.429
REMARK INTER:                  -9.587
REMARK INTRA:                  -0.843
REMARK UNBOUND:                -0.718
REMARK  Name = 
REMARK  10 active torsions:
REMARK  status: ('A' for Active; 'I' for Inactive)
REMARK    1  A    between atoms: C_1  and  C_2
REMARK    2  A    between atoms: C_2  and  N_3
REMARK    3  A    between atoms: N_3  and  C_4
REMARK    4  A    between atoms: N_3  and  C_14
REMARK    5  A    between atoms: C_4  and  C_5
REMARK    6  A    between atoms: C_5  and  C_6
REMARK    7  A    between atoms: C_10  and  C_11
REMARK    8  A    between atoms: C_11  and  N_12
REMARK    9  A    between atoms: C_18  and  C_19
REMARK   10  A    between atoms: C_19  and  O_21
REMARK                            x       y       z     vdW  Elec       q    Type
REMARK                         _______ _______ _______ _____ _____    ______ ____
ROOT
ATOM      1  N   UNL     1      44.485   4.894  11.546  0.00  0.00    +0.000 N 
ENDROOT
BRANCH   1   2
ATOM      2  C   UNL     1      45.052   6.134  11.887  0.00  0.00    +0.000 A 
ATOM      3  C   UNL     1      46.257   6.239  12.613  0.00  0.00    +0.000 A 
ATOM      4  C   UNL     1      46.832   7.471  12.952  0.00  0.00    +0.000 A 
ATOM      5  C   UNL     1      46.223   8.656  12.562  0.00  0.00    +0.000 A 
ATOM      6  C   UNL     1      45.046   8.597  11.816  0.00  0.00    +0.000 A 
ATOM      7  C   UNL     1      44.469   7.353  11.500  0.00  0.00    +0.000 A 
BRANCH   6   8
ATOM      8  C   UNL     1      44.345   9.825  11.364  0.00  0.00    +0.000 C 
ATOM      9  O   UNL     1      44.222  10.815  12.064  0.00  0.00    +0.000 OA
BRANCH   8  10
ATOM     10  O   UNL     1      43.822   9.729  10.124  0.00  0.00    +0.000 OA
ATOM     11  H   UNL     1      42.904  10.044  10.040  0.00  0.00    +0.000 HD
ENDBRANCH   8  10
ENDBRANCH   6   8
ENDBRANCH   1   2
BRANCH   1  13
ATOM     12  C   UNL     1      43.584   2.671  12.260  0.00  0.00    +0.000 C 
ATOM     13  C   UNL     1      44.649   3.744  12.453  0.00  0.00    +0.000 C 
ENDBRANCH   1  13
BRANCH   1  14
ATOM     14  C   UNL     1      44.111   4.676  10.129  0.00  0.00    +0.000 C 
BRANCH  14  15
ATOM     15  C   UNL     1      45.194   4.967   9.081  0.00  0.00    +0.000 C 
BRANCH  15  16
ATOM     16  C   UNL     1      45.697   3.685   8.450  0.00  0.00    +0.000 A 
ATOM     17  C   UNL     1      45.467   2.446   9.055  0.00  0.00    +0.000 A 
ATOM     18  C   UNL     1      45.889   1.267   8.434  0.00  0.00    +0.000 A 
ATOM     19  C   UNL     1      46.532   1.315   7.198  0.00  0.00    +0.000 A 
ATOM     20  C   UNL     1      46.763   2.543   6.566  0.00  0.00    +0.000 A 
ATOM     21  C   UNL     1      46.353   3.725   7.212  0.00  0.00    +0.000 A 
BRANCH  20  22
ATOM     22  C   UNL     1      47.439   2.608   5.220  0.00  0.00    +0.000 C 
BRANCH  22  23
ATOM     23  N   UNL     1      48.416   1.537   5.062  0.00  0.00    +0.000 NA
ATOM     24  H   UNL     1      48.090   0.722   5.579  0.00  0.00    +0.000 HD
ATOM     25  H   UNL     1      49.295   1.819   5.490  0.00  0.00    +0.000 HD
ENDBRANCH  22  23
ENDBRANCH  20  22
ENDBRANCH  15  16
ENDBRANCH  14  15
ENDBRANCH   1  14
TORSDOF 9
ENDMDL
MODEL 4
REMARK VINA RESULT:    -6.159      1.861      3.565
REMARK INTER + INTRA:          -9.757
REMARK INTER:                  -9.026
REMARK INTRA:                  -0.731
REMARK UNBOUND:                -0.718
REMARK  Name = 
REMARK  10 active torsions:
REMARK  status: ('A' for Active; 'I' for Inactive)
REMARK    1  A    between atoms: C_1  and  C_2
REMARK    2  A    between atoms: C_2  and  N_3
REMARK    3  A    between atoms: N_3  and  C_4
REMARK    4  A    between atoms: N_3  and  C_14
REMARK    5  A    between atoms: C_4  and  C_5
REMARK    6  A    between atoms: C_5  and  C_6
REMARK    7  A    between atoms: C_10  and  C_11
REMARK    8  A    between atoms: C_11  and  N_12
REMARK    9  A    between atoms: C_18  and  C_19
REMARK   10  A    between atoms: C_19  and  O_21
REMARK                            x       y       z     vdW  Elec       q    Type
REMARK                         _______ _______ _______ _____ _____    ______ ____
ROOT
ATOM      1  N   UNL     1      47.413   6.733  13.304  0.00  0.00    +0.000 N 
ENDROOT
BRANCH   1   2
ATOM      2  C   UNL     1      47.913   6.306  14.545  0.00  0.00    +0.000 A 
ATOM      3  C   UNL     1      48.717   7.131  15.360  0.00  0.00    +0.000 A 
ATOM      4  C   UNL     1      49.215   6.716  16.602  0.00  0.00    +0.000 A 
ATOM      5  C   UNL     1      48.914   5.449  17.086  0.00  0.00    +0.000 A 
ATOM      6  C   UNL     1      48.097   4.612  16.326  0.00  0.00    +0.000 A 
ATOM      7  C   UNL     1      47.620   5.036  15.071  0.00  0.00    +0.000 A 
BRANCH   6   8
ATOM      8  C   UNL     1      47.734   3.249  16.785  0.00  0.00    +0.000 C 
ATOM      9  O   UNL     1      48.423   2.268  16.565  0.00  0.00    +0.000 OA
BRANCH   8  10
ATOM     10  O   UNL     1      46.551   3.188  17.433  0.00  0.00    +0.000 OA
ATOM     11  H   UNL     1      46.614   2.973  18.381  0.00  0.00    +0.000 HD
ENDBRANCH   8  10
ENDBRANCH   6   8
ENDBRANCH   1   2
BRANCH   1  13
ATOM     12  C   UNL     1      49.156   7.671  11.772  0.00  0.00    +0.000 C 
ATOM     13  C   UNL     1      47.962   7.949  12.677  0.00  0.00    +0.000 C 
ENDBRANCH   1  13
BRANCH   1  14
ATOM     14  C   UNL     1      46.097   6.204  12.874  0.00  0.00    +0.000 C 
BRANCH  14  15
ATOM     15  C   UNL     1      45.702   6.452  11.412  0.00  0.00    +0.000 C 
BRANCH  15  16
ATOM     16  C   UNL     1      45.280   5.163  10.737  0.00  0.00    +0.000 A 
ATOM     17  C   UNL     1      44.455   4.243  11.393  0.00  0.00    +0.000 A 
ATOM     18  C   UNL     1      44.030   3.085  10.738  0.00  0.00    +0.000 A 
ATOM     19  C   UNL     1      44.413   2.841   9.421  0.00  0.00    +0.000 A 
ATOM     20  C   UNL     1      45.228   3.752   8.739  0.00  0.00    +0.000 A 
ATOM     21  C   UNL     1      45.669   4.906   9.416  0.00  0.00    +0.000 A 
BRANCH  20  22
ATOM     22  C   UNL     1      45.633   3.511   7.307  0.00  0.00    +0.000 C 
BRANCH  22  23
ATOM     23  N   UNL     1      46.889   4.181   6.989  0.00  0.00    +0.000 NA
ATOM     24  H   UNL     1      46.808   4.597   6.062  0.00  0.00    +0.000 HD
ATOM     25  H   UNL     1      47.633   3.489   6.931  0.00  0.00    +0.000 HD
ENDBRANCH  22  23
ENDBRANCH  20  22
ENDBRANCH  15  16
ENDBRANCH  14  15
ENDBRANCH   1  14
TORSDOF 9
ENDMDL
MODEL 5
REMARK VINA RESULT:    -6.089      3.502      4.757
REMARK INTER + INTRA:          -9.654
REMARK INTER:                  -8.772
REMARK INTRA:                  -0.883
REMARK UNBOUND:                -0.718
REMARK  Name = 
REMARK  10 active torsions:
REMARK  status: ('A' for Active; 'I' for Inactive)
REMARK    1  A    between atoms: C_1  and  C_2
REMARK    2  A    between atoms: C_2  and  N_3
REMARK    3  A    between atoms: N_3  and  C_4
REMARK    4  A    between atoms: N_3  and  C_14
REMARK    5  A    between atoms: C_4  and  C_5
REMARK    6  A    between atoms: C_5  and  C_6
REMARK    7  A    between atoms: C_10  and  C_11
REMARK    8  A    between atoms: C_11  and  N_12
REMARK    9  A    between atoms: C_18  and  C_19
REMARK   10  A    between atoms: C_19  and  O_21
REMARK                            x       y       z     vdW  Elec       q    Type
REMARK                         _______ _______ _______ _____ _____    ______ ____
ROOT
ATOM      1  N   UNL     1      46.603   6.697  13.003  0.00  0.00    +0.000 N 
ENDROOT
BRANCH   1   2
ATOM      2  C   UNL     1      47.239   7.849  12.510  0.00  0.00    +0.000 A 
ATOM      3  C   UNL     1      48.576   7.839  12.059  0.00  0.00    +0.000 A 
ATOM      4  C   UNL     1      49.216   8.981  11.560  0.00  0.00    +0.000 A 
ATOM      5  C   UNL     1      48.531  10.186  11.482  0.00  0.00    +0.000 A 
ATOM      6  C   UNL     1      47.198  10.233  11.888  0.00  0.00    +0.000 A 
ATOM      7  C   UNL     1      46.573   9.082  12.406  0.00  0.00    +0.000 A 
BRANCH   6   8
ATOM      8  C   UNL     1      46.407  11.487  11.828  0.00  0.00    +0.000 C 
ATOM      9  O   UNL     1      46.876  12.553  11.469  0.00  0.00    +0.000 OA
BRANCH   8  10
ATOM     10  O   UNL     1      45.130  11.347  12.244  0.00  0.00    +0.000 OA
ATOM     11  H   UNL     1      44.595  12.160  12.206  0.00  0.00    +0.000 HD
ENDBRANCH   8  10
ENDBRANCH   6   8
ENDBRANCH   1   2
BRANCH   1  13
ATOM     12  C   UNL     1      46.591   4.355  13.883  0.00  0.00    +0.000 C 
ATOM     13  C   UNL     1      47.414   5.590  13.539  0.00  0.00    +0.000 C 
ENDBRANCH   1  13
BRANCH   1  14
ATOM     14  C   UNL     1      45.198   6.460  12.595  0.00  0.00    +0.000 C 
BRANCH  14  15
ATOM     15  C   UNL     1      44.902   6.514  11.090  0.00  0.00    +0.000 C 
BRANCH  15  16
ATOM     16  C   UNL     1      44.825   5.120  10.503  0.00  0.00    +0.000 A 
ATOM     17  C   UNL     1      44.137   4.097  11.163  0.00  0.00    +0.000 A 
ATOM     18  C   UNL     1      44.027   2.830  10.583  0.00  0.00    +0.000 A 
ATOM     19  C   UNL     1      44.592   2.578   9.334  0.00  0.00    +0.000 A 
ATOM     20  C   UNL     1      45.275   3.588   8.647  0.00  0.00    +0.000 A 
ATOM     21  C   UNL     1      45.398   4.855   9.252  0.00  0.00    +0.000 A 
BRANCH  20  22
ATOM     22  C   UNL     1      45.873   3.335   7.287  0.00  0.00    +0.000 C 
BRANCH  22  23
ATOM     23  N   UNL     1      46.980   4.245   7.014  0.00  0.00    +0.000 NA
ATOM     24  H   UNL     1      46.894   4.582   6.056  0.00  0.00    +0.000 HD
ATOM     25  H   UNL     1      47.856   3.730   7.063  0.00  0.00    +0.000 HD
ENDBRANCH  22  23
ENDBRANCH  20  22
ENDBRANCH  15  16
ENDBRANCH  14  15
ENDBRANCH   1  14
TORSDOF 9
ENDMDL
MODEL 6
REMARK VINA RESULT:    -6.034      3.148      4.368
REMARK INTER + INTRA:          -9.574
REMARK INTER:                  -8.592
REMARK INTRA:                  -0.982
REMARK UNBOUND:                -0.718
REMARK  Name = 
REMARK  10 active torsions:
REMARK  status: ('A' for Active; 'I' for Inactive)
REMARK    1  A    between atoms: C_1  and  C_2
REMARK    2  A    between atoms: C_2  and  N_3
REMARK    3  A    between atoms: N_3  and  C_4
REMARK    4  A    between atoms: N_3  and  C_14
REMARK    5  A    between atoms: C_4  and  C_5
REMARK    6  A    between atoms: C_5  and  C_6
REMARK    7  A    between atoms: C_10  and  C_11
REMARK    8  A    between atoms: C_11  and  N_12
REMARK    9  A    between atoms: C_18  and  C_19
REMARK   10  A    between atoms: C_19  and  O_21
REMARK                            x       y       z     vdW  Elec       q    Type
REMARK                         _______ _______ _______ _____ _____    ______ ____
ROOT
ATOM      1  N   UNL     1      46.660   6.720  13.059  0.00  0.00    +0.000 N 
ENDROOT
BRANCH   1   2
ATOM      2  C   UNL     1      47.388   7.808  12.549  0.00  0.00    +0.000 A 
ATOM      3  C   UNL     1      46.861   9.115  12.505  0.00  0.00    +0.000 A 
ATOM      4  C   UNL     1      47.582  10.207  12.003  0.00  0.00    +0.000 A 
ATOM      5  C   UNL     1      48.877  10.031  11.534  0.00  0.00    +0.000 A 
ATOM      6  C   UNL     1      49.449   8.759  11.589  0.00  0.00    +0.000 A 
ATOM      7  C   UNL     1      48.705   7.668  12.077  0.00  0.00    +0.000 A 
BRANCH   6   8
ATOM      8  C   UNL     1      50.829   8.502  11.108  0.00  0.00    +0.000 C 
ATOM      9  O   UNL     1      51.531   9.364  10.609  0.00  0.00    +0.000 OA
BRANCH   8  10
ATOM     10  O   UNL     1      51.220   7.217  11.236  0.00  0.00    +0.000 OA
ATOM     11  H   UNL     1      51.972   6.959  10.674  0.00  0.00    +0.000 HD
ENDBRANCH   8  10
ENDBRANCH   6   8
ENDBRANCH   1   2
BRANCH   1  13
ATOM     12  C   UNL     1      46.467   4.426  14.042  0.00  0.00    +0.000 C 
ATOM     13  C   UNL     1      47.375   5.601  13.699  0.00  0.00    +0.000 C 
ENDBRANCH   1  13
BRANCH   1  14
ATOM     14  C   UNL     1      45.271   6.536  12.577  0.00  0.00    +0.000 C 
BRANCH  14  15
ATOM     15  C   UNL     1      45.059   6.587  11.058  0.00  0.00    +0.000 C 
BRANCH  15  16
ATOM     16  C   UNL     1      44.925   5.193  10.481  0.00  0.00    +0.000 A 
ATOM     17  C   UNL     1      44.216   4.197  11.162  0.00  0.00    +0.000 A 
ATOM     18  C   UNL     1      44.054   2.932  10.592  0.00  0.00    +0.000 A 
ATOM     19  C   UNL     1      44.586   2.653   9.335  0.00  0.00    +0.000 A 
ATOM     20  C   UNL     1      45.289   3.636   8.629  0.00  0.00    +0.000 A 
ATOM     21  C   UNL     1      45.465   4.901   9.222  0.00  0.00    +0.000 A 
BRANCH  20  22
ATOM     22  C   UNL     1      45.853   3.355   7.259  0.00  0.00    +0.000 C 
BRANCH  22  23
ATOM     23  N   UNL     1      47.001   4.207   6.970  0.00  0.00    +0.000 NA
ATOM     24  H   UNL     1      46.830   5.127   7.373  0.00  0.00    +0.000 HD
ATOM     25  H   UNL     1      47.075   4.340   5.965  0.00  0.00    +0.000 HD
ENDBRANCH  22  23
ENDBRANCH  20  22
ENDBRANCH  15  16
ENDBRANCH  14  15
ENDBRANCH   1  14
TORSDOF 9
ENDMDL
MODEL 7
REMARK VINA RESULT:    -5.991      4.679      7.750
REMARK INTER + INTRA:          -9.511
REMARK INTER:                  -8.417
REMARK INTRA:                  -1.094
REMARK UNBOUND:                -0.718
REMARK  Name = 
REMARK  10 active torsions:
REMARK  status: ('A' for Active; 'I' for Inactive)
REMARK    1  A    between atoms: C_1  and  C_2
REMARK    2  A    between atoms: C_2  and  N_3
REMARK    3  A    between atoms: N_3  and  C_4
REMARK    4  A    between atoms: N_3  and  C_14
REMARK    5  A    between atoms: C_4  and  C_5
REMARK    6  A    between atoms: C_5  and  C_6
REMARK    7  A    between atoms: C_10  and  C_11
REMARK    8  A    between atoms: C_11  and  N_12
REMARK    9  A    between atoms: C_18  and  C_19
REMARK   10  A    between atoms: C_19  and  O_21
REMARK                            x       y       z     vdW  Elec       q    Type
REMARK                         _______ _______ _______ _____ _____    ______ ____
ROOT
ATOM      1  N   UNL     1      48.371   8.053  13.656  0.00  0.00    +0.000 N 
ENDROOT
BRANCH   1   2
ATOM      2  C   UNL     1      47.269   7.235  13.351  0.00  0.00    +0.000 A 
ATOM      3  C   UNL     1      46.045   7.759  12.886  0.00  0.00    +0.000 A 
ATOM      4  C   UNL     1      44.944   6.951  12.574  0.00  0.00    +0.000 A 
ATOM      5  C   UNL     1      45.032   5.571  12.705  0.00  0.00    +0.000 A 
ATOM      6  C   UNL     1      46.236   5.009  13.131  0.00  0.00    +0.000 A 
ATOM      7  C   UNL     1      47.327   5.835  13.460  0.00  0.00    +0.000 A 
BRANCH   6   8
ATOM      8  C   UNL     1      46.399   3.542  13.290  0.00  0.00    +0.000 C 
ATOM      9  O   UNL     1      47.310   3.040  13.925  0.00  0.00    +0.000 OA
BRANCH   8  10
ATOM     10  O   UNL     1      45.470   2.816  12.634  0.00  0.00    +0.000 OA
ATOM     11  H   UNL     1      44.602   3.250  12.540  0.00  0.00    +0.000 HD
ENDBRANCH   8  10
ENDBRANCH   6   8
ENDBRANCH   1   2
BRANCH   1  13
ATOM     12  C   UNL     1      49.447   8.987  11.599  0.00  0.00    +0.000 C 
ATOM     13  C   UNL     1      48.625   9.262  12.852  0.00  0.00    +0.000 C 
ENDBRANCH   1  13
BRANCH   1  14
ATOM     14  C   UNL     1      49.453   7.468  14.482  0.00  0.00    +0.000 C 
BRANCH  14  15
ATOM     15  C   UNL     1      49.204   7.408  15.996  0.00  0.00    +0.000 C 
BRANCH  15  16
ATOM     16  C   UNL     1      49.587   6.053  16.555  0.00  0.00    +0.000 A 
ATOM     17  C   UNL     1      50.876   5.813  17.042  0.00  0.00    +0.000 A 
ATOM     18  C   UNL     1      51.198   4.575  17.605  0.00  0.00    +0.000 A 
ATOM     19  C   UNL     1      50.235   3.573  17.698  0.00  0.00    +0.000 A 
ATOM     20  C   UNL     1      48.934   3.793  17.229  0.00  0.00    +0.000 A 
ATOM     21  C   UNL     1      48.627   5.037  16.644  0.00  0.00    +0.000 A 
BRANCH  20  22
ATOM     22  C   UNL     1      47.876   2.725  17.342  0.00  0.00    +0.000 C 
BRANCH  22  23
ATOM     23  N   UNL     1      46.571   3.298  17.649  0.00  0.00    +0.000 NA
ATOM     24  H   UNL     1      46.489   4.193  17.167  0.00  0.00    +0.000 HD
ATOM     25  H   UNL     1      46.519   3.501  18.645  0.00  0.00    +0.000 HD
ENDBRANCH  22  23
ENDBRANCH  20  22
ENDBRANCH  15  16
ENDBRANCH  14  15
ENDBRANCH   1  14
TORSDOF 9
ENDMDL
MODEL 8
REMARK VINA RESULT:    -5.927      4.791      7.930
REMARK INTER + INTRA:          -9.416
REMARK INTER:                  -7.820
REMARK INTRA:                  -1.597
REMARK UNBOUND:                -0.718
REMARK  Name = 
REMARK  10 active torsions:
REMARK  status: ('A' for Active; 'I' for Inactive)
REMARK    1  A    between atoms: C_1  and  C_2
REMARK    2  A    between atoms: C_2  and  N_3
REMARK    3  A    between atoms: N_3  and  C_4
REMARK    4  A    between atoms: N_3  and  C_14
REMARK    5  A    between atoms: C_4  and  C_5
REMARK    6  A    between atoms: C_5  and  C_6
REMARK    7  A    between atoms: C_10  and  C_11
REMARK    8  A    between atoms: C_11  and  N_12
REMARK    9  A    between atoms: C_18  and  C_19
REMARK   10  A    between atoms: C_19  and  O_21
REMARK                            x       y       z     vdW  Elec       q    Type
REMARK                         _______ _______ _______ _____ _____    ______ ____
ROOT
ATOM      1  N   UNL     1      48.899   8.019  14.948  0.00  0.00    +0.000 N 
ENDROOT
BRANCH   1   2
ATOM      2  C   UNL     1      48.088   7.283  14.067  0.00  0.00    +0.000 A 
ATOM      3  C   UNL     1      47.521   7.853  12.908  0.00  0.00    +0.000 A 
ATOM      4  C   UNL     1      46.717   7.125  12.021  0.00  0.00    +0.000 A 
ATOM      5  C   UNL     1      46.458   5.781  12.257  0.00  0.00    +0.000 A 
ATOM      6  C   UNL     1      47.025   5.170  13.375  0.00  0.00    +0.000 A 
ATOM      7  C   UNL     1      47.814   5.919  14.268  0.00  0.00    +0.000 A 
BRANCH   6   8
ATOM      8  C   UNL     1      46.791   3.738  13.685  0.00  0.00    +0.000 C 
ATOM      9  O   UNL     1      47.458   3.115  14.492  0.00  0.00    +0.000 OA
BRANCH   8  10
ATOM     10  O   UNL     1      45.799   3.179  12.961  0.00  0.00    +0.000 OA
ATOM     11  H   UNL     1      44.900   3.461  13.212  0.00  0.00    +0.000 HD
ENDBRANCH   8  10
ENDBRANCH   6   8
ENDBRANCH   1   2
BRANCH   1  13
ATOM     12  C   UNL     1      48.121   9.783  16.543  0.00  0.00    +0.000 C 
ATOM     13  C   UNL     1      48.639   9.455  15.148  0.00  0.00    +0.000 C 
ENDBRANCH   1  13
BRANCH   1  14
ATOM     14  C   UNL     1      50.213   7.442  15.318  0.00  0.00    +0.000 C 
BRANCH  14  15
ATOM     15  C   UNL     1      50.470   7.224  16.815  0.00  0.00    +0.000 C 
BRANCH  15  16
ATOM     16  C   UNL     1      49.709   6.018  17.326  0.00  0.00    +0.000 A 
ATOM     17  C   UNL     1      48.460   6.160  17.939  0.00  0.00    +0.000 A 
ATOM     18  C   UNL     1      47.745   5.035  18.356  0.00  0.00    +0.000 A 
ATOM     19  C   UNL     1      48.264   3.757  18.152  0.00  0.00    +0.000 A 
ATOM     20  C   UNL     1      49.506   3.587  17.529  0.00  0.00    +0.000 A 
ATOM     21  C   UNL     1      50.227   4.730  17.133  0.00  0.00    +0.000 A 
BRANCH  20  22
ATOM     22  C   UNL     1      50.069   2.211  17.283  0.00  0.00    +0.000 C 
BRANCH  22  23
ATOM     23  N   UNL     1      49.624   1.674  16.002  0.00  0.00    +0.000 NA
ATOM     24  H   UNL     1      50.168   0.836  15.795  0.00  0.00    +0.000 HD
ATOM     25  H   UNL     1      49.834   2.344  15.266  0.00  0.00    +0.000 HD
ENDBRANCH  22  23
ENDBRANCH  20  22
ENDBRANCH  15  16
ENDBRANCH  14  15
ENDBRANCH   1  14
TORSDOF 9
ENDMDL
MODEL 9
REMARK VINA RESULT:    -5.899      3.827      8.054
REMARK INTER + INTRA:          -9.376
REMARK INTER:                  -8.656
REMARK INTRA:                  -0.720
REMARK UNBOUND:                -0.718
REMARK  Name = 
REMARK  10 active torsions:
REMARK  status: ('A' for Active; 'I' for Inactive)
REMARK    1  A    between atoms: C_1  and  C_2
REMARK    2  A    between atoms: C_2  and  N_3
REMARK    3  A    between atoms: N_3  and  C_4
REMARK    4  A    between atoms: N_3  and  C_14
REMARK    5  A    between atoms: C_4  and  C_5
REMARK    6  A    between atoms: C_5  and  C_6
REMARK    7  A    between atoms: C_10  and  C_11
REMARK    8  A    between atoms: C_11  and  N_12
REMARK    9  A    between atoms: C_18  and  C_19
REMARK   10  A    between atoms: C_19  and  O_21
REMARK                            x       y       z     vdW  Elec       q    Type
REMARK                         _______ _______ _______ _____ _____    ______ ____
ROOT
ATOM      1  N   UNL     1      46.359   6.628  12.943  0.00  0.00    +0.000 N 
ENDROOT
BRANCH   1   2
ATOM      2  C   UNL     1      45.434   5.825  12.255  0.00  0.00    +0.000 A 
ATOM      3  C   UNL     1      44.233   5.379  12.845  0.00  0.00    +0.000 A 
ATOM      4  C   UNL     1      43.303   4.583  12.165  0.00  0.00    +0.000 A 
ATOM      5  C   UNL     1      43.537   4.209  10.848  0.00  0.00    +0.000 A 
ATOM      6  C   UNL     1      44.697   4.655  10.215  0.00  0.00    +0.000 A 
ATOM      7  C   UNL     1      45.632   5.438  10.918  0.00  0.00    +0.000 A 
BRANCH   6   8
ATOM      8  C   UNL     1      45.007   4.296   8.808  0.00  0.00    +0.000 C 
ATOM      9  O   UNL     1      45.909   4.813   8.173  0.00  0.00    +0.000 OA
BRANCH   8  10
ATOM     10  O   UNL     1      44.173   3.372   8.286  0.00  0.00    +0.000 OA
ATOM     11  H   UNL     1      43.322   3.722   7.966  0.00  0.00    +0.000 HD
ENDBRANCH   8  10
ENDBRANCH   6   8
ENDBRANCH   1   2
BRANCH   1  13
ATOM     12  C   UNL     1      45.419   8.935  12.704  0.00  0.00    +0.000 C 
ATOM     13  C   UNL     1      46.608   8.007  12.486  0.00  0.00    +0.000 C 
ENDBRANCH   1  13
BRANCH   1  14
ATOM     14  C   UNL     1      47.338   5.949  13.824  0.00  0.00    +0.000 C 
BRANCH  14  15
ATOM     15  C   UNL     1      48.386   6.842  14.503  0.00  0.00    +0.000 C 
BRANCH  15  16
ATOM     16  C   UNL     1      48.827   6.251  15.826  0.00  0.00    +0.000 A 
ATOM     17  C   UNL     1      49.757   6.910  16.636  0.00  0.00    +0.000 A 
ATOM     18  C   UNL     1      50.113   6.380  17.878  0.00  0.00    +0.000 A 
ATOM     19  C   UNL     1      49.534   5.195  18.330  0.00  0.00    +0.000 A 
ATOM     20  C   UNL     1      48.591   4.523  17.543  0.00  0.00    +0.000 A 
ATOM     21  C   UNL     1      48.256   5.055  16.283  0.00  0.00    +0.000 A 
BRANCH  20  22
ATOM     22  C   UNL     1      47.942   3.251  18.027  0.00  0.00    +0.000 C 
BRANCH  22  23
ATOM     23  N   UNL     1      46.598   3.098  17.481  0.00  0.00    +0.000 NA
ATOM     24  H   UNL     1      46.034   2.574  18.150  0.00  0.00    +0.000 HD
ATOM     25  H   UNL     1      46.642   2.536  16.635  0.00  0.00    +0.000 HD
ENDBRANCH  22  23
ENDBRANCH  20  22
ENDBRANCH  15  16
ENDBRANCH  14  15
ENDBRANCH   1  14
TORSDOF 9
ENDMDL
