MODEL 1
REMARK VINA RESULT:    -7.929      0.000      0.000
REMARK INTER + INTRA:         -12.159
REMARK INTER:                 -11.638
REMARK INTRA:                  -0.521
REMARK UNBOUND:                -0.521
REMARK  Name = 
REMARK  9 active torsions:
REMARK  status: ('A' for Active; 'I' for Inactive)
REMARK    1  A    between atoms: N_1  and  C_2
REMARK    2  A    between atoms: C_2  and  C_3
REMARK    3  A    between atoms: C_2  and  C_26
REMARK    4  A    between atoms: C_3  and  C_4
REMARK    5  A    between atoms: C_7  and  CA_8
REMARK    6  A    between atoms: CA_8  and  C_9
REMARK    7  A    between atoms: CA_8  and  N_11
REMARK    8  A    between atoms: C_9  and  O_10
REMARK    9  A    between atoms: C_12  and  C_14
REMARK                            x       y       z     vdW  Elec       q    Type
REMARK                         _______ _______ _______ _____ _____    ______ ____
ROOT
ATOM      1  C   UNL     1      45.078   4.798  10.903  0.00  0.00    +0.000 A 
ATOM      2  C   UNL     1      45.877   5.766  10.290  0.00  0.00    +0.000 A 
ATOM      3  C   UNL     1      46.304   6.886  11.004  0.00  0.00    +0.000 A 
ATOM      4  C   UNL     1      45.935   7.081  12.348  0.00  0.00    +0.000 A 
ATOM      5  C   UNL     1      45.074   6.144  12.934  0.00  0.00    +0.000 A 
ATOM      6  C   UNL     1      44.654   5.014  12.221  0.00  0.00    +0.000 A 
ENDROOT
BRANCH   1   7
ATOM      7  C   UNL     1      44.744   3.517  10.172  0.00  0.00    +0.000 C 
BRANCH   7   8
ATOM      8  C   UNL     1      45.290   3.424   8.729  0.00  0.00    +0.000 C 
BRANCH   8   9
ATOM      9  C   UNL     1      45.827   2.006   8.380  0.00  0.00    +0.000 C 
ATOM     10  O   UNL     1      45.284   1.003   8.856  0.00  0.00    +0.000 OA
ATOM     11  N   UNL     1      46.920   1.888   7.531  0.00  0.00    +0.000 N 
ATOM     12  C   UNL     1      47.642   2.974   6.866  0.00  0.00    +0.000 C 
ATOM     13  C   UNL     1      47.440   2.880   5.349  0.00  0.00    +0.000 C 
ATOM     14  O   UNL     1      47.875   1.599   4.862  0.00  0.00    +0.000 OA
ATOM     15  C   UNL     1      47.134   0.532   5.483  0.00  0.00    +0.000 C 
ATOM     16  C   UNL     1      47.283   0.563   7.012  0.00  0.00    +0.000 C 
ENDBRANCH   8   9
BRANCH   8  17
ATOM     17  N   UNL     1      44.300   3.831   7.703  0.00  0.00    +0.000 NA
ATOM     18  H   UNL     1      43.379   3.477   7.950  0.00  0.00    +0.000 HD
ATOM     19  H   UNL     1      44.567   3.358   6.832  0.00  0.00    +0.000 HD
ENDBRANCH   8  17
ENDBRANCH   7   8
ENDBRANCH   1   7
BRANCH   4  20
ATOM     20  CA  UNL     1      46.552   8.252  13.099  0.00  0.00    +0.000 C 
BRANCH  20  21
ATOM     21  N   UNL     1      47.194   7.762  14.312  0.00  0.00    +0.000 N 
ATOM     22  C   UNL     1      48.231   6.872  14.290  0.00  0.00    +0.000 C 
ATOM     23  O   UNL     1      48.754   6.506  13.240  0.00  0.00    +0.000 OA
ATOM     24  H   UNL     1      46.664   7.887  15.170  0.00  0.00    +0.000 HD
BRANCH  22  25
ATOM     25  C   UNL     1      48.686   6.380  15.592  0.00  0.00    +0.000 A 
ATOM     26  C   UNL     1      49.666   7.064  16.300  0.00  0.00    +0.000 A 
ATOM     27  S   UNL     1      50.099   6.295  17.762  0.00  0.00    +0.000 S 
ATOM     28  C   UNL     1      49.027   5.007  17.468  0.00  0.00    +0.000 A 
ATOM     29  N   UNL     1      48.953   3.944  18.314  0.00  0.00    +0.000 NA
ATOM     30  C   UNL     1      48.136   3.018  17.935  0.00  0.00    +0.000 A 
ATOM     31  N   UNL     1      47.363   3.069  16.806  0.00  0.00    +0.000 N 
ATOM     32  C   UNL     1      47.339   4.162  15.971  0.00  0.00    +0.000 A 
ATOM     33  O   UNL     1      46.527   4.248  15.056  0.00  0.00    +0.000 OA
ATOM     34  C   UNL     1      48.302   5.191  16.306  0.00  0.00    +0.000 A 
ATOM     35  H   UNL     1      46.707   2.331  16.591  0.00  0.00    +0.000 HD
ENDBRANCH  22  25
ENDBRANCH  20  21
BRANCH  20  36
ATOM     36  C   UNL     1      47.544   9.131  12.296  0.00  0.00    +0.000 C 
BRANCH  36  37
ATOM     37  O   UNL     1      47.694  10.449  12.832  0.00  0.00    +0.000 OA
ATOM     38  H   UNL     1      47.455  11.094  12.137  0.00  0.00    +0.000 HD
ENDBRANCH  36  37
ENDBRANCH  20  36
ENDBRANCH   4  20
TORSDOF 9
ENDMDL
MODEL 2
REMARK VINA RESULT:    -7.114      2.566      3.464
REMARK INTER + INTRA:         -10.963
REMARK INTER:                  -9.575
REMARK INTRA:                  -1.389
REMARK UNBOUND:                -0.521
REMARK  Name = 
REMARK  9 active torsions:
REMARK  status: ('A' for Active; 'I' for Inactive)
REMARK    1  A    between atoms: N_1  and  C_2
REMARK    2  A    between atoms: C_2  and  C_3
REMARK    3  A    between atoms: C_2  and  C_26
REMARK    4  A    between atoms: C_3  and  C_4
REMARK    5  A    between atoms: C_7  and  CA_8
REMARK    6  A    between atoms: CA_8  and  C_9
REMARK    7  A    between atoms: CA_8  and  N_11
REMARK    8  A    between atoms: C_9  and  O_10
REMARK    9  A    between atoms: C_12  and  C_14
REMARK                            x       y       z     vdW  Elec       q    Type
REMARK                         _______ _______ _______ _____ _____    ______ ____
ROOT
ATOM      1  C   UNL     1      45.178   6.079  13.145  0.00  0.00    +0.000 A 
ATOM      2  C   UNL     1      45.367   7.390  12.699  0.00  0.00    +0.000 A 
ATOM      3  C   UNL     1      46.646   7.945  12.664  0.00  0.00    +0.000 A 
ATOM      4  C   UNL     1      47.774   7.215  13.083  0.00  0.00    +0.000 A 
ATOM      5  C   UNL     1      47.567   5.929  13.597  0.00  0.00    +0.000 A 
ATOM      6  C   UNL     1      46.284   5.366  13.624  0.00  0.00    +0.000 A 
ENDROOT
BRANCH   1   7
ATOM      7  C   UNL     1      43.814   5.434  13.041  0.00  0.00    +0.000 C 
BRANCH   7   8
ATOM      8  C   UNL     1      43.304   5.208  11.599  0.00  0.00    +0.000 C 
BRANCH   8   9
ATOM      9  C   UNL     1      43.680   3.805  11.042  0.00  0.00    +0.000 C 
ATOM     10  O   UNL     1      42.943   2.835  11.251  0.00  0.00    +0.000 OA
ATOM     11  N   UNL     1      44.852   3.663  10.310  0.00  0.00    +0.000 N 
ATOM     12  C   UNL     1      45.802   4.717   9.951  0.00  0.00    +0.000 C 
ATOM     13  C   UNL     1      45.798   4.925   8.431  0.00  0.00    +0.000 C 
ATOM     14  O   UNL     1      46.114   3.696   7.755  0.00  0.00    +0.000 OA
ATOM     15  C   UNL     1      45.154   2.672   8.072  0.00  0.00    +0.000 C 
ATOM     16  C   UNL     1      45.095   2.408   9.585  0.00  0.00    +0.000 C 
ENDBRANCH   8   9
BRANCH   8  17
ATOM     17  N   UNL     1      41.840   5.405  11.462  0.00  0.00    +0.000 NA
ATOM     18  H   UNL     1      41.512   4.984  10.596  0.00  0.00    +0.000 HD
ATOM     19  H   UNL     1      41.687   6.416  11.366  0.00  0.00    +0.000 HD
ENDBRANCH   8  17
ENDBRANCH   7   8
ENDBRANCH   1   7
BRANCH   4  20
ATOM     20  CA  UNL     1      49.148   7.839  12.885  0.00  0.00    +0.000 C 
BRANCH  20  21
ATOM     21  N   UNL     1      50.090   7.236  13.821  0.00  0.00    +0.000 N 
ATOM     22  C   UNL     1      50.418   7.817  15.013  0.00  0.00    +0.000 C 
ATOM     23  O   UNL     1      49.861   8.835  15.418  0.00  0.00    +0.000 OA
ATOM     24  H   UNL     1      50.698   6.522  13.431  0.00  0.00    +0.000 HD
BRANCH  22  25
ATOM     25  C   UNL     1      51.471   7.154  15.785  0.00  0.00    +0.000 A 
ATOM     26  C   UNL     1      52.796   7.552  15.655  0.00  0.00    +0.000 A 
ATOM     27  S   UNL     1      53.873   6.615  16.591  0.00  0.00    +0.000 S 
ATOM     28  C   UNL     1      52.611   5.625  17.157  0.00  0.00    +0.000 A 
ATOM     29  N   UNL     1      52.860   4.556  17.960  0.00  0.00    +0.000 NA
ATOM     30  C   UNL     1      51.812   3.864  18.267  0.00  0.00    +0.000 A 
ATOM     31  N   UNL     1      50.535   4.160  17.870  0.00  0.00    +0.000 N 
ATOM     32  C   UNL     1      50.226   5.280  17.133  0.00  0.00    +0.000 A 
ATOM     33  O   UNL     1      49.063   5.606  16.924  0.00  0.00    +0.000 OA
ATOM     34  C   UNL     1      51.378   6.041  16.691  0.00  0.00    +0.000 A 
ATOM     35  H   UNL     1      49.752   3.606  18.185  0.00  0.00    +0.000 HD
ENDBRANCH  22  25
ENDBRANCH  20  21
BRANCH  20  36
ATOM     36  C   UNL     1      49.724   7.778  11.448  0.00  0.00    +0.000 C 
BRANCH  36  37
ATOM     37  O   UNL     1      51.063   7.276  11.395  0.00  0.00    +0.000 OA
ATOM     38  H   UNL     1      51.537   7.735  10.674  0.00  0.00    +0.000 HD
ENDBRANCH  36  37
ENDBRANCH  20  36
ENDBRANCH   4  20
TORSDOF 9
ENDMDL
MODEL 3
REMARK VINA RESULT:    -7.076      5.108      7.520
REMARK INTER + INTRA:         -10.907
REMARK INTER:                  -9.329
REMARK INTRA:                  -1.578
REMARK UNBOUND:                -0.521
REMARK  Name = 
REMARK  9 active torsions:
REMARK  status: ('A' for Active; 'I' for Inactive)
REMARK    1  A    between atoms: N_1  and  C_2
REMARK    2  A    between atoms: C_2  and  C_3
REMARK    3  A    between atoms: C_2  and  C_26
REMARK    4  A    between atoms: C_3  and  C_4
REMARK    5  A    between atoms: C_7  and  CA_8
REMARK    6  A    between atoms: CA_8  and  C_9
REMARK    7  A    between atoms: CA_8  and  N_11
REMARK    8  A    between atoms: C_9  and  O_10
REMARK    9  A    between atoms: C_12  and  C_14
REMARK                            x       y       z     vdW  Elec       q    Type
REMARK                         _______ _______ _______ _____ _____    ______ ____
ROOT
ATOM      1  C   UNL     1      51.243   9.423  11.050  0.00  0.00    +0.000 A 
ATOM      2  C   UNL     1      50.204  10.140  11.648  0.00  0.00    +0.000 A 
ATOM      3  C   UNL     1      49.134   9.470  12.241  0.00  0.00    +0.000 A 
ATOM      4  C   UNL     1      49.062   8.065  12.246  0.00  0.00    +0.000 A 
ATOM      5  C   UNL     1      50.069   7.355  11.581  0.00  0.00    +0.000 A 
ATOM      6  C   UNL     1      51.150   8.026  10.993  0.00  0.00    +0.000 A 
ENDROOT
BRANCH   1   7
ATOM      7  C   UNL     1      52.470  10.147  10.542  0.00  0.00    +0.000 C 
BRANCH   7   8
ATOM      8  C   UNL     1      53.437   9.287   9.697  0.00  0.00    +0.000 C 
BRANCH   8   9
ATOM      9  C   UNL     1      53.281   9.534   8.169  0.00  0.00    +0.000 C 
ATOM     10  O   UNL     1      53.481  10.659   7.698  0.00  0.00    +0.000 OA
ATOM     11  N   UNL     1      52.915   8.475   7.348  0.00  0.00    +0.000 N 
ATOM     12  C   UNL     1      52.679   7.087   7.751  0.00  0.00    +0.000 C 
ATOM     13  C   UNL     1      53.749   6.179   7.132  0.00  0.00    +0.000 C 
ATOM     14  O   UNL     1      53.749   6.306   5.700  0.00  0.00    +0.000 OA
ATOM     15  C   UNL     1      54.025   7.662   5.303  0.00  0.00    +0.000 C 
ATOM     16  C   UNL     1      52.994   8.638   5.891  0.00  0.00    +0.000 C 
ENDBRANCH   8   9
BRANCH   8  17
ATOM     17  N   UNL     1      54.860   9.471  10.073  0.00  0.00    +0.000 NA
ATOM     18  H   UNL     1      55.284   8.570  10.278  0.00  0.00    +0.000 HD
ATOM     19  H   UNL     1      54.866  10.000  10.953  0.00  0.00    +0.000 HD
ENDBRANCH   8  17
ENDBRANCH   7   8
ENDBRANCH   1   7
BRANCH   4  20
ATOM     20  CA  UNL     1      47.937   7.407  13.032  0.00  0.00    +0.000 C 
BRANCH  20  21
ATOM     21  N   UNL     1      47.300   6.391  12.202  0.00  0.00    +0.000 N 
ATOM     22  C   UNL     1      46.160   6.630  11.488  0.00  0.00    +0.000 C 
ATOM     23  O   UNL     1      45.655   7.749  11.421  0.00  0.00    +0.000 OA
ATOM     24  H   UNL     1      47.573   5.432  12.396  0.00  0.00    +0.000 HD
BRANCH  22  25
ATOM     25  C   UNL     1      45.573   5.476  10.804  0.00  0.00    +0.000 A 
ATOM     26  C   UNL     1      45.597   5.392   9.418  0.00  0.00    +0.000 A 
ATOM     27  S   UNL     1      44.809   4.003   8.815  0.00  0.00    +0.000 S 
ATOM     28  C   UNL     1      44.374   3.500  10.382  0.00  0.00    +0.000 A 
ATOM     29  N   UNL     1      43.606   2.395  10.579  0.00  0.00    +0.000 NA
ATOM     30  C   UNL     1      43.311   2.166  11.817  0.00  0.00    +0.000 A 
ATOM     31  N   UNL     1      43.736   2.923  12.876  0.00  0.00    +0.000 N 
ATOM     32  C   UNL     1      44.586   3.995  12.730  0.00  0.00    +0.000 A 
ATOM     33  O   UNL     1      45.075   4.558  13.703  0.00  0.00    +0.000 OA
ATOM     34  C   UNL     1      44.877   4.344  11.354  0.00  0.00    +0.000 A 
ATOM     35  H   UNL     1      43.509   2.662  13.825  0.00  0.00    +0.000 HD
ENDBRANCH  22  25
ENDBRANCH  20  21
BRANCH  20  36
ATOM     36  C   UNL     1      48.328   6.797  14.401  0.00  0.00    +0.000 C 
BRANCH  36  37
ATOM     37  O   UNL     1      47.427   5.778  14.845  0.00  0.00    +0.000 OA
ATOM     38  H   UNL     1      47.882   4.915  14.785  0.00  0.00    +0.000 HD
ENDBRANCH  36  37
ENDBRANCH  20  36
ENDBRANCH   4  20
TORSDOF 9
ENDMDL
MODEL 4
REMARK VINA RESULT:    -7.068      2.492      3.295
REMARK INTER + INTRA:         -10.895
REMARK INTER:                 -10.388
REMARK INTRA:                  -0.507
REMARK UNBOUND:                -0.521
REMARK  Name = 
REMARK  9 active torsions:
REMARK  status: ('A' for Active; 'I' for Inactive)
REMARK    1  A    between atoms: N_1  and  C_2
REMARK    2  A    between atoms: C_2  and  C_3
REMARK    3  A    between atoms: C_2  and  C_26
REMARK    4  A    between atoms: C_3  and  C_4
REMARK    5  A    between atoms: C_7  and  CA_8
REMARK    6  A    between atoms: CA_8  and  C_9
REMARK    7  A    between atoms: CA_8  and  N_11
REMARK    8  A    between atoms: C_9  and  O_10
REMARK    9  A    between atoms: C_12  and  C_14
REMARK                            x       y       z     vdW  Elec       q    Type
REMARK                         _______ _______ _______ _____ _____    ______ ____
ROOT
ATOM      1  C   UNL     1      46.122   4.750  12.576  0.00  0.00    +0.000 A 
ATOM      2  C   UNL     1      46.489   6.071  12.306  0.00  0.00    +0.000 A 
ATOM      3  C   UNL     1      47.288   6.779  13.203  0.00  0.00    +0.000 A 
ATOM      4  C   UNL     1      47.735   6.196  14.404  0.00  0.00    +0.000 A 
ATOM      5  C   UNL     1      47.302   4.898  14.702  0.00  0.00    +0.000 A 
ATOM      6  C   UNL     1      46.508   4.182  13.797  0.00  0.00    +0.000 A 
ENDROOT
BRANCH   1   7
ATOM      7  C   UNL     1      45.384   3.941  11.533  0.00  0.00    +0.000 C 
BRANCH   7   8
ATOM      8  C   UNL     1      44.734   4.768  10.400  0.00  0.00    +0.000 C 
BRANCH   8   9
ATOM      9  C   UNL     1      45.600   4.800   9.108  0.00  0.00    +0.000 C 
ATOM     10  O   UNL     1      46.340   5.763   8.880  0.00  0.00    +0.000 OA
ATOM     11  N   UNL     1      45.526   3.735   8.220  0.00  0.00    +0.000 N 
ATOM     12  C   UNL     1      44.728   2.516   8.368  0.00  0.00    +0.000 C 
ATOM     13  C   UNL     1      45.655   1.305   8.530  0.00  0.00    +0.000 C 
ATOM     14  O   UNL     1      46.548   1.202   7.408  0.00  0.00    +0.000 OA
ATOM     15  C   UNL     1      47.365   2.381   7.289  0.00  0.00    +0.000 C 
ATOM     16  C   UNL     1      46.504   3.644   7.128  0.00  0.00    +0.000 C 
ENDBRANCH   8   9
BRANCH   8  17
ATOM     17  N   UNL     1      43.367   4.309  10.054  0.00  0.00    +0.000 NA
ATOM     18  H   UNL     1      42.690   4.722  10.690  0.00  0.00    +0.000 HD
ATOM     19  H   UNL     1      43.344   3.296  10.226  0.00  0.00    +0.000 HD
ENDBRANCH   8  17
ENDBRANCH   7   8
ENDBRANCH   1   7
BRANCH   4  20
ATOM     20  CA  UNL     1      48.714   6.983  15.263  0.00  0.00    +0.000 C 
BRANCH  20  21
ATOM     21  N   UNL     1      49.642   6.058  15.904  0.00  0.00    +0.000 N 
ATOM     22  C   UNL     1      49.705   5.896  17.259  0.00  0.00    +0.000 C 
ATOM     23  O   UNL     1      48.910   6.446  18.019  0.00  0.00    +0.000 OA
ATOM     24  H   UNL     1      50.424   5.755  15.331  0.00  0.00    +0.000 HD
BRANCH  22  25
ATOM     25  C   UNL     1      50.773   5.026  17.756  0.00  0.00    +0.000 A 
ATOM     26  C   UNL     1      51.871   5.566  18.414  0.00  0.00    +0.000 A 
ATOM     27  S   UNL     1      53.030   4.394  18.859  0.00  0.00    +0.000 S 
ATOM     28  C   UNL     1      52.122   3.143  18.146  0.00  0.00    +0.000 A 
ATOM     29  N   UNL     1      52.590   1.866  18.108  0.00  0.00    +0.000 NA
ATOM     30  C   UNL     1      51.818   1.035  17.488  0.00  0.00    +0.000 A 
ATOM     31  N   UNL     1      50.609   1.355  16.930  0.00  0.00    +0.000 N 
ATOM     32  C   UNL     1      50.058   2.612  17.023  0.00  0.00    +0.000 A 
ATOM     33  O   UNL     1      48.910   2.835  16.653  0.00  0.00    +0.000 OA
ATOM     34  C   UNL     1      50.923   3.601  17.633  0.00  0.00    +0.000 A 
ATOM     35  H   UNL     1      50.031   0.647  16.501  0.00  0.00    +0.000 HD
ENDBRANCH  22  25
ENDBRANCH  20  21
BRANCH  20  36
ATOM     36  C   UNL     1      49.503   8.106  14.544  0.00  0.00    +0.000 C 
BRANCH  36  37
ATOM     37  O   UNL     1      50.687   7.637  13.890  0.00  0.00    +0.000 OA
ATOM     38  H   UNL     1      51.317   8.381  13.822  0.00  0.00    +0.000 HD
ENDBRANCH  36  37
ENDBRANCH  20  36
ENDBRANCH   4  20
TORSDOF 9
ENDMDL
MODEL 5
REMARK VINA RESULT:    -6.969      3.080      4.493
REMARK INTER + INTRA:         -10.750
REMARK INTER:                  -9.459
REMARK INTRA:                  -1.290
REMARK UNBOUND:                -0.521
REMARK  Name = 
REMARK  9 active torsions:
REMARK  status: ('A' for Active; 'I' for Inactive)
REMARK    1  A    between atoms: N_1  and  C_2
REMARK    2  A    between atoms: C_2  and  C_3
REMARK    3  A    between atoms: C_2  and  C_26
REMARK    4  A    between atoms: C_3  and  C_4
REMARK    5  A    between atoms: C_7  and  CA_8
REMARK    6  A    between atoms: CA_8  and  C_9
REMARK    7  A    between atoms: CA_8  and  N_11
REMARK    8  A    between atoms: C_9  and  O_10
REMARK    9  A    between atoms: C_12  and  C_14
REMARK                            x       y       z     vdW  Elec       q    Type
REMARK                         _______ _______ _______ _____ _____    ______ ____
ROOT
ATOM      1  C   UNL     1      46.516   8.498  12.345  0.00  0.00    +0.000 A 
ATOM      2  C   UNL     1      47.205   7.393  12.851  0.00  0.00    +0.000 A 
ATOM      3  C   UNL     1      48.592   7.432  12.997  0.00  0.00    +0.000 A 
ATOM      4  C   UNL     1      49.335   8.570  12.631  0.00  0.00    +0.000 A 
ATOM      5  C   UNL     1      48.646   9.645  12.056  0.00  0.00    +0.000 A 
ATOM      6  C   UNL     1      47.252   9.611  11.918  0.00  0.00    +0.000 A 
ENDROOT
BRANCH   1   7
ATOM      7  C   UNL     1      45.004   8.505  12.329  0.00  0.00    +0.000 C 
BRANCH   7   8
ATOM      8  C   UNL     1      44.352   7.430  11.429  0.00  0.00    +0.000 C 
BRANCH   8   9
ATOM      9  C   UNL     1      44.374   6.014  12.074  0.00  0.00    +0.000 C 
ATOM     10  O   UNL     1      43.950   5.848  13.223  0.00  0.00    +0.000 OA
ATOM     11  N   UNL     1      44.877   4.947  11.341  0.00  0.00    +0.000 N 
ATOM     12  C   UNL     1      45.380   4.979   9.966  0.00  0.00    +0.000 C 
ATOM     13  C   UNL     1      44.457   4.159   9.056  0.00  0.00    +0.000 C 
ATOM     14  O   UNL     1      44.352   2.807   9.534  0.00  0.00    +0.000 OA
ATOM     15  C   UNL     1      43.815   2.772  10.869  0.00  0.00    +0.000 C 
ATOM     16  C   UNL     1      44.687   3.580  11.844  0.00  0.00    +0.000 C 
ENDBRANCH   8   9
BRANCH   8  17
ATOM     17  N   UNL     1      42.960   7.761  11.040  0.00  0.00    +0.000 NA
ATOM     18  H   UNL     1      42.443   8.093  11.849  0.00  0.00    +0.000 HD
ATOM     19  H   UNL     1      42.517   6.880  10.755  0.00  0.00    +0.000 HD
ENDBRANCH   8  17
ENDBRANCH   7   8
ENDBRANCH   1   7
BRANCH   4  20
ATOM     20  CA  UNL     1      50.823   8.588  12.949  0.00  0.00    +0.000 C 
BRANCH  20  21
ATOM     21  N   UNL     1      51.101   7.628  14.010  0.00  0.00    +0.000 N 
ATOM     22  C   UNL     1      51.668   7.987  15.201  0.00  0.00    +0.000 C 
ATOM     23  O   UNL     1      51.886   9.161  15.491  0.00  0.00    +0.000 OA
ATOM     24  H   UNL     1      51.119   6.653  13.725  0.00  0.00    +0.000 HD
BRANCH  22  25
ATOM     25  C   UNL     1      51.999   6.891  16.114  0.00  0.00    +0.000 A 
ATOM     26  C   UNL     1      53.324   6.572  16.379  0.00  0.00    +0.000 A 
ATOM     27  S   UNL     1      53.497   5.228  17.418  0.00  0.00    +0.000 S 
ATOM     28  C   UNL     1      51.812   5.007  17.505  0.00  0.00    +0.000 A 
ATOM     29  N   UNL     1      51.273   3.962  18.189  0.00  0.00    +0.000 NA
ATOM     30  C   UNL     1      49.984   3.891  18.122  0.00  0.00    +0.000 A 
ATOM     31  N   UNL     1      49.183   4.783  17.461  0.00  0.00    +0.000 N 
ATOM     32  C   UNL     1      49.678   5.902  16.832  0.00  0.00    +0.000 A 
ATOM     33  O   UNL     1      48.932   6.764  16.383  0.00  0.00    +0.000 OA
ATOM     34  C   UNL     1      51.125   5.981  16.805  0.00  0.00    +0.000 A 
ATOM     35  H   UNL     1      48.177   4.697  17.488  0.00  0.00    +0.000 HD
ENDBRANCH  22  25
ENDBRANCH  20  21
BRANCH  20  36
ATOM     36  C   UNL     1      51.779   8.342  11.754  0.00  0.00    +0.000 C 
BRANCH  36  37
ATOM     37  O   UNL     1      51.477   7.149  11.024  0.00  0.00    +0.000 OA
ATOM     38  H   UNL     1      52.124   7.059  10.297  0.00  0.00    +0.000 HD
ENDBRANCH  36  37
ENDBRANCH  20  36
ENDBRANCH   4  20
TORSDOF 9
ENDMDL
MODEL 6
REMARK VINA RESULT:    -6.956      4.417      8.383
REMARK INTER + INTRA:         -10.731
REMARK INTER:                  -9.275
REMARK INTRA:                  -1.456
REMARK UNBOUND:                -0.521
REMARK  Name = 
REMARK  9 active torsions:
REMARK  status: ('A' for Active; 'I' for Inactive)
REMARK    1  A    between atoms: N_1  and  C_2
REMARK    2  A    between atoms: C_2  and  C_3
REMARK    3  A    between atoms: C_2  and  C_26
REMARK    4  A    between atoms: C_3  and  C_4
REMARK    5  A    between atoms: C_7  and  CA_8
REMARK    6  A    between atoms: CA_8  and  C_9
REMARK    7  A    between atoms: CA_8  and  N_11
REMARK    8  A    between atoms: C_9  and  O_10
REMARK    9  A    between atoms: C_12  and  C_14
REMARK                            x       y       z     vdW  Elec       q    Type
REMARK                         _______ _______ _______ _____ _____    ______ ____
ROOT
ATOM      1  C   UNL     1      48.991   7.469  19.204  0.00  0.00    +0.000 A 
ATOM      2  C   UNL     1      47.816   8.071  18.750  0.00  0.00    +0.000 A 
ATOM      3  C   UNL     1      47.810   8.800  17.561  0.00  0.00    +0.000 A 
ATOM      4  C   UNL     1      48.980   8.962  16.795  0.00  0.00    +0.000 A 
ATOM      5  C   UNL     1      50.170   8.418  17.294  0.00  0.00    +0.000 A 
ATOM      6  C   UNL     1      50.174   7.676  18.484  0.00  0.00    +0.000 A 
ENDROOT
BRANCH   1   7
ATOM      7  C   UNL     1      48.958   6.558  20.411  0.00  0.00    +0.000 C 
BRANCH   7   8
ATOM      8  C   UNL     1      48.842   5.050  20.091  0.00  0.00    +0.000 C 
BRANCH   8   9
ATOM      9  C   UNL     1      50.122   4.478  19.417  0.00  0.00    +0.000 C 
ATOM     10  O   UNL     1      51.177   4.398  20.055  0.00  0.00    +0.000 OA
ATOM     11  N   UNL     1      50.059   4.064  18.093  0.00  0.00    +0.000 N 
ATOM     12  C   UNL     1      48.881   4.064  17.222  0.00  0.00    +0.000 C 
ATOM     13  C   UNL     1      48.489   2.622  16.879  0.00  0.00    +0.000 C 
ATOM     14  O   UNL     1      49.589   1.937  16.255  0.00  0.00    +0.000 OA
ATOM     15  C   UNL     1      50.733   1.897  17.128  0.00  0.00    +0.000 C 
ATOM     16  C   UNL     1      51.185   3.312  17.524  0.00  0.00    +0.000 C 
ENDBRANCH   8   9
BRANCH   8  17
ATOM     17  N   UNL     1      48.514   4.225  21.280  0.00  0.00    +0.000 NA
ATOM     18  H   UNL     1      47.621   3.758  21.143  0.00  0.00    +0.000 HD
ATOM     19  H   UNL     1      48.380   4.877  22.062  0.00  0.00    +0.000 HD
ENDBRANCH   8  17
ENDBRANCH   7   8
ENDBRANCH   1   7
BRANCH   4  20
ATOM     20  CA  UNL     1      48.864   9.652  15.444  0.00  0.00    +0.000 C 
BRANCH  20  21
ATOM     21  N   UNL     1      47.747   9.077  14.704  0.00  0.00    +0.000 N 
ATOM     22  C   UNL     1      47.909   8.096  13.766  0.00  0.00    +0.000 C 
ATOM     23  O   UNL     1      48.998   7.565  13.560  0.00  0.00    +0.000 OA
ATOM     24  H   UNL     1      46.891   9.624  14.707  0.00  0.00    +0.000 HD
BRANCH  22  25
ATOM     25  C   UNL     1      46.709   7.712  13.020  0.00  0.00    +0.000 A 
ATOM     26  C   UNL     1      46.031   8.646  12.248  0.00  0.00    +0.000 A 
ATOM     27  S   UNL     1      44.627   8.015  11.510  0.00  0.00    +0.000 S 
ATOM     28  C   UNL     1      44.859   6.494  12.237  0.00  0.00    +0.000 A 
ATOM     29  N   UNL     1      43.956   5.490  12.075  0.00  0.00    +0.000 NA
ATOM     30  C   UNL     1      44.236   4.411  12.729  0.00  0.00    +0.000 A 
ATOM     31  N   UNL     1      45.351   4.232  13.505  0.00  0.00    +0.000 N 
ATOM     32  C   UNL     1      46.334   5.187  13.624  0.00  0.00    +0.000 A 
ATOM     33  O   UNL     1      47.391   4.947  14.195  0.00  0.00    +0.000 OA
ATOM     34  C   UNL     1      46.024   6.448  12.979  0.00  0.00    +0.000 A 
ATOM     35  H   UNL     1      45.536   3.346  13.951  0.00  0.00    +0.000 HD
ENDBRANCH  22  25
ENDBRANCH  20  21
BRANCH  20  36
ATOM     36  C   UNL     1      48.735  11.196  15.475  0.00  0.00    +0.000 C 
BRANCH  36  37
ATOM     37  O   UNL     1      48.385  11.760  14.207  0.00  0.00    +0.000 OA
ATOM     38  H   UNL     1      49.199  11.853  13.675  0.00  0.00    +0.000 HD
ENDBRANCH  36  37
ENDBRANCH  20  36
ENDBRANCH   4  20
TORSDOF 9
ENDMDL
MODEL 7
REMARK VINA RESULT:    -6.854      3.433      5.301
REMARK INTER + INTRA:         -10.581
REMARK INTER:                  -9.926
REMARK INTRA:                  -0.655
REMARK UNBOUND:                -0.521
REMARK  Name = 
REMARK  9 active torsions:
REMARK  status: ('A' for Active; 'I' for Inactive)
REMARK    1  A    between atoms: N_1  and  C_2
REMARK    2  A    between atoms: C_2  and  C_3
REMARK    3  A    between atoms: C_2  and  C_26
REMARK    4  A    between atoms: C_3  and  C_4
REMARK    5  A    between atoms: C_7  and  CA_8
REMARK    6  A    between atoms: CA_8  and  C_9
REMARK    7  A    between atoms: CA_8  and  N_11
REMARK    8  A    between atoms: C_9  and  O_10
REMARK    9  A    between atoms: C_12  and  C_14
REMARK                            x       y       z     vdW  Elec       q    Type
REMARK                         _______ _______ _______ _____ _____    ______ ____
ROOT
ATOM      1  C   UNL     1      47.528   6.120  13.905  0.00  0.00    +0.000 A 
ATOM      2  C   UNL     1      48.470   6.954  13.297  0.00  0.00    +0.000 A 
ATOM      3  C   UNL     1      49.614   7.350  13.990  0.00  0.00    +0.000 A 
ATOM      4  C   UNL     1      49.848   6.936  15.315  0.00  0.00    +0.000 A 
ATOM      5  C   UNL     1      48.864   6.161  15.942  0.00  0.00    +0.000 A 
ATOM      6  C   UNL     1      47.719   5.755  15.243  0.00  0.00    +0.000 A 
ENDROOT
BRANCH   1   7
ATOM      7  C   UNL     1      46.369   5.575  13.101  0.00  0.00    +0.000 C 
BRANCH   7   8
ATOM      8  C   UNL     1      45.849   6.508  11.984  0.00  0.00    +0.000 C 
BRANCH   8   9
ATOM      9  C   UNL     1      45.472   5.737  10.686  0.00  0.00    +0.000 C 
ATOM     10  O   UNL     1      46.166   5.855   9.670  0.00  0.00    +0.000 OA
ATOM     11  N   UNL     1      44.348   4.922  10.688  0.00  0.00    +0.000 N 
ATOM     12  C   UNL     1      43.452   4.656  11.816  0.00  0.00    +0.000 C 
ATOM     13  C   UNL     1      43.562   3.184  12.230  0.00  0.00    +0.000 C 
ATOM     14  O   UNL     1      43.258   2.324  11.119  0.00  0.00    +0.000 OA
ATOM     15  C   UNL     1      44.167   2.554  10.026  0.00  0.00    +0.000 C 
ATOM     16  C   UNL     1      44.118   4.016   9.555  0.00  0.00    +0.000 C 
ENDBRANCH   8   9
BRANCH   8  17
ATOM     17  N   UNL     1      44.694   7.336  12.406  0.00  0.00    +0.000 NA
ATOM     18  H   UNL     1      44.048   7.455  11.630  0.00  0.00    +0.000 HD
ATOM     19  H   UNL     1      45.064   8.270  12.620  0.00  0.00    +0.000 HD
ENDBRANCH   8  17
ENDBRANCH   7   8
ENDBRANCH   1   7
BRANCH   4  20
ATOM     20  CA  UNL     1      51.181   7.295  15.954  0.00  0.00    +0.000 C 
BRANCH  20  21
ATOM     21  N   UNL     1      51.764   6.101  16.554  0.00  0.00    +0.000 N 
ATOM     22  C   UNL     1      51.773   5.882  17.903  0.00  0.00    +0.000 C 
ATOM     23  O   UNL     1      51.199   6.631  18.689  0.00  0.00    +0.000 OA
ATOM     24  H   UNL     1      52.406   5.582  15.962  0.00  0.00    +0.000 HD
BRANCH  22  25
ATOM     25  C   UNL     1      52.506   4.699  18.359  0.00  0.00    +0.000 A 
ATOM     26  C   UNL     1      53.681   4.836  19.088  0.00  0.00    +0.000 A 
ATOM     27  S   UNL     1      54.412   3.342  19.471  0.00  0.00    +0.000 S 
ATOM     28  C   UNL     1      53.209   2.474  18.636  0.00  0.00    +0.000 A 
ATOM     29  N   UNL     1      53.275   1.121  18.511  0.00  0.00    +0.000 NA
ATOM     30  C   UNL     1      52.322   0.605  17.805  0.00  0.00    +0.000 A 
ATOM     31  N   UNL     1      51.294   1.312  17.240  0.00  0.00    +0.000 N 
ATOM     32  C   UNL     1      51.140   2.668  17.417  0.00  0.00    +0.000 A 
ATOM     33  O   UNL     1      50.131   3.250  17.034  0.00  0.00    +0.000 OA
ATOM     34  C   UNL     1      52.230   3.306  18.128  0.00  0.00    +0.000 A 
ATOM     35  H   UNL     1      50.553   0.842  16.741  0.00  0.00    +0.000 HD
ENDBRANCH  22  25
ENDBRANCH  20  21
BRANCH  20  36
ATOM     36  C   UNL     1      52.219   7.979  15.030  0.00  0.00    +0.000 C 
BRANCH  36  37
ATOM     37  O   UNL     1      53.348   7.149  14.735  0.00  0.00    +0.000 OA
ATOM     38  H   UNL     1      53.435   7.081  13.763  0.00  0.00    +0.000 HD
ENDBRANCH  36  37
ENDBRANCH  20  36
ENDBRANCH   4  20
TORSDOF 9
ENDMDL
MODEL 8
REMARK VINA RESULT:    -6.844      5.225      7.813
REMARK INTER + INTRA:         -10.567
REMARK INTER:                  -9.076
REMARK INTRA:                  -1.491
REMARK UNBOUND:                -0.521
REMARK  Name = 
REMARK  9 active torsions:
REMARK  status: ('A' for Active; 'I' for Inactive)
REMARK    1  A    between atoms: N_1  and  C_2
REMARK    2  A    between atoms: C_2  and  C_3
REMARK    3  A    between atoms: C_2  and  C_26
REMARK    4  A    between atoms: C_3  and  C_4
REMARK    5  A    between atoms: C_7  and  CA_8
REMARK    6  A    between atoms: CA_8  and  C_9
REMARK    7  A    between atoms: CA_8  and  N_11
REMARK    8  A    between atoms: C_9  and  O_10
REMARK    9  A    between atoms: C_12  and  C_14
REMARK                            x       y       z     vdW  Elec       q    Type
REMARK                         _______ _______ _______ _____ _____    ______ ____
ROOT
ATOM      1  C   UNL     1      46.993   8.568  12.352  0.00  0.00    +0.000 A 
ATOM      2  C   UNL     1      47.618   9.791  12.607  0.00  0.00    +0.000 A 
ATOM      3  C   UNL     1      48.983   9.951  12.365  0.00  0.00    +0.000 A 
ATOM      4  C   UNL     1      49.768   8.892  11.873  0.00  0.00    +0.000 A 
ATOM      5  C   UNL     1      49.150   7.649  11.689  0.00  0.00    +0.000 A 
ATOM      6  C   UNL     1      47.777   7.490  11.922  0.00  0.00    +0.000 A 
ENDROOT
BRANCH   1   7
ATOM      7  C   UNL     1      45.491   8.445  12.473  0.00  0.00    +0.000 C 
BRANCH   7   8
ATOM      8  C   UNL     1      44.839   7.409  11.530  0.00  0.00    +0.000 C 
BRANCH   8   9
ATOM      9  C   UNL     1      44.694   6.007  12.187  0.00  0.00    +0.000 C 
ATOM     10  O   UNL     1      44.324   5.907  13.362  0.00  0.00    +0.000 OA
ATOM     11  N   UNL     1      44.986   4.876  11.436  0.00  0.00    +0.000 N 
ATOM     12  C   UNL     1      45.399   4.831  10.031  0.00  0.00    +0.000 C 
ATOM     13  C   UNL     1      44.309   4.155   9.191  0.00  0.00    +0.000 C 
ATOM     14  O   UNL     1      44.037   2.834   9.689  0.00  0.00    +0.000 OA
ATOM     15  C   UNL     1      43.588   2.881  11.056  0.00  0.00    +0.000 C 
ATOM     16  C   UNL     1      44.629   3.553  11.965  0.00  0.00    +0.000 C 
ENDBRANCH   8   9
BRANCH   8  17
ATOM     17  N   UNL     1      43.517   7.840  11.015  0.00  0.00    +0.000 NA
ATOM     18  H   UNL     1      43.636   8.572  10.320  0.00  0.00    +0.000 HD
ATOM     19  H   UNL     1      43.019   8.269  11.804  0.00  0.00    +0.000 HD
ENDBRANCH   8  17
ENDBRANCH   7   8
ENDBRANCH   1   7
BRANCH   4  20
ATOM     20  CA  UNL     1      51.216   9.183  11.505  0.00  0.00    +0.000 C 
BRANCH  20  21
ATOM     21  N   UNL     1      51.603   8.345  10.376  0.00  0.00    +0.000 N 
ATOM     22  C   UNL     1      52.848   7.796  10.257  0.00  0.00    +0.000 C 
ATOM     23  O   UNL     1      53.690   7.891  11.147  0.00  0.00    +0.000 OA
ATOM     24  H   UNL     1      51.011   8.418   9.553  0.00  0.00    +0.000 HD
BRANCH  22  25
ATOM     25  C   UNL     1      53.123   7.084   9.007  0.00  0.00    +0.000 A 
ATOM     26  C   UNL     1      53.381   5.719   9.017  0.00  0.00    +0.000 A 
ATOM     27  S   UNL     1      53.736   5.092   7.469  0.00  0.00    +0.000 S 
ATOM     28  C   UNL     1      53.603   6.630   6.752  0.00  0.00    +0.000 A 
ATOM     29  N   UNL     1      53.862   6.816   5.430  0.00  0.00    +0.000 NA
ATOM     30  C   UNL     1      53.773   8.045   5.038  0.00  0.00    +0.000 A 
ATOM     31  N   UNL     1      53.419   9.099   5.838  0.00  0.00    +0.000 N 
ATOM     32  C   UNL     1      53.062   8.943   7.158  0.00  0.00    +0.000 A 
ATOM     33  O   UNL     1      52.601   9.874   7.808  0.00  0.00    +0.000 OA
ATOM     34  C   UNL     1      53.229   7.596   7.667  0.00  0.00    +0.000 A 
ATOM     35  H   UNL     1      53.321  10.029   5.458  0.00  0.00    +0.000 HD
ENDBRANCH  22  25
ENDBRANCH  20  21
BRANCH  20  36
ATOM     36  C   UNL     1      51.559  10.663  11.203  0.00  0.00    +0.000 C 
BRANCH  36  37
ATOM     37  O   UNL     1      51.228  11.060   9.868  0.00  0.00    +0.000 OA
ATOM     38  H   UNL     1      51.362  12.025   9.790  0.00  0.00    +0.000 HD
ENDBRANCH  36  37
ENDBRANCH  20  36
ENDBRANCH   4  20
TORSDOF 9
ENDMDL
MODEL 9
REMARK VINA RESULT:    -6.766      4.360      9.021
REMARK INTER + INTRA:         -10.452
REMARK INTER:                  -8.859
REMARK INTRA:                  -1.593
REMARK UNBOUND:                -0.521
REMARK  Name = 
REMARK  9 active torsions:
REMARK  status: ('A' for Active; 'I' for Inactive)
REMARK    1  A    between atoms: N_1  and  C_2
REMARK    2  A    between atoms: C_2  and  C_3
REMARK    3  A    between atoms: C_2  and  C_26
REMARK    4  A    between atoms: C_3  and  C_4
REMARK    5  A    between atoms: C_7  and  CA_8
REMARK    6  A    between atoms: CA_8  and  C_9
REMARK    7  A    between atoms: CA_8  and  N_11
REMARK    8  A    between atoms: C_9  and  O_10
REMARK    9  A    between atoms: C_12  and  C_14
REMARK                            x       y       z     vdW  Elec       q    Type
REMARK                         _______ _______ _______ _____ _____    ______ ____
ROOT
ATOM      1  C   UNL     1      50.884   6.564  18.286  0.00  0.00    +0.000 A 
ATOM      2  C   UNL     1      51.512   6.732  17.050  0.00  0.00    +0.000 A 
ATOM      3  C   UNL     1      50.785   7.164  15.941  0.00  0.00    +0.000 A 
ATOM      4  C   UNL     1      49.406   7.429  16.028  0.00  0.00    +0.000 A 
ATOM      5  C   UNL     1      48.768   7.188  17.251  0.00  0.00    +0.000 A 
ATOM      6  C   UNL     1      49.500   6.764  18.369  0.00  0.00    +0.000 A 
ENDROOT
BRANCH   1   7
ATOM      7  C   UNL     1      51.703   6.241  19.515  0.00  0.00    +0.000 C 
BRANCH   7   8
ATOM      8  C   UNL     1      51.590   4.783  20.015  0.00  0.00    +0.000 C 
BRANCH   8   9
ATOM      9  C   UNL     1      52.723   3.870  19.465  0.00  0.00    +0.000 C 
ATOM     10  O   UNL     1      53.784   3.753  20.088  0.00  0.00    +0.000 OA
ATOM     11  N   UNL     1      52.523   3.194  18.268  0.00  0.00    +0.000 N 
ATOM     12  C   UNL     1      51.315   3.204  17.439  0.00  0.00    +0.000 C 
ATOM     13  C   UNL     1      50.678   1.809  17.434  0.00  0.00    +0.000 C 
ATOM     14  O   UNL     1      51.617   0.829  16.961  0.00  0.00    +0.000 OA
ATOM     15  C   UNL     1      52.785   0.787  17.802  0.00  0.00    +0.000 C 
ATOM     16  C   UNL     1      53.481   2.156  17.864  0.00  0.00    +0.000 C 
ENDBRANCH   8   9
BRANCH   8  17
ATOM     17  N   UNL     1      51.558   4.674  21.494  0.00  0.00    +0.000 NA
ATOM     18  H   UNL     1      50.815   4.042  21.780  0.00  0.00    +0.000 HD
ATOM     19  H   UNL     1      51.302   5.602  21.851  0.00  0.00    +0.000 HD
ENDBRANCH   8  17
ENDBRANCH   7   8
ENDBRANCH   1   7
BRANCH   4  20
ATOM     20  CA  UNL     1      48.712   8.028  14.813  0.00  0.00    +0.000 C 
BRANCH  20  21
ATOM     21  N   UNL     1      47.630   7.145  14.393  0.00  0.00    +0.000 N 
ATOM     22  C   UNL     1      47.772   6.232  13.386  0.00  0.00    +0.000 C 
ATOM     23  O   UNL     1      48.853   6.028  12.838  0.00  0.00    +0.000 OA
ATOM     24  H   UNL     1      46.698   7.427  14.681  0.00  0.00    +0.000 HD
BRANCH  22  25
ATOM     25  C   UNL     1      46.560   5.508  12.997  0.00  0.00    +0.000 A 
ATOM     26  C   UNL     1      46.497   4.126  13.116  0.00  0.00    +0.000 A 
ATOM     27  S   UNL     1      45.025   3.469  12.553  0.00  0.00    +0.000 S 
ATOM     28  C   UNL     1      44.451   5.003  12.093  0.00  0.00    +0.000 A 
ATOM     29  N   UNL     1      43.253   5.148  11.465  0.00  0.00    +0.000 NA
ATOM     30  C   UNL     1      42.972   6.364  11.127  0.00  0.00    +0.000 A 
ATOM     31  N   UNL     1      43.764   7.451  11.385  0.00  0.00    +0.000 N 
ATOM     32  C   UNL     1      44.939   7.363  12.095  0.00  0.00    +0.000 A 
ATOM     33  O   UNL     1      45.549   8.366  12.447  0.00  0.00    +0.000 OA
ATOM     34  C   UNL     1      45.340   6.009  12.421  0.00  0.00    +0.000 A 
ATOM     35  H   UNL     1      43.464   8.383  11.136  0.00  0.00    +0.000 HD
ENDBRANCH  22  25
ENDBRANCH  20  21
BRANCH  20  36
ATOM     36  C   UNL     1      48.178   9.473  14.975  0.00  0.00    +0.000 C 
BRANCH  36  37
ATOM     37  O   UNL     1      47.658  10.024  13.761  0.00  0.00    +0.000 OA
ATOM     38  H   UNL     1      47.123   9.338  13.314  0.00  0.00    +0.000 HD
ENDBRANCH  36  37
ENDBRANCH  20  36
ENDBRANCH   4  20
TORSDOF 9
ENDMDL
