MODEL 1
REMARK VINA RESULT:    -7.330      0.000      0.000
REMARK INTER + INTRA:         -12.010
REMARK INTER:                 -10.544
REMARK INTRA:                  -1.466
REMARK UNBOUND:                -1.466
REMARK  Name = 
REMARK  8 active torsions:
REMARK  status: ('A' for Active; 'I' for Inactive)
REMARK    1  A    between atoms: C_2  and  C_22
REMARK    2  A    between atoms: N_3  and  C_4
REMARK    3  A    between atoms: C_4  and  C_5
REMARK    4  A    between atoms: C_8  and  C_9
REMARK    5  A    between atoms: C_9  and  N_10
REMARK    6  A    between atoms: N_10  and  C_11
REMARK    7  A    between atoms: C_11  and  C_12
REMARK    8  A    between atoms: C_12  and  O_13
REMARK                            x       y       z     vdW  Elec       q    Type
REMARK                         _______ _______ _______ _____ _____    ______ ____
ROOT
ATOM      1  C   UNL     1      46.953   8.221  13.163  0.00  0.00    +0.000 A 
ATOM      2  C   UNL     1      45.683   8.775  12.961  0.00  0.00    +0.000 A 
ATOM      3  C   UNL     1      44.789   8.209  12.047  0.00  0.00    +0.000 A 
ATOM      4  C   UNL     1      45.123   7.038  11.351  0.00  0.00    +0.000 A 
ATOM      5  C   UNL     1      46.429   6.536  11.477  0.00  0.00    +0.000 A 
ATOM      6  C   UNL     1      47.333   7.121  12.379  0.00  0.00    +0.000 A 
ENDROOT
BRANCH   1   7
ATOM      7  C   UNL     1      47.842   8.767  14.255  0.00  0.00    +0.000 C 
BRANCH   7  10
ATOM      8  O   UNL     1      50.275   7.366  14.703  0.00  0.00    +0.000 OA
ATOM      9  C   UNL     1      49.320   7.156  15.449  0.00  0.00    +0.000 C 
ATOM     10  N   UNL     1      48.109   7.773  15.276  0.00  0.00    +0.000 N 
ATOM     11  H   UNL     1      47.393   7.671  15.989  0.00  0.00    +0.000 HD
BRANCH   9  12
ATOM     12  C   UNL     1      49.414   6.189  16.555  0.00  0.00    +0.000 A 
ATOM     13  C   UNL     1      50.369   6.366  17.553  0.00  0.00    +0.000 A 
ATOM     14  S   UNL     1      50.343   5.154  18.751  0.00  0.00    +0.000 S 
ATOM     15  C   UNL     1      49.027   4.371  18.014  0.00  0.00    +0.000 A 
ATOM     16  N   UNL     1      48.475   3.258  18.568  0.00  0.00    +0.000 NA
ATOM     17  C   UNL     1      47.455   2.790  17.929  0.00  0.00    +0.000 A 
ATOM     18  N   UNL     1      46.948   3.328  16.774  0.00  0.00    +0.000 N 
ATOM     19  C   UNL     1      47.526   4.398  16.136  0.00  0.00    +0.000 A 
ATOM     20  O   UNL     1      47.133   4.757  15.030  0.00  0.00    +0.000 OA
ATOM     21  C   UNL     1      48.638   5.001  16.844  0.00  0.00    +0.000 A 
ATOM     22  H   UNL     1      46.172   2.893  16.303  0.00  0.00    +0.000 HD
ENDBRANCH   9  12
ENDBRANCH   7  10
ENDBRANCH   1   7
BRANCH   4  23
ATOM     23  C   UNL     1      44.015   6.196  10.748  0.00  0.00    +0.000 C 
BRANCH  23  24
ATOM     24  N   UNL     1      44.039   4.738  10.792  0.00  0.00    +0.000 N 
ATOM     25  C   UNL     1      44.615   4.081   9.697  0.00  0.00    +0.000 A 
ATOM     26  C   UNL     1      45.587   4.680   8.873  0.00  0.00    +0.000 A 
ATOM     27  N   UNL     1      46.173   4.086   7.799  0.00  0.00    +0.000 NA
ATOM     28  C   UNL     1      45.767   2.827   7.558  0.00  0.00    +0.000 A 
ATOM     29  C   UNL     1      44.829   2.202   8.355  0.00  0.00    +0.000 A 
ATOM     30  N   UNL     1      44.251   2.807   9.422  0.00  0.00    +0.000 NA
BRANCH  24  31
ATOM     31  C   UNL     1      43.178   3.935  11.670  0.00  0.00    +0.000 C 
BRANCH  31  32
ATOM     32  C   UNL     1      43.532   4.147  13.157  0.00  0.00    +0.000 C 
BRANCH  32  33
ATOM     33  O   UNL     1      44.925   3.919  13.386  0.00  0.00    +0.000 OA
ATOM     34  H   UNL     1      45.130   3.049  13.005  0.00  0.00    +0.000 HD
ENDBRANCH  32  33
ENDBRANCH  31  32
ENDBRANCH  24  31
ENDBRANCH  23  24
ENDBRANCH   4  23
TORSDOF 8
ENDMDL
MODEL 2
REMARK VINA RESULT:    -6.829      2.826      7.680
REMARK INTER + INTRA:         -11.289
REMARK INTER:                  -9.908
REMARK INTRA:                  -1.381
REMARK UNBOUND:                -1.466
REMARK  Name = 
REMARK  8 active torsions:
REMARK  status: ('A' for Active; 'I' for Inactive)
REMARK    1  A    between atoms: C_2  and  C_22
REMARK    2  A    between atoms: N_3  and  C_4
REMARK    3  A    between atoms: C_4  and  C_5
REMARK    4  A    between atoms: C_8  and  C_9
REMARK    5  A    between atoms: C_9  and  N_10
REMARK    6  A    between atoms: N_10  and  C_11
REMARK    7  A    between atoms: C_11  and  C_12
REMARK    8  A    between atoms: C_12  and  O_13
REMARK                            x       y       z     vdW  Elec       q    Type
REMARK                         _______ _______ _______ _____ _____    ______ ____
ROOT
ATOM      1  C   UNL     1      48.354   8.014  13.293  0.00  0.00    +0.000 A 
ATOM      2  C   UNL     1      49.518   7.312  13.627  0.00  0.00    +0.000 A 
ATOM      3  C   UNL     1      49.991   7.291  14.943  0.00  0.00    +0.000 A 
ATOM      4  C   UNL     1      49.279   7.927  15.970  0.00  0.00    +0.000 A 
ATOM      5  C   UNL     1      48.167   8.711  15.624  0.00  0.00    +0.000 A 
ATOM      6  C   UNL     1      47.707   8.750  14.297  0.00  0.00    +0.000 A 
ENDROOT
BRANCH   1   7
ATOM      7  C   UNL     1      47.789   7.903  11.896  0.00  0.00    +0.000 C 
BRANCH   7  10
ATOM      8  O   UNL     1      44.973   7.606  12.146  0.00  0.00    +0.000 OA
ATOM      9  C   UNL     1      45.651   6.627  11.836  0.00  0.00    +0.000 C 
ATOM     10  N   UNL     1      47.016   6.690  11.725  0.00  0.00    +0.000 N 
ATOM     11  H   UNL     1      47.519   5.896  11.340  0.00  0.00    +0.000 HD
BRANCH   9  12
ATOM     12  C   UNL     1      45.032   5.312  11.605  0.00  0.00    +0.000 A 
ATOM     13  C   UNL     1      44.323   4.688  12.629  0.00  0.00    +0.000 A 
ATOM     14  S   UNL     1      43.678   3.171  12.193  0.00  0.00    +0.000 S 
ATOM     15  C   UNL     1      44.277   3.307  10.608  0.00  0.00    +0.000 A 
ATOM     16  N   UNL     1      44.035   2.338   9.683  0.00  0.00    +0.000 NA
ATOM     17  C   UNL     1      44.510   2.588   8.509  0.00  0.00    +0.000 A 
ATOM     18  N   UNL     1      45.219   3.714   8.181  0.00  0.00    +0.000 N 
ATOM     19  C   UNL     1      45.557   4.675   9.102  0.00  0.00    +0.000 A 
ATOM     20  O   UNL     1      46.317   5.591   8.804  0.00  0.00    +0.000 OA
ATOM     21  C   UNL     1      44.996   4.476  10.424  0.00  0.00    +0.000 A 
ATOM     22  H   UNL     1      45.595   3.833   7.254  0.00  0.00    +0.000 HD
ENDBRANCH   9  12
ENDBRANCH   7  10
ENDBRANCH   1   7
BRANCH   4  23
ATOM     23  C   UNL     1      49.529   7.514  17.408  0.00  0.00    +0.000 C 
BRANCH  23  24
ATOM     24  N   UNL     1      48.597   6.668  18.144  0.00  0.00    +0.000 N 
ATOM     25  C   UNL     1      48.545   5.317  17.780  0.00  0.00    +0.000 A 
ATOM     26  C   UNL     1      49.627   4.647  17.177  0.00  0.00    +0.000 A 
ATOM     27  N   UNL     1      49.624   3.340  16.802  0.00  0.00    +0.000 NA
ATOM     28  C   UNL     1      48.483   2.680  17.063  0.00  0.00    +0.000 A 
ATOM     29  C   UNL     1      47.408   3.298  17.668  0.00  0.00    +0.000 A 
ATOM     30  N   UNL     1      47.423   4.604  18.035  0.00  0.00    +0.000 NA
BRANCH  24  31
ATOM     31  C   UNL     1      47.468   7.188  18.928  0.00  0.00    +0.000 C 
BRANCH  31  32
ATOM     32  C   UNL     1      47.664   6.936  20.438  0.00  0.00    +0.000 C 
BRANCH  32  33
ATOM     33  O   UNL     1      46.965   5.760  20.853  0.00  0.00    +0.000 OA
ATOM     34  H   UNL     1      46.504   5.420  20.067  0.00  0.00    +0.000 HD
ENDBRANCH  32  33
ENDBRANCH  31  32
ENDBRANCH  24  31
ENDBRANCH  23  24
ENDBRANCH   4  23
TORSDOF 8
ENDMDL
MODEL 3
REMARK VINA RESULT:    -6.577      3.084      8.387
REMARK INTER + INTRA:         -10.926
REMARK INTER:                  -9.424
REMARK INTRA:                  -1.502
REMARK UNBOUND:                -1.466
REMARK  Name = 
REMARK  8 active torsions:
REMARK  status: ('A' for Active; 'I' for Inactive)
REMARK    1  A    between atoms: C_2  and  C_22
REMARK    2  A    between atoms: N_3  and  C_4
REMARK    3  A    between atoms: C_4  and  C_5
REMARK    4  A    between atoms: C_8  and  C_9
REMARK    5  A    between atoms: C_9  and  N_10
REMARK    6  A    between atoms: N_10  and  C_11
REMARK    7  A    between atoms: C_11  and  C_12
REMARK    8  A    between atoms: C_12  and  O_13
REMARK                            x       y       z     vdW  Elec       q    Type
REMARK                         _______ _______ _______ _____ _____    ______ ____
ROOT
ATOM      1  C   UNL     1      48.418   8.079  13.386  0.00  0.00    +0.000 A 
ATOM      2  C   UNL     1      49.572   7.344  13.683  0.00  0.00    +0.000 A 
ATOM      3  C   UNL     1      50.084   7.308  14.984  0.00  0.00    +0.000 A 
ATOM      4  C   UNL     1      49.422   7.960  16.033  0.00  0.00    +0.000 A 
ATOM      5  C   UNL     1      48.321   8.776  15.722  0.00  0.00    +0.000 A 
ATOM      6  C   UNL     1      47.822   8.830  14.410  0.00  0.00    +0.000 A 
ENDROOT
BRANCH   1   7
ATOM      7  C   UNL     1      47.807   7.987  12.007  0.00  0.00    +0.000 C 
BRANCH   7  10
ATOM      8  O   UNL     1      45.043   7.619  12.559  0.00  0.00    +0.000 OA
ATOM      9  C   UNL     1      45.692   6.676  12.106  0.00  0.00    +0.000 C 
ATOM     10  N   UNL     1      47.033   6.773  11.843  0.00  0.00    +0.000 N 
ATOM     11  H   UNL     1      47.498   6.017  11.349  0.00  0.00    +0.000 HD
BRANCH   9  12
ATOM     12  C   UNL     1      45.065   5.368  11.858  0.00  0.00    +0.000 A 
ATOM     13  C   UNL     1      44.380   4.721  12.883  0.00  0.00    +0.000 A 
ATOM     14  S   UNL     1      43.721   3.215  12.426  0.00  0.00    +0.000 S 
ATOM     15  C   UNL     1      44.283   3.388  10.831  0.00  0.00    +0.000 A 
ATOM     16  N   UNL     1      44.018   2.443   9.889  0.00  0.00    +0.000 NA
ATOM     17  C   UNL     1      44.465   2.720   8.710  0.00  0.00    +0.000 A 
ATOM     18  N   UNL     1      45.168   3.853   8.393  0.00  0.00    +0.000 N 
ATOM     19  C   UNL     1      45.529   4.792   9.329  0.00  0.00    +0.000 A 
ATOM     20  O   UNL     1      46.284   5.714   9.035  0.00  0.00    +0.000 OA
ATOM     21  C   UNL     1      45.000   4.561  10.658  0.00  0.00    +0.000 A 
ATOM     22  H   UNL     1      45.522   3.994   7.460  0.00  0.00    +0.000 HD
ENDBRANCH   9  12
ENDBRANCH   7  10
ENDBRANCH   1   7
BRANCH   4  23
ATOM     23  C   UNL     1      49.704   7.538  17.462  0.00  0.00    +0.000 C 
BRANCH  23  24
ATOM     24  N   UNL     1      48.896   6.536  18.148  0.00  0.00    +0.000 N 
ATOM     25  C   UNL     1      48.347   6.903  19.383  0.00  0.00    +0.000 A 
ATOM     26  C   UNL     1      48.082   8.240  19.733  0.00  0.00    +0.000 A 
ATOM     27  N   UNL     1      47.554   8.647  20.919  0.00  0.00    +0.000 NA
ATOM     28  C   UNL     1      47.270   7.655  21.780  0.00  0.00    +0.000 A 
ATOM     29  C   UNL     1      47.500   6.331  21.465  0.00  0.00    +0.000 A 
ATOM     30  N   UNL     1      48.029   5.940  20.279  0.00  0.00    +0.000 NA
BRANCH  24  31
ATOM     31  C   UNL     1      48.949   5.099  17.845  0.00  0.00    +0.000 C 
BRANCH  31  32
ATOM     32  C   UNL     1      47.682   4.632  17.097  0.00  0.00    +0.000 C 
BRANCH  32  33
ATOM     33  O   UNL     1      46.697   4.149  18.015  0.00  0.00    +0.000 OA
ATOM     34  H   UNL     1      46.228   3.429  17.563  0.00  0.00    +0.000 HD
ENDBRANCH  32  33
ENDBRANCH  31  32
ENDBRANCH  24  31
ENDBRANCH  23  24
ENDBRANCH   4  23
TORSDOF 8
ENDMDL
MODEL 4
REMARK VINA RESULT:    -6.415      1.971      2.336
REMARK INTER + INTRA:         -10.693
REMARK INTER:                  -9.361
REMARK INTRA:                  -1.332
REMARK UNBOUND:                -1.466
REMARK  Name = 
REMARK  8 active torsions:
REMARK  status: ('A' for Active; 'I' for Inactive)
REMARK    1  A    between atoms: C_2  and  C_22
REMARK    2  A    between atoms: N_3  and  C_4
REMARK    3  A    between atoms: C_4  and  C_5
REMARK    4  A    between atoms: C_8  and  C_9
REMARK    5  A    between atoms: C_9  and  N_10
REMARK    6  A    between atoms: N_10  and  C_11
REMARK    7  A    between atoms: C_11  and  C_12
REMARK    8  A    between atoms: C_12  and  O_13
REMARK                            x       y       z     vdW  Elec       q    Type
REMARK                         _______ _______ _______ _____ _____    ______ ____
ROOT
ATOM      1  C   UNL     1      48.958   8.446  13.473  0.00  0.00    +0.000 A 
ATOM      2  C   UNL     1      47.692   8.771  13.975  0.00  0.00    +0.000 A 
ATOM      3  C   UNL     1      46.530   8.351  13.319  0.00  0.00    +0.000 A 
ATOM      4  C   UNL     1      46.605   7.548  12.173  0.00  0.00    +0.000 A 
ATOM      5  C   UNL     1      47.870   7.302  11.612  0.00  0.00    +0.000 A 
ATOM      6  C   UNL     1      49.035   7.744  12.260  0.00  0.00    +0.000 A 
ENDROOT
BRANCH   1   7
ATOM      7  C   UNL     1      50.191   8.789  14.276  0.00  0.00    +0.000 C 
BRANCH   7  10
ATOM      8  O   UNL     1      50.748   6.501  15.868  0.00  0.00    +0.000 OA
ATOM      9  C   UNL     1      50.284   7.504  16.408  0.00  0.00    +0.000 C 
ATOM     10  N   UNL     1      49.965   8.633  15.699  0.00  0.00    +0.000 N 
ATOM     11  H   UNL     1      49.712   9.479  16.200  0.00  0.00    +0.000 HD
BRANCH   9  12
ATOM     12  C   UNL     1      50.006   7.534  17.853  0.00  0.00    +0.000 A 
ATOM     13  C   UNL     1      50.745   8.371  18.685  0.00  0.00    +0.000 A 
ATOM     14  S   UNL     1      50.297   8.277  20.328  0.00  0.00    +0.000 S 
ATOM     15  C   UNL     1      49.068   7.153  19.988  0.00  0.00    +0.000 A 
ATOM     16  N   UNL     1      48.259   6.680  20.975  0.00  0.00    +0.000 NA
ATOM     17  C   UNL     1      47.341   5.867  20.572  0.00  0.00    +0.000 A 
ATOM     18  N   UNL     1      47.169   5.471  19.271  0.00  0.00    +0.000 N 
ATOM     19  C   UNL     1      48.014   5.858  18.259  0.00  0.00    +0.000 A 
ATOM     20  O   UNL     1      47.917   5.366  17.139  0.00  0.00    +0.000 OA
ATOM     21  C   UNL     1      49.026   6.820  18.644  0.00  0.00    +0.000 A 
ATOM     22  H   UNL     1      46.455   4.805  19.027  0.00  0.00    +0.000 HD
ENDBRANCH   9  12
ENDBRANCH   7  10
ENDBRANCH   1   7
BRANCH   4  23
ATOM     23  C   UNL     1      45.395   6.733  11.760  0.00  0.00    +0.000 C 
BRANCH  23  24
ATOM     24  N   UNL     1      45.369   5.278  11.861  0.00  0.00    +0.000 N 
ATOM     25  C   UNL     1      45.190   4.565  10.669  0.00  0.00    +0.000 A 
ATOM     26  C   UNL     1      45.551   5.080   9.410  0.00  0.00    +0.000 A 
ATOM     27  N   UNL     1      45.395   4.429   8.226  0.00  0.00    +0.000 NA
ATOM     28  C   UNL     1      44.863   3.198   8.324  0.00  0.00    +0.000 A 
ATOM     29  C   UNL     1      44.514   2.653   9.543  0.00  0.00    +0.000 A 
ATOM     30  N   UNL     1      44.673   3.315  10.716  0.00  0.00    +0.000 NA
BRANCH  24  31
ATOM     31  C   UNL     1      45.120   4.552  13.113  0.00  0.00    +0.000 C 
BRANCH  31  32
ATOM     32  C   UNL     1      46.408   4.414  13.952  0.00  0.00    +0.000 C 
BRANCH  32  33
ATOM     33  O   UNL     1      46.944   3.092  13.848  0.00  0.00    +0.000 OA
ATOM     34  H   UNL     1      47.078   2.776  14.758  0.00  0.00    +0.000 HD
ENDBRANCH  32  33
ENDBRANCH  31  32
ENDBRANCH  24  31
ENDBRANCH  23  24
ENDBRANCH   4  23
TORSDOF 8
ENDMDL
MODEL 5
REMARK VINA RESULT:    -6.233      2.905      7.456
REMARK INTER + INTRA:         -10.432
REMARK INTER:                  -9.220
REMARK INTRA:                  -1.212
REMARK UNBOUND:                -1.466
REMARK  Name = 
REMARK  8 active torsions:
REMARK  status: ('A' for Active; 'I' for Inactive)
REMARK    1  A    between atoms: C_2  and  C_22
REMARK    2  A    between atoms: N_3  and  C_4
REMARK    3  A    between atoms: C_4  and  C_5
REMARK    4  A    between atoms: C_8  and  C_9
REMARK    5  A    between atoms: C_9  and  N_10
REMARK    6  A    between atoms: N_10  and  C_11
REMARK    7  A    between atoms: C_11  and  C_12
REMARK    8  A    between atoms: C_12  and  O_13
REMARK                            x       y       z     vdW  Elec       q    Type
REMARK                         _______ _______ _______ _____ _____    ______ ____
ROOT
ATOM      1  C   UNL     1      48.661   8.296  15.183  0.00  0.00    +0.000 A 
ATOM      2  C   UNL     1      49.671   7.330  15.106  0.00  0.00    +0.000 A 
ATOM      3  C   UNL     1      50.113   6.661  16.252  0.00  0.00    +0.000 A 
ATOM      4  C   UNL     1      49.515   6.902  17.497  0.00  0.00    +0.000 A 
ATOM      5  C   UNL     1      48.571   7.938  17.595  0.00  0.00    +0.000 A 
ATOM      6  C   UNL     1      48.146   8.625  16.446  0.00  0.00    +0.000 A 
ENDROOT
BRANCH   1   7
ATOM      7  C   UNL     1      48.105   8.900  13.914  0.00  0.00    +0.000 C 
BRANCH   7  10
ATOM      8  O   UNL     1      47.986   6.753  12.054  0.00  0.00    +0.000 OA
ATOM      9  C   UNL     1      46.945   7.149  12.575  0.00  0.00    +0.000 C 
ATOM     10  N   UNL     1      46.923   8.197  13.459  0.00  0.00    +0.000 N 
ATOM     11  H   UNL     1      46.066   8.403  13.963  0.00  0.00    +0.000 HD
BRANCH   9  12
ATOM     12  C   UNL     1      45.647   6.540  12.245  0.00  0.00    +0.000 A 
ATOM     13  C   UNL     1      44.627   7.324  11.712  0.00  0.00    +0.000 A 
ATOM     14  S   UNL     1      43.191   6.461  11.394  0.00  0.00    +0.000 S 
ATOM     15  C   UNL     1      43.887   4.998  11.910  0.00  0.00    +0.000 A 
ATOM     16  N   UNL     1      43.187   3.833  11.857  0.00  0.00    +0.000 NA
ATOM     17  C   UNL     1      43.849   2.791  12.238  0.00  0.00    +0.000 A 
ATOM     18  N   UNL     1      45.145   2.815  12.682  0.00  0.00    +0.000 N 
ATOM     19  C   UNL     1      45.860   3.979  12.830  0.00  0.00    +0.000 A 
ATOM     20  O   UNL     1      46.962   3.974  13.370  0.00  0.00    +0.000 OA
ATOM     21  C   UNL     1      45.185   5.172  12.359  0.00  0.00    +0.000 A 
ATOM     22  H   UNL     1      45.595   1.972  13.000  0.00  0.00    +0.000 HD
ENDBRANCH   9  12
ENDBRANCH   7  10
ENDBRANCH   1   7
BRANCH   4  23
ATOM     23  C   UNL     1      49.664   5.872  18.600  0.00  0.00    +0.000 C 
BRANCH  23  24
ATOM     24  N   UNL     1      49.276   4.478  18.416  0.00  0.00    +0.000 N 
ATOM     25  C   UNL     1      50.302   3.568  18.132  0.00  0.00    +0.000 A 
ATOM     26  C   UNL     1      51.639   3.780  18.517  0.00  0.00    +0.000 A 
ATOM     27  N   UNL     1      52.669   2.930  18.261  0.00  0.00    +0.000 NA
ATOM     28  C   UNL     1      52.328   1.811  17.600  0.00  0.00    +0.000 A 
ATOM     29  C   UNL     1      51.024   1.560  17.222  0.00  0.00    +0.000 A 
ATOM     30  N   UNL     1      50.006   2.418  17.482  0.00  0.00    +0.000 NA
BRANCH  24  31
ATOM     31  C   UNL     1      47.904   4.045  18.120  0.00  0.00    +0.000 C 
BRANCH  31  32
ATOM     32  C   UNL     1      47.679   3.880  16.602  0.00  0.00    +0.000 C 
BRANCH  32  33
ATOM     33  O   UNL     1      47.026   5.030  16.056  0.00  0.00    +0.000 OA
ATOM     34  H   UNL     1      46.461   4.709  15.333  0.00  0.00    +0.000 HD
ENDBRANCH  32  33
ENDBRANCH  31  32
ENDBRANCH  24  31
ENDBRANCH  23  24
ENDBRANCH   4  23
TORSDOF 8
ENDMDL
MODEL 6
REMARK VINA RESULT:    -6.130      2.957      7.361
REMARK INTER + INTRA:         -10.283
REMARK INTER:                  -8.656
REMARK INTRA:                  -1.627
REMARK UNBOUND:                -1.466
REMARK  Name = 
REMARK  8 active torsions:
REMARK  status: ('A' for Active; 'I' for Inactive)
REMARK    1  A    between atoms: C_2  and  C_22
REMARK    2  A    between atoms: N_3  and  C_4
REMARK    3  A    between atoms: C_4  and  C_5
REMARK    4  A    between atoms: C_8  and  C_9
REMARK    5  A    between atoms: C_9  and  N_10
REMARK    6  A    between atoms: N_10  and  C_11
REMARK    7  A    between atoms: C_11  and  C_12
REMARK    8  A    between atoms: C_12  and  O_13
REMARK                            x       y       z     vdW  Elec       q    Type
REMARK                         _______ _______ _______ _____ _____    ______ ____
ROOT
ATOM      1  C   UNL     1      49.285   8.420  14.537  0.00  0.00    +0.000 A 
ATOM      2  C   UNL     1      50.439   7.648  14.718  0.00  0.00    +0.000 A 
ATOM      3  C   UNL     1      50.843   7.250  15.996  0.00  0.00    +0.000 A 
ATOM      4  C   UNL     1      50.070   7.567  17.123  0.00  0.00    +0.000 A 
ATOM      5  C   UNL     1      48.967   8.421  16.956  0.00  0.00    +0.000 A 
ATOM      6  C   UNL     1      48.577   8.839  15.673  0.00  0.00    +0.000 A 
ENDROOT
BRANCH   1   7
ATOM      7  C   UNL     1      48.796   8.715  13.138  0.00  0.00    +0.000 C 
BRANCH   7  10
ATOM      8  O   UNL     1      45.978   9.004  13.379  0.00  0.00    +0.000 OA
ATOM      9  C   UNL     1      46.430   7.994  12.842  0.00  0.00    +0.000 C 
ATOM     10  N   UNL     1      47.777   7.774  12.716  0.00  0.00    +0.000 N 
ATOM     11  H   UNL     1      48.103   6.996  12.152  0.00  0.00    +0.000 HD
BRANCH   9  12
ATOM     12  C   UNL     1      45.541   6.936  12.335  0.00  0.00    +0.000 A 
ATOM     13  C   UNL     1      44.470   7.265  11.509  0.00  0.00    +0.000 A 
ATOM     14  S   UNL     1      43.541   5.922  11.019  0.00  0.00    +0.000 S 
ATOM     15  C   UNL     1      44.558   4.842  11.850  0.00  0.00    +0.000 A 
ATOM     16  N   UNL     1      44.339   3.500  11.806  0.00  0.00    +0.000 NA
ATOM     17  C   UNL     1      45.210   2.793  12.445  0.00  0.00    +0.000 A 
ATOM     18  N   UNL     1      46.274   3.312  13.137  0.00  0.00    +0.000 N 
ATOM     19  C   UNL     1      46.484   4.662  13.277  0.00  0.00    +0.000 A 
ATOM     20  O   UNL     1      47.358   5.087  14.026  0.00  0.00    +0.000 OA
ATOM     21  C   UNL     1      45.570   5.501  12.528  0.00  0.00    +0.000 A 
ATOM     22  H   UNL     1      46.899   2.708  13.646  0.00  0.00    +0.000 HD
ENDBRANCH   9  12
ENDBRANCH   7  10
ENDBRANCH   1   7
BRANCH   4  23
ATOM     23  C   UNL     1      50.249   6.759  18.393  0.00  0.00    +0.000 C 
BRANCH  23  24
ATOM     24  N   UNL     1      49.207   5.874  18.903  0.00  0.00    +0.000 N 
ATOM     25  C   UNL     1      48.975   4.693  18.188  0.00  0.00    +0.000 A 
ATOM     26  C   UNL     1      49.958   4.076  17.391  0.00  0.00    +0.000 A 
ATOM     27  N   UNL     1      49.780   2.933  16.677  0.00  0.00    +0.000 NA
ATOM     28  C   UNL     1      48.558   2.384  16.786  0.00  0.00    +0.000 A 
ATOM     29  C   UNL     1      47.574   2.949  17.571  0.00  0.00    +0.000 A 
ATOM     30  N   UNL     1      47.765   4.092  18.277  0.00  0.00    +0.000 NA
BRANCH  24  31
ATOM     31  C   UNL     1      48.156   6.305  19.834  0.00  0.00    +0.000 C 
BRANCH  31  32
ATOM     32  C   UNL     1      48.424   5.793  21.265  0.00  0.00    +0.000 C 
BRANCH  32  33
ATOM     33  O   UNL     1      47.767   4.543  21.491  0.00  0.00    +0.000 OA
ATOM     34  H   UNL     1      46.996   4.733  22.052  0.00  0.00    +0.000 HD
ENDBRANCH  32  33
ENDBRANCH  31  32
ENDBRANCH  24  31
ENDBRANCH  23  24
ENDBRANCH   4  23
TORSDOF 8
ENDMDL
MODEL 7
REMARK VINA RESULT:    -6.105      2.677      7.967
REMARK INTER + INTRA:         -10.248
REMARK INTER:                  -9.210
REMARK INTRA:                  -1.037
REMARK UNBOUND:                -1.466
REMARK  Name = 
REMARK  8 active torsions:
REMARK  status: ('A' for Active; 'I' for Inactive)
REMARK    1  A    between atoms: C_2  and  C_22
REMARK    2  A    between atoms: N_3  and  C_4
REMARK    3  A    between atoms: C_4  and  C_5
REMARK    4  A    between atoms: C_8  and  C_9
REMARK    5  A    between atoms: C_9  and  N_10
REMARK    6  A    between atoms: N_10  and  C_11
REMARK    7  A    between atoms: C_11  and  C_12
REMARK    8  A    between atoms: C_12  and  O_13
REMARK                            x       y       z     vdW  Elec       q    Type
REMARK                         _______ _______ _______ _____ _____    ______ ____
ROOT
ATOM      1  C   UNL     1      48.301   8.114  13.134  0.00  0.00    +0.000 A 
ATOM      2  C   UNL     1      49.529   7.491  13.385  0.00  0.00    +0.000 A 
ATOM      3  C   UNL     1      50.078   7.479  14.671  0.00  0.00    +0.000 A 
ATOM      4  C   UNL     1      49.384   8.042  15.752  0.00  0.00    +0.000 A 
ATOM      5  C   UNL     1      48.201   8.752  15.487  0.00  0.00    +0.000 A 
ATOM      6  C   UNL     1      47.663   8.783  14.189  0.00  0.00    +0.000 A 
ENDROOT
BRANCH   1   7
ATOM      7  C   UNL     1      47.665   7.990  11.769  0.00  0.00    +0.000 C 
BRANCH   7  10
ATOM      8  O   UNL     1      44.839   7.689  11.812  0.00  0.00    +0.000 OA
ATOM      9  C   UNL     1      45.542   6.694  11.643  0.00  0.00    +0.000 C 
ATOM     10  N   UNL     1      46.911   6.759  11.638  0.00  0.00    +0.000 N 
ATOM     11  H   UNL     1      47.446   5.941  11.364  0.00  0.00    +0.000 HD
BRANCH   9  12
ATOM     12  C   UNL     1      44.947   5.359  11.474  0.00  0.00    +0.000 A 
ATOM     13  C   UNL     1      44.225   4.783  12.516  0.00  0.00    +0.000 A 
ATOM     14  S   UNL     1      43.611   3.234  12.154  0.00  0.00    +0.000 S 
ATOM     15  C   UNL     1      44.242   3.289  10.577  0.00  0.00    +0.000 A 
ATOM     16  N   UNL     1      44.034   2.266   9.704  0.00  0.00    +0.000 NA
ATOM     17  C   UNL     1      44.531   2.456   8.527  0.00  0.00    +0.000 A 
ATOM     18  N   UNL     1      45.231   3.573   8.151  0.00  0.00    +0.000 N 
ATOM     19  C   UNL     1      45.535   4.589   9.023  0.00  0.00    +0.000 A 
ATOM     20  O   UNL     1      46.288   5.499   8.689  0.00  0.00    +0.000 OA
ATOM     21  C   UNL     1      44.949   4.456  10.341  0.00  0.00    +0.000 A 
ATOM     22  H   UNL     1      45.625   3.644   7.227  0.00  0.00    +0.000 HD
ENDBRANCH   9  12
ENDBRANCH   7  10
ENDBRANCH   1   7
BRANCH   4  23
ATOM     23  C   UNL     1      49.745   7.621  17.163  0.00  0.00    +0.000 C 
BRANCH  23  24
ATOM     24  N   UNL     1      50.279   6.298  17.464  0.00  0.00    +0.000 N 
ATOM     25  C   UNL     1      49.359   5.243  17.526  0.00  0.00    +0.000 A 
ATOM     26  C   UNL     1      48.131   5.260  16.837  0.00  0.00    +0.000 A 
ATOM     27  N   UNL     1      47.206   4.265  16.868  0.00  0.00    +0.000 NA
ATOM     28  C   UNL     1      47.544   3.201  17.616  0.00  0.00    +0.000 A 
ATOM     29  C   UNL     1      48.747   3.141  18.291  0.00  0.00    +0.000 A 
ATOM     30  N   UNL     1      49.660   4.143  18.254  0.00  0.00    +0.000 NA
BRANCH  24  31
ATOM     31  C   UNL     1      51.592   6.069  18.081  0.00  0.00    +0.000 C 
BRANCH  31  32
ATOM     32  C   UNL     1      52.631   5.599  17.040  0.00  0.00    +0.000 C 
BRANCH  32  33
ATOM     33  O   UNL     1      53.873   5.276  17.671  0.00  0.00    +0.000 OA
ATOM     34  H   UNL     1      53.762   4.395  18.065  0.00  0.00    +0.000 HD
ENDBRANCH  32  33
ENDBRANCH  31  32
ENDBRANCH  24  31
ENDBRANCH  23  24
ENDBRANCH   4  23
TORSDOF 8
ENDMDL
MODEL 8
REMARK VINA RESULT:    -6.078      3.607      8.618
REMARK INTER + INTRA:         -10.209
REMARK INTER:                  -9.167
REMARK INTRA:                  -1.042
REMARK UNBOUND:                -1.466
REMARK  Name = 
REMARK  8 active torsions:
REMARK  status: ('A' for Active; 'I' for Inactive)
REMARK    1  A    between atoms: C_2  and  C_22
REMARK    2  A    between atoms: N_3  and  C_4
REMARK    3  A    between atoms: C_4  and  C_5
REMARK    4  A    between atoms: C_8  and  C_9
REMARK    5  A    between atoms: C_9  and  N_10
REMARK    6  A    between atoms: N_10  and  C_11
REMARK    7  A    between atoms: C_11  and  C_12
REMARK    8  A    between atoms: C_12  and  O_13
REMARK                            x       y       z     vdW  Elec       q    Type
REMARK                         _______ _______ _______ _____ _____    ______ ____
ROOT
ATOM      1  C   UNL     1      48.361   7.801  13.881  0.00  0.00    +0.000 A 
ATOM      2  C   UNL     1      48.278   8.935  14.699  0.00  0.00    +0.000 A 
ATOM      3  C   UNL     1      48.472   8.839  16.080  0.00  0.00    +0.000 A 
ATOM      4  C   UNL     1      48.810   7.614  16.673  0.00  0.00    +0.000 A 
ATOM      5  C   UNL     1      48.799   6.460  15.871  0.00  0.00    +0.000 A 
ATOM      6  C   UNL     1      48.580   6.555  14.487  0.00  0.00    +0.000 A 
ENDROOT
BRANCH   1   7
ATOM      7  C   UNL     1      48.288   7.955  12.380  0.00  0.00    +0.000 C 
BRANCH   7  10
ATOM      8  O   UNL     1      45.521   7.938  11.732  0.00  0.00    +0.000 OA
ATOM      9  C   UNL     1      46.203   6.952  11.458  0.00  0.00    +0.000 C 
ATOM     10  N   UNL     1      47.537   6.879  11.766  0.00  0.00    +0.000 N 
ATOM     11  H   UNL     1      48.088   6.106  11.405  0.00  0.00    +0.000 HD
BRANCH   9  12
ATOM     12  C   UNL     1      45.610   5.769  10.814  0.00  0.00    +0.000 A 
ATOM     13  C   UNL     1      45.839   5.526   9.462  0.00  0.00    +0.000 A 
ATOM     14  S   UNL     1      45.074   4.118   8.878  0.00  0.00    +0.000 S 
ATOM     15  C   UNL     1      44.448   3.750  10.415  0.00  0.00    +0.000 A 
ATOM     16  N   UNL     1      43.713   2.624  10.620  0.00  0.00    +0.000 NA
ATOM     17  C   UNL     1      43.336   2.444  11.842  0.00  0.00    +0.000 A 
ATOM     18  N   UNL     1      43.617   3.300  12.875  0.00  0.00    +0.000 N 
ATOM     19  C   UNL     1      44.282   4.489  12.697  0.00  0.00    +0.000 A 
ATOM     20  O   UNL     1      44.383   5.295  13.616  0.00  0.00    +0.000 OA
ATOM     21  C   UNL     1      44.782   4.711  11.355  0.00  0.00    +0.000 A 
ATOM     22  H   UNL     1      43.262   3.122  13.800  0.00  0.00    +0.000 HD
ENDBRANCH   9  12
ENDBRANCH   7  10
ENDBRANCH   1   7
BRANCH   4  23
ATOM     23  C   UNL     1      49.462   7.610  18.042  0.00  0.00    +0.000 C 
BRANCH  23  24
ATOM     24  N   UNL     1      48.885   6.893  19.173  0.00  0.00    +0.000 N 
ATOM     25  C   UNL     1      48.177   7.656  20.110  0.00  0.00    +0.000 A 
ATOM     26  C   UNL     1      47.562   8.881  19.789  0.00  0.00    +0.000 A 
ATOM     27  N   UNL     1      46.868   9.659  20.663  0.00  0.00    +0.000 NA
ATOM     28  C   UNL     1      46.782   9.167  21.911  0.00  0.00    +0.000 A 
ATOM     29  C   UNL     1      47.356   7.962  22.258  0.00  0.00    +0.000 A 
ATOM     30  N   UNL     1      48.048   7.197  21.377  0.00  0.00    +0.000 NA
BRANCH  24  31
ATOM     31  C   UNL     1      49.316   5.555  19.597  0.00  0.00    +0.000 C 
BRANCH  31  32
ATOM     32  C   UNL     1      48.405   4.455  19.010  0.00  0.00    +0.000 C 
BRANCH  32  33
ATOM     33  O   UNL     1      48.416   3.289  19.838  0.00  0.00    +0.000 OA
ATOM     34  H   UNL     1      49.061   3.458  20.545  0.00  0.00    +0.000 HD
ENDBRANCH  32  33
ENDBRANCH  31  32
ENDBRANCH  24  31
ENDBRANCH  23  24
ENDBRANCH   4  23
TORSDOF 8
ENDMDL
MODEL 9
REMARK VINA RESULT:    -6.042      3.773      9.227
REMARK INTER + INTRA:         -10.157
REMARK INTER:                  -9.212
REMARK INTRA:                  -0.945
REMARK UNBOUND:                -1.466
REMARK  Name = 
REMARK  8 active torsions:
REMARK  status: ('A' for Active; 'I' for Inactive)
REMARK    1  A    between atoms: C_2  and  C_22
REMARK    2  A    between atoms: N_3  and  C_4
REMARK    3  A    between atoms: C_4  and  C_5
REMARK    4  A    between atoms: C_8  and  C_9
REMARK    5  A    between atoms: C_9  and  N_10
REMARK    6  A    between atoms: N_10  and  C_11
REMARK    7  A    between atoms: C_11  and  C_12
REMARK    8  A    between atoms: C_12  and  O_13
REMARK                            x       y       z     vdW  Elec       q    Type
REMARK                         _______ _______ _______ _____ _____    ______ ____
ROOT
ATOM      1  C   UNL     1      47.967   4.507  17.759  0.00  0.00    +0.000 A 
ATOM      2  C   UNL     1      47.081   5.150  18.631  0.00  0.00    +0.000 A 
ATOM      3  C   UNL     1      47.551   6.008  19.630  0.00  0.00    +0.000 A 
ATOM      4  C   UNL     1      48.920   6.289  19.747  0.00  0.00    +0.000 A 
ATOM      5  C   UNL     1      49.819   5.572  18.939  0.00  0.00    +0.000 A 
ATOM      6  C   UNL     1      49.345   4.693  17.951  0.00  0.00    +0.000 A 
ENDROOT
BRANCH   1   7
ATOM      7  C   UNL     1      47.426   3.700  16.602  0.00  0.00    +0.000 C 
BRANCH   7  10
ATOM      8  O   UNL     1      47.236   3.168  13.817  0.00  0.00    +0.000 OA
ATOM      9  C   UNL     1      46.760   4.213  14.258  0.00  0.00    +0.000 C 
ATOM     10  N   UNL     1      46.839   4.548  15.585  0.00  0.00    +0.000 N 
ATOM     11  H   UNL     1      46.319   5.351  15.925  0.00  0.00    +0.000 HD
BRANCH   9  12
ATOM     12  C   UNL     1      46.107   5.189  13.371  0.00  0.00    +0.000 A 
ATOM     13  C   UNL     1      46.767   6.366  13.027  0.00  0.00    +0.000 A 
ATOM     14  S   UNL     1      45.866   7.385  11.998  0.00  0.00    +0.000 S 
ATOM     15  C   UNL     1      44.580   6.276  11.931  0.00  0.00    +0.000 A 
ATOM     16  N   UNL     1      43.480   6.526  11.170  0.00  0.00    +0.000 NA
ATOM     17  C   UNL     1      42.598   5.582  11.175  0.00  0.00    +0.000 A 
ATOM     18  N   UNL     1      42.713   4.416  11.887  0.00  0.00    +0.000 N 
ATOM     19  C   UNL     1      43.766   4.160  12.732  0.00  0.00    +0.000 A 
ATOM     20  O   UNL     1      43.759   3.175  13.463  0.00  0.00    +0.000 OA
ATOM     21  C   UNL     1      44.815   5.160  12.717  0.00  0.00    +0.000 A 
ATOM     22  H   UNL     1      41.973   3.733  11.878  0.00  0.00    +0.000 HD
ENDBRANCH   9  12
ENDBRANCH   7  10
ENDBRANCH   1   7
BRANCH   4  23
ATOM     23  C   UNL     1      49.358   7.536  20.490  0.00  0.00    +0.000 C 
BRANCH  23  24
ATOM     24  N   UNL     1      49.052   8.876  20.003  0.00  0.00    +0.000 N 
ATOM     25  C   UNL     1      47.893   9.482  20.505  0.00  0.00    +0.000 A 
ATOM     26  C   UNL     1      47.337   9.147  21.754  0.00  0.00    +0.000 A 
ATOM     27  N   UNL     1      46.214   9.704  22.282  0.00  0.00    +0.000 NA
ATOM     28  C   UNL     1      45.638  10.648  21.519  0.00  0.00    +0.000 A 
ATOM     29  C   UNL     1      46.165  11.015  20.297  0.00  0.00    +0.000 A 
ATOM     30  N   UNL     1      47.285  10.450  19.781  0.00  0.00    +0.000 NA
BRANCH  24  31
ATOM     31  C   UNL     1      49.622   9.448  18.776  0.00  0.00    +0.000 C 
BRANCH  31  32
ATOM     32  C   UNL     1      49.170   8.667  17.524  0.00  0.00    +0.000 C 
BRANCH  32  33
ATOM     33  O   UNL     1      47.755   8.772  17.342  0.00  0.00    +0.000 OA
ATOM     34  H   UNL     1      47.390   9.084  18.186  0.00  0.00    +0.000 HD
ENDBRANCH  32  33
ENDBRANCH  31  32
ENDBRANCH  24  31
ENDBRANCH  23  24
ENDBRANCH   4  23
TORSDOF 8
ENDMDL
