MODEL 1
REMARK VINA RESULT:    -8.609      0.000      0.000
REMARK INTER + INTRA:         -13.331
REMARK INTER:                 -12.131
REMARK INTRA:                  -1.200
REMARK UNBOUND:                -1.200
REMARK  Name = 
REMARK  7 active torsions:
REMARK  status: ('A' for Active; 'I' for Inactive)
REMARK    1  A    between atoms: C_7  and  C_8
REMARK    2  A    between atoms: N_10  and  C_11
REMARK    3  A    between atoms: C_11  and  C_12
REMARK    4  A    between atoms: C_15  and  N_16
REMARK    5  A    between atoms: N_16  and  C_17
REMARK    6  A    between atoms: C_17  and  C_18
REMARK    7  A    between atoms: C_18  and  C_19
REMARK                            x       y       z     vdW  Elec       q    Type
REMARK                         _______ _______ _______ _____ _____    ______ ____
ROOT
ATOM      1  C   UNL     1      47.132   7.576  12.790  0.00  0.00    +0.000 C 
ENDROOT
BRANCH   1   2
ATOM      2  C   UNL     1      46.291   6.423  12.303  0.00  0.00    +0.000 A 
ATOM      3  C   UNL     1      45.959   6.319  10.949  0.00  0.00    +0.000 A 
ATOM      4  C   UNL     1      45.273   5.199  10.461  0.00  0.00    +0.000 A 
ATOM      5  C   UNL     1      44.893   4.152  11.305  0.00  0.00    +0.000 A 
ATOM      6  C   UNL     1      45.137   4.310  12.675  0.00  0.00    +0.000 A 
ATOM      7  C   UNL     1      45.840   5.421  13.170  0.00  0.00    +0.000 A 
BRANCH   5   8
ATOM      8  N   UNL     1      44.257   2.987  10.864  0.00  0.00    +0.000 N 
ATOM      9  H   UNL     1      43.344   2.857  11.301  0.00  0.00    +0.000 HD
BRANCH   8  10
ATOM     10  C   UNL     1      44.297   2.660   9.437  0.00  0.00    +0.000 C 
BRANCH  10  11
ATOM     11  C   UNL     1      45.404   1.662   9.073  0.00  0.00    +0.000 C 
BRANCH  11  12
ATOM     12  C   UNL     1      46.156   1.978   7.809  0.00  0.00    +0.000 A 
ATOM     13  C   UNL     1      46.131   3.259   7.242  0.00  0.00    +0.000 A 
ATOM     14  C   UNL     1      46.841   3.522   6.066  0.00  0.00    +0.000 A 
ATOM     15  C   UNL     1      47.580   2.512   5.449  0.00  0.00    +0.000 A 
ATOM     16  C   UNL     1      47.611   1.235   6.007  0.00  0.00    +0.000 A 
ATOM     17  C   UNL     1      46.904   0.980   7.177  0.00  0.00    +0.000 A 
ATOM     18  F   UNL     1      46.942  -0.256   7.700  0.00  0.00    +0.000 F 
ENDBRANCH  11  12
ENDBRANCH  10  11
ENDBRANCH   8  10
ENDBRANCH   5   8
ENDBRANCH   1   2
BRANCH   1  21
ATOM     19  C   UNL     1      48.677   7.123  14.634  0.00  0.00    +0.000 C 
ATOM     20  O   UNL     1      49.566   6.849  13.825  0.00  0.00    +0.000 OA
ATOM     21  N   UNL     1      47.434   7.492  14.199  0.00  0.00    +0.000 N 
ATOM     22  H   UNL     1      46.704   7.739  14.846  0.00  0.00    +0.000 HD
BRANCH  19  29
ATOM     23  N   UNL     1      48.466   3.853  20.603  0.00  0.00    +0.000 N 
ATOM     24  C   UNL     1      48.586   4.588  19.443  0.00  0.00    +0.000 A 
ATOM     25  N   UNL     1      48.144   4.019  18.333  0.00  0.00    +0.000 NA
ATOM     26  C   UNL     1      48.206   4.718  17.194  0.00  0.00    +0.000 A 
ATOM     27 CL   UNL     1      47.561   3.888  15.865  0.00  0.00    +0.000 Cl
ATOM     28  C   UNL     1      48.723   6.011  17.104  0.00  0.00    +0.000 A 
ATOM     29  C   UNL     1      48.936   7.051  16.088  0.00  0.00    +0.000 A 
ATOM     30  C   UNL     1      49.501   8.181  16.676  0.00  0.00    +0.000 A 
ATOM     31  S   UNL     1      49.805   8.026  18.338  0.00  0.00    +0.000 S 
ATOM     32  C   UNL     1      49.167   6.457  18.352  0.00  0.00    +0.000 A 
ATOM     33  N   UNL     1      49.133   5.790  19.517  0.00  0.00    +0.000 NA
ATOM     34  H   UNL     1      48.375   2.868  20.398  0.00  0.00    +0.000 HD
ATOM     35  H   UNL     1      49.140   4.132  21.300  0.00  0.00    +0.000 HD
ENDBRANCH  19  29
ENDBRANCH   1  21
TORSDOF 7
ENDMDL
MODEL 2
REMARK VINA RESULT:    -8.009      1.780      2.325
REMARK INTER + INTRA:         -12.486
REMARK INTER:                 -11.554
REMARK INTRA:                  -0.931
REMARK UNBOUND:                -1.200
REMARK  Name = 
REMARK  7 active torsions:
REMARK  status: ('A' for Active; 'I' for Inactive)
REMARK    1  A    between atoms: C_7  and  C_8
REMARK    2  A    between atoms: N_10  and  C_11
REMARK    3  A    between atoms: C_11  and  C_12
REMARK    4  A    between atoms: C_15  and  N_16
REMARK    5  A    between atoms: N_16  and  C_17
REMARK    6  A    between atoms: C_17  and  C_18
REMARK    7  A    between atoms: C_18  and  C_19
REMARK                            x       y       z     vdW  Elec       q    Type
REMARK                         _______ _______ _______ _____ _____    ______ ____
ROOT
ATOM      1  C   UNL     1      47.621   6.900  13.408  0.00  0.00    +0.000 C 
ENDROOT
BRANCH   1   2
ATOM      2  C   UNL     1      46.764   5.954  12.607  0.00  0.00    +0.000 A 
ATOM      3  C   UNL     1      46.367   4.730  13.155  0.00  0.00    +0.000 A 
ATOM      4  C   UNL     1      45.482   3.889  12.470  0.00  0.00    +0.000 A 
ATOM      5  C   UNL     1      44.968   4.236  11.217  0.00  0.00    +0.000 A 
ATOM      6  C   UNL     1      45.448   5.413  10.629  0.00  0.00    +0.000 A 
ATOM      7  C   UNL     1      46.322   6.271  11.317  0.00  0.00    +0.000 A 
BRANCH   5   8
ATOM      8  N   UNL     1      44.039   3.462  10.514  0.00  0.00    +0.000 N 
ATOM      9  H   UNL     1      43.086   3.810  10.624  0.00  0.00    +0.000 HD
BRANCH   8  10
ATOM     10  C   UNL     1      44.371   3.026   9.156  0.00  0.00    +0.000 C 
BRANCH  10  11
ATOM     11  C   UNL     1      45.695   2.256   9.072  0.00  0.00    +0.000 C 
BRANCH  11  12
ATOM     12  C   UNL     1      46.335   2.235   7.711  0.00  0.00    +0.000 A 
ATOM     13  C   UNL     1      46.407   3.388   6.917  0.00  0.00    +0.000 A 
ATOM     14  C   UNL     1      47.010   3.338   5.656  0.00  0.00    +0.000 A 
ATOM     15  C   UNL     1      47.544   2.141   5.179  0.00  0.00    +0.000 A 
ATOM     16  C   UNL     1      47.478   0.991   5.962  0.00  0.00    +0.000 A 
ATOM     17  C   UNL     1      46.879   1.047   7.216  0.00  0.00    +0.000 A 
ATOM     18  F   UNL     1      46.821  -0.071   7.956  0.00  0.00    +0.000 F 
ENDBRANCH  11  12
ENDBRANCH  10  11
ENDBRANCH   8  10
ENDBRANCH   5   8
ENDBRANCH   1   2
BRANCH   1  21
ATOM     19  C   UNL     1      48.809   6.525  15.516  0.00  0.00    +0.000 C 
ATOM     20  O   UNL     1      49.884   6.731  14.949  0.00  0.00    +0.000 OA
ATOM     21  N   UNL     1      47.635   6.588  14.817  0.00  0.00    +0.000 N 
ATOM     22  H   UNL     1      46.747   6.443  15.269  0.00  0.00    +0.000 HD
BRANCH  19  29
ATOM     23  N   UNL     1      47.733   8.237  22.017  0.00  0.00    +0.000 N 
ATOM     24  C   UNL     1      47.945   7.778  20.735  0.00  0.00    +0.000 A 
ATOM     25  N   UNL     1      47.765   8.651  19.757  0.00  0.00    +0.000 NA
ATOM     26  C   UNL     1      48.001   8.254  18.501  0.00  0.00    +0.000 A 
ATOM     27 CL   UNL     1      47.779   9.486  17.359  0.00  0.00    +0.000 Cl
ATOM     28  C   UNL     1      48.416   6.967  18.159  0.00  0.00    +0.000 A 
ATOM     29  C   UNL     1      48.770   6.200  16.957  0.00  0.00    +0.000 A 
ATOM     30  C   UNL     1      49.140   4.904  17.313  0.00  0.00    +0.000 A 
ATOM     31  S   UNL     1      49.044   4.580  18.975  0.00  0.00    +0.000 S 
ATOM     32  C   UNL     1      48.535   6.164  19.297  0.00  0.00    +0.000 A 
ATOM     33  N   UNL     1      48.301   6.515  20.573  0.00  0.00    +0.000 NA
ATOM     34  H   UNL     1      47.149   9.061  22.014  0.00  0.00    +0.000 HD
ATOM     35  H   UNL     1      47.495   7.489  22.652  0.00  0.00    +0.000 HD
ENDBRANCH  19  29
ENDBRANCH   1  21
TORSDOF 7
ENDMDL
MODEL 3
REMARK VINA RESULT:    -7.866      2.159      3.276
REMARK INTER + INTRA:         -12.284
REMARK INTER:                 -11.252
REMARK INTRA:                  -1.032
REMARK UNBOUND:                -1.200
REMARK  Name = 
REMARK  7 active torsions:
REMARK  status: ('A' for Active; 'I' for Inactive)
REMARK    1  A    between atoms: C_7  and  C_8
REMARK    2  A    between atoms: N_10  and  C_11
REMARK    3  A    between atoms: C_11  and  C_12
REMARK    4  A    between atoms: C_15  and  N_16
REMARK    5  A    between atoms: N_16  and  C_17
REMARK    6  A    between atoms: C_17  and  C_18
REMARK    7  A    between atoms: C_18  and  C_19
REMARK                            x       y       z     vdW  Elec       q    Type
REMARK                         _______ _______ _______ _____ _____    ______ ____
ROOT
ATOM      1  C   UNL     1      47.123   3.910  14.455  0.00  0.00    +0.000 C 
ENDROOT
BRANCH   1   2
ATOM      2  C   UNL     1      46.239   4.208  13.271  0.00  0.00    +0.000 A 
ATOM      3  C   UNL     1      46.229   5.487  12.706  0.00  0.00    +0.000 A 
ATOM      4  C   UNL     1      45.499   5.753  11.540  0.00  0.00    +0.000 A 
ATOM      5  C   UNL     1      44.755   4.756  10.904  0.00  0.00    +0.000 A 
ATOM      6  C   UNL     1      44.686   3.505  11.530  0.00  0.00    +0.000 A 
ATOM      7  C   UNL     1      45.430   3.226  12.689  0.00  0.00    +0.000 A 
BRANCH   5   8
ATOM      8  N   UNL     1      44.054   4.950   9.708  0.00  0.00    +0.000 N 
ATOM      9  H   UNL     1      43.930   5.939   9.491  0.00  0.00    +0.000 HD
BRANCH   8  10
ATOM     10  C   UNL     1      44.386   4.113   8.554  0.00  0.00    +0.000 C 
BRANCH  10  11
ATOM     11  C   UNL     1      45.840   4.270   8.089  0.00  0.00    +0.000 C 
BRANCH  11  12
ATOM     12  C   UNL     1      46.386   3.107   7.304  0.00  0.00    +0.000 A 
ATOM     13  C   UNL     1      46.842   3.261   5.988  0.00  0.00    +0.000 A 
ATOM     14  C   UNL     1      47.345   2.162   5.285  0.00  0.00    +0.000 A 
ATOM     15  C   UNL     1      47.398   0.905   5.888  0.00  0.00    +0.000 A 
ATOM     16  C   UNL     1      46.948   0.744   7.197  0.00  0.00    +0.000 A 
ATOM     17  C   UNL     1      46.450   1.841   7.892  0.00  0.00    +0.000 A 
ATOM     18  F   UNL     1      46.018   1.668   9.151  0.00  0.00    +0.000 F 
ENDBRANCH  11  12
ENDBRANCH  10  11
ENDBRANCH   8  10
ENDBRANCH   5   8
ENDBRANCH   1   2
BRANCH   1  21
ATOM     19  C   UNL     1      48.249   5.024  16.322  0.00  0.00    +0.000 C 
ATOM     20  O   UNL     1      48.857   3.982  16.579  0.00  0.00    +0.000 OA
ATOM     21  N   UNL     1      47.365   5.070  15.280  0.00  0.00    +0.000 N 
ATOM     22  H   UNL     1      46.876   5.917  15.044  0.00  0.00    +0.000 HD
BRANCH  19  29
ATOM     23  N   UNL     1      49.825  11.617  16.958  0.00  0.00    +0.000 N 
ATOM     24  C   UNL     1      49.461  10.288  16.938  0.00  0.00    +0.000 A 
ATOM     25  N   UNL     1      49.426   9.702  15.751  0.00  0.00    +0.000 NA
ATOM     26  C   UNL     1      49.118   8.401  15.695  0.00  0.00    +0.000 A 
ATOM     27 CL   UNL     1      49.161   7.772  14.122  0.00  0.00    +0.000 Cl
ATOM     28  C   UNL     1      48.816   7.626  16.815  0.00  0.00    +0.000 A 
ATOM     29  C   UNL     1      48.460   6.238  17.138  0.00  0.00    +0.000 A 
ATOM     30  C   UNL     1      48.304   6.096  18.516  0.00  0.00    +0.000 A 
ATOM     31  S   UNL     1      48.527   7.529  19.396  0.00  0.00    +0.000 S 
ATOM     32  C   UNL     1      48.872   8.394  17.982  0.00  0.00    +0.000 A 
ATOM     33  N   UNL     1      49.168   9.701  18.086  0.00  0.00    +0.000 NA
ATOM     34  H   UNL     1      49.685  12.044  16.054  0.00  0.00    +0.000 HD
ATOM     35  H   UNL     1      49.464  12.096  17.770  0.00  0.00    +0.000 HD
ENDBRANCH  19  29
ENDBRANCH   1  21
TORSDOF 7
ENDMDL
MODEL 4
REMARK VINA RESULT:    -7.819      2.109      2.799
REMARK INTER + INTRA:         -12.218
REMARK INTER:                 -11.414
REMARK INTRA:                  -0.805
REMARK UNBOUND:                -1.200
REMARK  Name = 
REMARK  7 active torsions:
REMARK  status: ('A' for Active; 'I' for Inactive)
REMARK    1  A    between atoms: C_7  and  C_8
REMARK    2  A    between atoms: N_10  and  C_11
REMARK    3  A    between atoms: C_11  and  C_12
REMARK    4  A    between atoms: C_15  and  N_16
REMARK    5  A    between atoms: N_16  and  C_17
REMARK    6  A    between atoms: C_17  and  C_18
REMARK    7  A    between atoms: C_18  and  C_19
REMARK                            x       y       z     vdW  Elec       q    Type
REMARK                         _______ _______ _______ _____ _____    ______ ____
ROOT
ATOM      1  C   UNL     1      47.027   4.397  14.538  0.00  0.00    +0.000 C 
ENDROOT
BRANCH   1   2
ATOM      2  C   UNL     1      46.152   4.556  13.320  0.00  0.00    +0.000 A 
ATOM      3  C   UNL     1      45.985   5.814  12.734  0.00  0.00    +0.000 A 
ATOM      4  C   UNL     1      45.266   5.961  11.541  0.00  0.00    +0.000 A 
ATOM      5  C   UNL     1      44.689   4.863  10.897  0.00  0.00    +0.000 A 
ATOM      6  C   UNL     1      44.772   3.623  11.541  0.00  0.00    +0.000 A 
ATOM      7  C   UNL     1      45.507   3.463  12.729  0.00  0.00    +0.000 A 
BRANCH   5   8
ATOM      8  N   UNL     1      44.010   4.944   9.676  0.00  0.00    +0.000 N 
ATOM      9  H   UNL     1      43.881   5.908   9.370  0.00  0.00    +0.000 HD
BRANCH   8  10
ATOM     10  C   UNL     1      44.373   4.012   8.606  0.00  0.00    +0.000 C 
BRANCH  10  11
ATOM     11  C   UNL     1      45.792   4.232   8.066  0.00  0.00    +0.000 C 
BRANCH  11  12
ATOM     12  C   UNL     1      46.363   3.077   7.287  0.00  0.00    +0.000 A 
ATOM     13  C   UNL     1      46.832   3.238   5.977  0.00  0.00    +0.000 A 
ATOM     14  C   UNL     1      47.358   2.146   5.279  0.00  0.00    +0.000 A 
ATOM     15  C   UNL     1      47.421   0.889   5.883  0.00  0.00    +0.000 A 
ATOM     16  C   UNL     1      46.957   0.722   7.186  0.00  0.00    +0.000 A 
ATOM     17  C   UNL     1      46.437   1.812   7.875  0.00  0.00    +0.000 A 
ATOM     18  F   UNL     1      45.993   1.632   9.129  0.00  0.00    +0.000 F 
ENDBRANCH  11  12
ENDBRANCH  10  11
ENDBRANCH   8  10
ENDBRANCH   5   8
ENDBRANCH   1   2
BRANCH   1  21
ATOM     19  C   UNL     1      48.431   5.704  16.058  0.00  0.00    +0.000 C 
ATOM     20  O   UNL     1      48.861   4.663  16.559  0.00  0.00    +0.000 OA
ATOM     21  N   UNL     1      47.512   5.658  15.047  0.00  0.00    +0.000 N 
ATOM     22  H   UNL     1      47.166   6.498  14.613  0.00  0.00    +0.000 HD
BRANCH  19  29
ATOM     23  N   UNL     1      48.830  10.512  20.863  0.00  0.00    +0.000 N 
ATOM     24  C   UNL     1      48.839   9.592  19.837  0.00  0.00    +0.000 A 
ATOM     25  N   UNL     1      48.193   8.458  20.053  0.00  0.00    +0.000 NA
ATOM     26  C   UNL     1      48.144   7.557  19.066  0.00  0.00    +0.000 A 
ATOM     27 CL   UNL     1      47.244   6.178  19.463  0.00  0.00    +0.000 Cl
ATOM     28  C   UNL     1      48.748   7.738  17.820  0.00  0.00    +0.000 A 
ATOM     29  C   UNL     1      48.895   7.021  16.546  0.00  0.00    +0.000 A 
ATOM     30  C   UNL     1      49.632   7.792  15.650  0.00  0.00    +0.000 A 
ATOM     31  S   UNL     1      50.164   9.276  16.277  0.00  0.00    +0.000 S 
ATOM     32  C   UNL     1      49.407   8.968  17.761  0.00  0.00    +0.000 A 
ATOM     33  N   UNL     1      49.490   9.898  18.727  0.00  0.00    +0.000 NA
ATOM     34  H   UNL     1      48.629  10.066  21.747  0.00  0.00    +0.000 HD
ATOM     35  H   UNL     1      49.621  11.138  20.817  0.00  0.00    +0.000 HD
ENDBRANCH  19  29
ENDBRANCH   1  21
TORSDOF 7
ENDMDL
MODEL 5
REMARK VINA RESULT:    -7.507      2.319      2.403
REMARK INTER + INTRA:         -11.778
REMARK INTER:                 -10.564
REMARK INTRA:                  -1.215
REMARK UNBOUND:                -1.200
REMARK  Name = 
REMARK  7 active torsions:
REMARK  status: ('A' for Active; 'I' for Inactive)
REMARK    1  A    between atoms: C_7  and  C_8
REMARK    2  A    between atoms: N_10  and  C_11
REMARK    3  A    between atoms: C_11  and  C_12
REMARK    4  A    between atoms: C_15  and  N_16
REMARK    5  A    between atoms: N_16  and  C_17
REMARK    6  A    between atoms: C_17  and  C_18
REMARK    7  A    between atoms: C_18  and  C_19
REMARK                            x       y       z     vdW  Elec       q    Type
REMARK                         _______ _______ _______ _____ _____    ______ ____
ROOT
ATOM      1  C   UNL     1      48.524   7.601  13.305  0.00  0.00    +0.000 C 
ENDROOT
BRANCH   1   2
ATOM      2  C   UNL     1      47.453   6.587  12.993  0.00  0.00    +0.000 A 
ATOM      3  C   UNL     1      46.681   6.714  11.834  0.00  0.00    +0.000 A 
ATOM      4  C   UNL     1      45.760   5.724  11.471  0.00  0.00    +0.000 A 
ATOM      5  C   UNL     1      45.574   4.580  12.253  0.00  0.00    +0.000 A 
ATOM      6  C   UNL     1      46.273   4.508  13.464  0.00  0.00    +0.000 A 
ATOM      7  C   UNL     1      47.213   5.488  13.825  0.00  0.00    +0.000 A 
BRANCH   5   8
ATOM      8  N   UNL     1      44.709   3.535  11.911  0.00  0.00    +0.000 N 
ATOM      9  H   UNL     1      44.082   3.287  12.678  0.00  0.00    +0.000 HD
BRANCH   8  10
ATOM     10  C   UNL     1      44.075   3.549  10.591  0.00  0.00    +0.000 C 
BRANCH  10  11
ATOM     11  C   UNL     1      44.460   2.346   9.720  0.00  0.00    +0.000 C 
BRANCH  11  12
ATOM     12  C   UNL     1      45.482   2.633   8.654  0.00  0.00    +0.000 A 
ATOM     13  C   UNL     1      45.762   3.943   8.241  0.00  0.00    +0.000 A 
ATOM     14  C   UNL     1      46.718   4.178   7.248  0.00  0.00    +0.000 A 
ATOM     15  C   UNL     1      47.401   3.112   6.661  0.00  0.00    +0.000 A 
ATOM     16  C   UNL     1      47.129   1.807   7.067  0.00  0.00    +0.000 A 
ATOM     17  C   UNL     1      46.179   1.579   8.056  0.00  0.00    +0.000 A 
ATOM     18  F   UNL     1      45.927   0.316   8.433  0.00  0.00    +0.000 F 
ENDBRANCH  11  12
ENDBRANCH  10  11
ENDBRANCH   8  10
ENDBRANCH   5   8
ENDBRANCH   1   2
BRANCH   1  21
ATOM     19  C   UNL     1      50.077   7.560  15.197  0.00  0.00    +0.000 C 
ATOM     20  O   UNL     1      49.514   8.543  15.684  0.00  0.00    +0.000 OA
ATOM     21  N   UNL     1      49.646   7.031  14.012  0.00  0.00    +0.000 N 
ATOM     22  H   UNL     1      50.082   6.217  13.612  0.00  0.00    +0.000 HD
BRANCH  19  29
ATOM     23  N   UNL     1      52.794   2.846  19.290  0.00  0.00    +0.000 N 
ATOM     24  C   UNL     1      52.353   3.822  18.423  0.00  0.00    +0.000 A 
ATOM     25  N   UNL     1      51.058   3.830  18.151  0.00  0.00    +0.000 NA
ATOM     26  C   UNL     1      50.585   4.788  17.346  0.00  0.00    +0.000 A 
ATOM     27 CL   UNL     1      48.907   4.708  17.126  0.00  0.00    +0.000 Cl
ATOM     28  C   UNL     1      51.381   5.776  16.764  0.00  0.00    +0.000 A 
ATOM     29  C   UNL     1      51.232   6.941  15.882  0.00  0.00    +0.000 A 
ATOM     30  C   UNL     1      52.470   7.551  15.688  0.00  0.00    +0.000 A 
ATOM     31  S   UNL     1      53.761   6.777  16.471  0.00  0.00    +0.000 S 
ATOM     32  C   UNL     1      52.720   5.614  17.128  0.00  0.00    +0.000 A 
ATOM     33  N   UNL     1      53.241   4.665  17.925  0.00  0.00    +0.000 NA
ATOM     34  H   UNL     1      52.142   2.076  19.329  0.00  0.00    +0.000 HD
ATOM     35  H   UNL     1      53.772   2.633  19.155  0.00  0.00    +0.000 HD
ENDBRANCH  19  29
ENDBRANCH   1  21
TORSDOF 7
ENDMDL
MODEL 6
REMARK VINA RESULT:    -7.373      3.029      3.858
REMARK INTER + INTRA:         -11.589
REMARK INTER:                 -11.052
REMARK INTRA:                  -0.537
REMARK UNBOUND:                -1.200
REMARK  Name = 
REMARK  7 active torsions:
REMARK  status: ('A' for Active; 'I' for Inactive)
REMARK    1  A    between atoms: C_7  and  C_8
REMARK    2  A    between atoms: N_10  and  C_11
REMARK    3  A    between atoms: C_11  and  C_12
REMARK    4  A    between atoms: C_15  and  N_16
REMARK    5  A    between atoms: N_16  and  C_17
REMARK    6  A    between atoms: C_17  and  C_18
REMARK    7  A    between atoms: C_18  and  C_19
REMARK                            x       y       z     vdW  Elec       q    Type
REMARK                         _______ _______ _______ _____ _____    ______ ____
ROOT
ATOM      1  C   UNL     1      48.965   7.452  15.741  0.00  0.00    +0.000 C 
ENDROOT
BRANCH   1   2
ATOM      2  C   UNL     1      48.296   6.925  14.497  0.00  0.00    +0.000 A 
ATOM      3  C   UNL     1      47.755   5.636  14.482  0.00  0.00    +0.000 A 
ATOM      4  C   UNL     1      47.034   5.172  13.375  0.00  0.00    +0.000 A 
ATOM      5  C   UNL     1      46.833   5.973  12.248  0.00  0.00    +0.000 A 
ATOM      6  C   UNL     1      47.463   7.224  12.227  0.00  0.00    +0.000 A 
ATOM      7  C   UNL     1      48.172   7.704  13.340  0.00  0.00    +0.000 A 
BRANCH   5   8
ATOM      8  N   UNL     1      46.075   5.582  11.138  0.00  0.00    +0.000 N 
ATOM      9  H   UNL     1      46.313   4.642  10.821  0.00  0.00    +0.000 HD
BRANCH   8  10
ATOM     10  C   UNL     1      44.642   5.882  11.124  0.00  0.00    +0.000 C 
BRANCH  10  11
ATOM     11  C   UNL     1      43.844   4.992  10.162  0.00  0.00    +0.000 C 
BRANCH  11  12
ATOM     12  C   UNL     1      44.666   4.002   9.382  0.00  0.00    +0.000 A 
ATOM     13  C   UNL     1      45.578   4.417   8.402  0.00  0.00    +0.000 A 
ATOM     14  C   UNL     1      46.328   3.473   7.694  0.00  0.00    +0.000 A 
ATOM     15  C   UNL     1      46.177   2.111   7.959  0.00  0.00    +0.000 A 
ATOM     16  C   UNL     1      45.273   1.690   8.933  0.00  0.00    +0.000 A 
ATOM     17  C   UNL     1      44.531   2.634   9.634  0.00  0.00    +0.000 A 
ATOM     18  F   UNL     1      43.663   2.211  10.567  0.00  0.00    +0.000 F 
ENDBRANCH  11  12
ENDBRANCH  10  11
ENDBRANCH   8  10
ENDBRANCH   5   8
ENDBRANCH   1   2
BRANCH   1  21
ATOM     19  C   UNL     1      49.828   5.737  17.260  0.00  0.00    +0.000 C 
ATOM     20  O   UNL     1      48.735   5.687  17.828  0.00  0.00    +0.000 OA
ATOM     21  N   UNL     1      50.026   6.593  16.213  0.00  0.00    +0.000 N 
ATOM     22  H   UNL     1      50.906   6.632  15.725  0.00  0.00    +0.000 HD
BRANCH  19  29
ATOM     23  N   UNL     1      52.744  -0.360  18.085  0.00  0.00    +0.000 N 
ATOM     24  C   UNL     1      52.259   0.921  17.935  0.00  0.00    +0.000 A 
ATOM     25  N   UNL     1      51.070   1.042  17.367  0.00  0.00    +0.000 NA
ATOM     26  C   UNL     1      50.549   2.268  17.242  0.00  0.00    +0.000 A 
ATOM     27 CL   UNL     1      49.004   2.268  16.545  0.00  0.00    +0.000 Cl
ATOM     28  C   UNL     1      51.192   3.432  17.665  0.00  0.00    +0.000 A 
ATOM     29  C   UNL     1      50.946   4.880  17.707  0.00  0.00    +0.000 A 
ATOM     30  C   UNL     1      52.026   5.527  18.306  0.00  0.00    +0.000 A 
ATOM     31  S   UNL     1      53.291   4.495  18.767  0.00  0.00    +0.000 S 
ATOM     32  C   UNL     1      52.441   3.137  18.218  0.00  0.00    +0.000 A 
ATOM     33  N   UNL     1      53.008   1.927  18.356  0.00  0.00    +0.000 NA
ATOM     34  H   UNL     1      52.289  -0.995  17.445  0.00  0.00    +0.000 HD
ATOM     35  H   UNL     1      53.751  -0.381  18.139  0.00  0.00    +0.000 HD
ENDBRANCH  19  29
ENDBRANCH   1  21
TORSDOF 7
ENDMDL
MODEL 7
REMARK VINA RESULT:    -7.219      3.103      4.800
REMARK INTER + INTRA:         -11.373
REMARK INTER:                 -10.449
REMARK INTRA:                  -0.924
REMARK UNBOUND:                -1.200
REMARK  Name = 
REMARK  7 active torsions:
REMARK  status: ('A' for Active; 'I' for Inactive)
REMARK    1  A    between atoms: C_7  and  C_8
REMARK    2  A    between atoms: N_10  and  C_11
REMARK    3  A    between atoms: C_11  and  C_12
REMARK    4  A    between atoms: C_15  and  N_16
REMARK    5  A    between atoms: N_16  and  C_17
REMARK    6  A    between atoms: C_17  and  C_18
REMARK    7  A    between atoms: C_18  and  C_19
REMARK                            x       y       z     vdW  Elec       q    Type
REMARK                         _______ _______ _______ _____ _____    ______ ____
ROOT
ATOM      1  C   UNL     1      46.818   5.749  13.932  0.00  0.00    +0.000 C 
ENDROOT
BRANCH   1   2
ATOM      2  C   UNL     1      46.022   5.289  12.737  0.00  0.00    +0.000 A 
ATOM      3  C   UNL     1      46.038   6.033  11.553  0.00  0.00    +0.000 A 
ATOM      4  C   UNL     1      45.395   5.564  10.401  0.00  0.00    +0.000 A 
ATOM      5  C   UNL     1      44.712   4.345  10.392  0.00  0.00    +0.000 A 
ATOM      6  C   UNL     1      44.612   3.655  11.607  0.00  0.00    +0.000 A 
ATOM      7  C   UNL     1      45.270   4.109  12.763  0.00  0.00    +0.000 A 
BRANCH   5   8
ATOM      8  N   UNL     1      44.100   3.802   9.257  0.00  0.00    +0.000 N 
ATOM      9  H   UNL     1      44.137   4.437   8.459  0.00  0.00    +0.000 HD
BRANCH   8  10
ATOM     10  C   UNL     1      44.350   2.398   8.926  0.00  0.00    +0.000 C 
BRANCH  10  11
ATOM     11  C   UNL     1      45.842   2.046   8.863  0.00  0.00    +0.000 C 
BRANCH  11  12
ATOM     12  C   UNL     1      46.432   2.022   7.479  0.00  0.00    +0.000 A 
ATOM     13  C   UNL     1      46.487   3.176   6.686  0.00  0.00    +0.000 A 
ATOM     14  C   UNL     1      47.042   3.122   5.404  0.00  0.00    +0.000 A 
ATOM     15  C   UNL     1      47.548   1.921   4.905  0.00  0.00    +0.000 A 
ATOM     16  C   UNL     1      47.499   0.770   5.688  0.00  0.00    +0.000 A 
ATOM     17  C   UNL     1      46.946   0.829   6.963  0.00  0.00    +0.000 A 
ATOM     18  F   UNL     1      46.904  -0.290   7.703  0.00  0.00    +0.000 F 
ENDBRANCH  11  12
ENDBRANCH  10  11
ENDBRANCH   8  10
ENDBRANCH   5   8
ENDBRANCH   1   2
BRANCH   1  21
ATOM     19  C   UNL     1      48.629   7.384  14.134  0.00  0.00    +0.000 C 
ATOM     20  O   UNL     1      49.364   6.514  14.606  0.00  0.00    +0.000 OA
ATOM     21  N   UNL     1      47.344   7.084  13.775  0.00  0.00    +0.000 N 
ATOM     22  H   UNL     1      46.737   7.777  13.369  0.00  0.00    +0.000 HD
BRANCH  19  29
ATOM     23  N   UNL     1      52.147  12.097  10.703  0.00  0.00    +0.000 N 
ATOM     24  C   UNL     1      51.382  11.231  11.453  0.00  0.00    +0.000 A 
ATOM     25  N   UNL     1      51.302   9.983  11.020  0.00  0.00    +0.000 NA
ATOM     26  C   UNL     1      50.601   9.103  11.744  0.00  0.00    +0.000 A 
ATOM     27 CL   UNL     1      50.626   7.536  11.099  0.00  0.00    +0.000 Cl
ATOM     28  C   UNL     1      49.937   9.427  12.928  0.00  0.00    +0.000 A 
ATOM     29  C   UNL     1      49.120   8.767  13.955  0.00  0.00    +0.000 A 
ATOM     30  C   UNL     1      48.764   9.686  14.942  0.00  0.00    +0.000 A 
ATOM     31  S   UNL     1      49.328  11.262  14.665  0.00  0.00    +0.000 S 
ATOM     32  C   UNL     1      50.097  10.781  13.234  0.00  0.00    +0.000 A 
ATOM     33  N   UNL     1      50.782  11.701  12.535  0.00  0.00    +0.000 NA
ATOM     34  H   UNL     1      52.259  11.754   9.759  0.00  0.00    +0.000 HD
ATOM     35  H   UNL     1      51.865  13.058  10.828  0.00  0.00    +0.000 HD
ENDBRANCH  19  29
ENDBRANCH   1  21
TORSDOF 7
ENDMDL
MODEL 8
REMARK VINA RESULT:    -7.145      2.142      2.705
REMARK INTER + INTRA:         -11.268
REMARK INTER:                 -10.496
REMARK INTRA:                  -0.773
REMARK UNBOUND:                -1.200
REMARK  Name = 
REMARK  7 active torsions:
REMARK  status: ('A' for Active; 'I' for Inactive)
REMARK    1  A    between atoms: C_7  and  C_8
REMARK    2  A    between atoms: N_10  and  C_11
REMARK    3  A    between atoms: C_11  and  C_12
REMARK    4  A    between atoms: C_15  and  N_16
REMARK    5  A    between atoms: N_16  and  C_17
REMARK    6  A    between atoms: C_17  and  C_18
REMARK    7  A    between atoms: C_18  and  C_19
REMARK                            x       y       z     vdW  Elec       q    Type
REMARK                         _______ _______ _______ _____ _____    ______ ____
ROOT
ATOM      1  C   UNL     1      48.170   8.774  14.214  0.00  0.00    +0.000 C 
ENDROOT
BRANCH   1   2
ATOM      2  C   UNL     1      47.254   8.133  13.203  0.00  0.00    +0.000 A 
ATOM      3  C   UNL     1      47.738   7.142  12.344  0.00  0.00    +0.000 A 
ATOM      4  C   UNL     1      46.877   6.460  11.476  0.00  0.00    +0.000 A 
ATOM      5  C   UNL     1      45.509   6.746  11.432  0.00  0.00    +0.000 A 
ATOM      6  C   UNL     1      45.048   7.808  12.219  0.00  0.00    +0.000 A 
ATOM      7  C   UNL     1      45.902   8.485  13.106  0.00  0.00    +0.000 A 
BRANCH   5   8
ATOM      8  N   UNL     1      44.595   6.059  10.625  0.00  0.00    +0.000 N 
ATOM      9  H   UNL     1      44.305   6.609   9.817  0.00  0.00    +0.000 HD
BRANCH   8  10
ATOM     10  C   UNL     1      44.834   4.642  10.339  0.00  0.00    +0.000 C 
BRANCH  10  11
ATOM     11  C   UNL     1      44.550   4.261   8.881  0.00  0.00    +0.000 C 
BRANCH  11  12
ATOM     12  C   UNL     1      45.572   3.356   8.248  0.00  0.00    +0.000 A 
ATOM     13  C   UNL     1      46.564   3.855   7.394  0.00  0.00    +0.000 A 
ATOM     14  C   UNL     1      47.501   2.989   6.822  0.00  0.00    +0.000 A 
ATOM     15  C   UNL     1      47.456   1.622   7.098  0.00  0.00    +0.000 A 
ATOM     16  C   UNL     1      46.473   1.118   7.947  0.00  0.00    +0.000 A 
ATOM     17  C   UNL     1      45.545   1.984   8.514  0.00  0.00    +0.000 A 
ATOM     18  F   UNL     1      44.603   1.481   9.328  0.00  0.00    +0.000 F 
ENDBRANCH  11  12
ENDBRANCH  10  11
ENDBRANCH   8  10
ENDBRANCH   5   8
ENDBRANCH   1   2
BRANCH   1  21
ATOM     19  C   UNL     1      48.436   8.414  16.621  0.00  0.00    +0.000 C 
ATOM     20  O   UNL     1      48.206   9.608  16.827  0.00  0.00    +0.000 OA
ATOM     21  N   UNL     1      48.439   7.919  15.347  0.00  0.00    +0.000 N 
ATOM     22  H   UNL     1      48.605   6.944  15.163  0.00  0.00    +0.000 HD
BRANCH  19  29
ATOM     23  N   UNL     1      52.347   3.808  19.759  0.00  0.00    +0.000 N 
ATOM     24  C   UNL     1      51.500   4.755  19.226  0.00  0.00    +0.000 A 
ATOM     25  N   UNL     1      51.863   5.292  18.073  0.00  0.00    +0.000 NA
ATOM     26  C   UNL     1      51.047   6.186  17.504  0.00  0.00    +0.000 A 
ATOM     27 CL   UNL     1      51.612   6.752  16.010  0.00  0.00    +0.000 Cl
ATOM     28  C   UNL     1      49.835   6.596  18.062  0.00  0.00    +0.000 A 
ATOM     29  C   UNL     1      48.719   7.498  17.747  0.00  0.00    +0.000 A 
ATOM     30  C   UNL     1      47.757   7.433  18.753  0.00  0.00    +0.000 A 
ATOM     31  S   UNL     1      48.153   6.392  20.033  0.00  0.00    +0.000 S 
ATOM     32  C   UNL     1      49.610   5.958  19.285  0.00  0.00    +0.000 A 
ATOM     33  N   UNL     1      50.403   5.063  19.898  0.00  0.00    +0.000 NA
ATOM     34  H   UNL     1      53.278   3.900  19.378  0.00  0.00    +0.000 HD
ATOM     35  H   UNL     1      52.250   3.733  20.761  0.00  0.00    +0.000 HD
ENDBRANCH  19  29
ENDBRANCH   1  21
TORSDOF 7
ENDMDL
MODEL 9
REMARK VINA RESULT:    -7.072      4.358      8.688
REMARK INTER + INTRA:         -11.166
REMARK INTER:                  -9.272
REMARK INTRA:                  -1.894
REMARK UNBOUND:                -1.200
REMARK  Name = 
REMARK  7 active torsions:
REMARK  status: ('A' for Active; 'I' for Inactive)
REMARK    1  A    between atoms: C_7  and  C_8
REMARK    2  A    between atoms: N_10  and  C_11
REMARK    3  A    between atoms: C_11  and  C_12
REMARK    4  A    between atoms: C_15  and  N_16
REMARK    5  A    between atoms: N_16  and  C_17
REMARK    6  A    between atoms: C_17  and  C_18
REMARK    7  A    between atoms: C_18  and  C_19
REMARK                            x       y       z     vdW  Elec       q    Type
REMARK                         _______ _______ _______ _____ _____    ______ ____
ROOT
ATOM      1  C   UNL     1      48.030   9.256  14.400  0.00  0.00    +0.000 C 
ENDROOT
BRANCH   1   2
ATOM      2  C   UNL     1      48.449   8.743  15.754  0.00  0.00    +0.000 A 
ATOM      3  C   UNL     1      49.390   7.714  15.856  0.00  0.00    +0.000 A 
ATOM      4  C   UNL     1      49.871   7.300  17.104  0.00  0.00    +0.000 A 
ATOM      5  C   UNL     1      49.428   7.894  18.289  0.00  0.00    +0.000 A 
ATOM      6  C   UNL     1      48.411   8.851  18.188  0.00  0.00    +0.000 A 
ATOM      7  C   UNL     1      47.936   9.284  16.938  0.00  0.00    +0.000 A 
BRANCH   5   8
ATOM      8  N   UNL     1      49.915   7.560  19.558  0.00  0.00    +0.000 N 
ATOM      9  H   UNL     1      49.305   7.894  20.304  0.00  0.00    +0.000 HD
BRANCH   8  10
ATOM     10  C   UNL     1      50.455   6.216  19.773  0.00  0.00    +0.000 C 
BRANCH  10  11
ATOM     11  C   UNL     1      49.375   5.170  20.081  0.00  0.00    +0.000 C 
BRANCH  11  12
ATOM     12  C   UNL     1      48.894   4.383  18.892  0.00  0.00    +0.000 A 
ATOM     13  C   UNL     1      49.677   3.373  18.316  0.00  0.00    +0.000 A 
ATOM     14  C   UNL     1      49.202   2.658  17.212  0.00  0.00    +0.000 A 
ATOM     15  C   UNL     1      47.945   2.943  16.676  0.00  0.00    +0.000 A 
ATOM     16  C   UNL     1      47.160   3.945  17.244  0.00  0.00    +0.000 A 
ATOM     17  C   UNL     1      47.637   4.651  18.343  0.00  0.00    +0.000 A 
ATOM     18  F   UNL     1      46.870   5.615  18.875  0.00  0.00    +0.000 F 
ENDBRANCH  11  12
ENDBRANCH  10  11
ENDBRANCH   8  10
ENDBRANCH   5   8
ENDBRANCH   1   2
BRANCH   1  21
ATOM     19  C   UNL     1      47.026   7.600  12.903  0.00  0.00    +0.000 C 
ATOM     20  O   UNL     1      48.143   7.313  12.467  0.00  0.00    +0.000 OA
ATOM     21  N   UNL     1      46.884   8.560  13.866  0.00  0.00    +0.000 N 
ATOM     22  H   UNL     1      45.981   8.791  14.248  0.00  0.00    +0.000 HD
BRANCH  19  29
ATOM     23  N   UNL     1      43.293   2.000  11.868  0.00  0.00    +0.000 N 
ATOM     24  C   UNL     1      43.952   3.195  12.055  0.00  0.00    +0.000 A 
ATOM     25  N   UNL     1      45.112   3.140  12.689  0.00  0.00    +0.000 NA
ATOM     26  C   UNL     1      45.801   4.275  12.854  0.00  0.00    +0.000 A 
ATOM     27 CL   UNL     1      47.286   4.047  13.636  0.00  0.00    +0.000 Cl
ATOM     28  C   UNL     1      45.362   5.521  12.404  0.00  0.00    +0.000 A 
ATOM     29  C   UNL     1      45.820   6.917  12.388  0.00  0.00    +0.000 A 
ATOM     30  C   UNL     1      44.883   7.716  11.735  0.00  0.00    +0.000 A 
ATOM     31  S   UNL     1      43.508   6.883  11.195  0.00  0.00    +0.000 S 
ATOM     32  C   UNL     1      44.116   5.414  11.780  0.00  0.00    +0.000 A 
ATOM     33  N   UNL     1      43.385   4.301  11.600  0.00  0.00    +0.000 NA
ATOM     34  H   UNL     1      43.612   1.305  12.528  0.00  0.00    +0.000 HD
ATOM     35  H   UNL     1      42.298   2.129  11.758  0.00  0.00    +0.000 HD
ENDBRANCH  19  29
ENDBRANCH   1  21
TORSDOF 7
ENDMDL
