MODEL 1
REMARK VINA RESULT:    -9.095      0.000      0.000
REMARK INTER + INTRA:         -11.544
REMARK INTER:                 -11.753
REMARK INTRA:                   0.210
REMARK UNBOUND:                 0.210
REMARK  Name = 
REMARK  6 active torsions:
REMARK  status: ('A' for Active; 'I' for Inactive)
REMARK    1  A    between atoms: C_1  and  C_2
REMARK    2  A    between atoms: C_2  and  N_3
REMARK    3  A    between atoms: C_2  and  C_16
REMARK    4  A    between atoms: C_4  and  C_6
REMARK    5  A    between atoms: C_19  and  O_20
REMARK    6  A    between atoms: O_20  and  C_21
REMARK                            x       y       z     vdW  Elec       q    Type
REMARK                         _______ _______ _______ _____ _____    ______ ____
ROOT
ATOM      1  C   UNL     1      43.734   3.724  13.251  0.00  0.00    +0.000 C 
ATOM      2  C   UNL     1      44.238   5.070  12.714  0.00  0.00    +0.000 C 
ENDROOT
BRANCH   2   3
ATOM      3  C   UNL     1      44.645   4.930  11.255  0.00  0.00    +0.000 A 
ATOM      4  C   UNL     1      43.946   4.061  10.406  0.00  0.00    +0.000 A 
ATOM      5  C   UNL     1      44.375   3.854   9.092  0.00  0.00    +0.000 A 
ATOM      6  C   UNL     1      45.466   4.564   8.582  0.00  0.00    +0.000 A 
ATOM      7  C   UNL     1      46.148   5.454   9.409  0.00  0.00    +0.000 A 
ATOM      8  C   UNL     1      45.743   5.636  10.733  0.00  0.00    +0.000 A 
BRANCH   6   9
ATOM      9  O   UNL     1      45.992   4.403   7.318  0.00  0.00    +0.000 OA
BRANCH   9  10
ATOM     10  C   UNL     1      46.427   3.170   6.895  0.00  0.00    +0.000 A 
ATOM     11  C   UNL     1      46.889   2.902   5.604  0.00  0.00    +0.000 A 
ATOM     12  C   UNL     1      47.281   1.614   5.248  0.00  0.00    +0.000 A 
ATOM     13  C   UNL     1      47.288   0.602   6.204  0.00  0.00    +0.000 A 
ATOM     14  C   UNL     1      46.895   0.876   7.515  0.00  0.00    +0.000 A 
ATOM     15  C   UNL     1      46.457   2.157   7.860  0.00  0.00    +0.000 A 
ENDBRANCH   9  10
ENDBRANCH   6   9
ENDBRANCH   2   3
BRANCH   2  16
ATOM     16  N   UNL     1      45.345   5.579  13.496  0.00  0.00    +0.000 N 
ATOM     17  C   UNL     1      46.363   4.774  13.936  0.00  0.00    +0.000 C 
ATOM     18  O   UNL     1      46.431   3.575  13.671  0.00  0.00    +0.000 OA
ATOM     19  H   UNL     1      45.166   6.446  14.007  0.00  0.00    +0.000 HD
BRANCH  17  20
ATOM     20  C   UNL     1      47.425   5.430  14.699  0.00  0.00    +0.000 A 
ATOM     21  C   UNL     1      48.159   6.460  14.123  0.00  0.00    +0.000 A 
ATOM     22  S   UNL     1      49.360   7.091  15.156  0.00  0.00    +0.000 S 
ATOM     23  C   UNL     1      48.960   5.985  16.389  0.00  0.00    +0.000 A 
ATOM     24  N   UNL     1      49.649   5.955  17.557  0.00  0.00    +0.000 NA
ATOM     25  C   UNL     1      49.253   5.046  18.386  0.00  0.00    +0.000 A 
ATOM     26  N   UNL     1      48.223   4.173  18.153  0.00  0.00    +0.000 N 
ATOM     27  C   UNL     1      47.475   4.191  17.005  0.00  0.00    +0.000 A 
ATOM     28  O   UNL     1      46.513   3.442  16.854  0.00  0.00    +0.000 OA
ATOM     29  C   UNL     1      47.900   5.173  16.030  0.00  0.00    +0.000 A 
ATOM     30  H   UNL     1      47.943   3.501  18.858  0.00  0.00    +0.000 HD
ENDBRANCH  17  20
ENDBRANCH   2  16
TORSDOF 5
ENDMDL
MODEL 2
REMARK VINA RESULT:    -9.072      1.763      2.376
REMARK INTER + INTRA:         -11.514
REMARK INTER:                 -10.665
REMARK INTRA:                  -0.849
REMARK UNBOUND:                 0.210
REMARK  Name = 
REMARK  6 active torsions:
REMARK  status: ('A' for Active; 'I' for Inactive)
REMARK    1  A    between atoms: C_1  and  C_2
REMARK    2  A    between atoms: C_2  and  N_3
REMARK    3  A    between atoms: C_2  and  C_16
REMARK    4  A    between atoms: C_4  and  C_6
REMARK    5  A    between atoms: C_19  and  O_20
REMARK    6  A    between atoms: O_20  and  C_21
REMARK                            x       y       z     vdW  Elec       q    Type
REMARK                         _______ _______ _______ _____ _____    ______ ____
ROOT
ATOM      1  C   UNL     1      45.155   8.995  12.681  0.00  0.00    +0.000 C 
ATOM      2  C   UNL     1      46.234   7.937  12.409  0.00  0.00    +0.000 C 
ENDROOT
BRANCH   2   3
ATOM      3  C   UNL     1      45.657   6.809  11.570  0.00  0.00    +0.000 A 
ATOM      4  C   UNL     1      44.518   6.116  12.002  0.00  0.00    +0.000 A 
ATOM      5  C   UNL     1      44.041   5.015  11.285  0.00  0.00    +0.000 A 
ATOM      6  C   UNL     1      44.651   4.630  10.087  0.00  0.00    +0.000 A 
ATOM      7  C   UNL     1      45.766   5.332   9.633  0.00  0.00    +0.000 A 
ATOM      8  C   UNL     1      46.265   6.411  10.366  0.00  0.00    +0.000 A 
BRANCH   6   9
ATOM      9  O   UNL     1      44.285   3.539   9.329  0.00  0.00    +0.000 OA
BRANCH   9  10
ATOM     10  C   UNL     1      45.173   2.976   8.443  0.00  0.00    +0.000 A 
ATOM     11  C   UNL     1      45.665   3.624   7.308  0.00  0.00    +0.000 A 
ATOM     12  C   UNL     1      46.537   2.967   6.444  0.00  0.00    +0.000 A 
ATOM     13  C   UNL     1      46.985   1.685   6.752  0.00  0.00    +0.000 A 
ATOM     14  C   UNL     1      46.554   1.056   7.920  0.00  0.00    +0.000 A 
ATOM     15  C   UNL     1      45.642   1.697   8.762  0.00  0.00    +0.000 A 
ENDBRANCH   9  10
ENDBRANCH   6   9
ENDBRANCH   2   3
BRANCH   2  16
ATOM     16  N   UNL     1      46.792   7.413  13.638  0.00  0.00    +0.000 N 
ATOM     17  C   UNL     1      48.076   6.945  13.719  0.00  0.00    +0.000 C 
ATOM     18  O   UNL     1      48.859   6.968  12.770  0.00  0.00    +0.000 OA
ATOM     19  H   UNL     1      46.114   7.070  14.323  0.00  0.00    +0.000 HD
BRANCH  17  20
ATOM     20  C   UNL     1      48.511   6.464  15.031  0.00  0.00    +0.000 A 
ATOM     21  C   UNL     1      49.512   7.137  15.720  0.00  0.00    +0.000 A 
ATOM     22  S   UNL     1      49.893   6.424  17.222  0.00  0.00    +0.000 S 
ATOM     23  C   UNL     1      48.759   5.176  16.980  0.00  0.00    +0.000 A 
ATOM     24  N   UNL     1      48.604   4.181  17.889  0.00  0.00    +0.000 NA
ATOM     25  C   UNL     1      47.728   3.289  17.559  0.00  0.00    +0.000 A 
ATOM     26  N   UNL     1      46.986   3.313  16.407  0.00  0.00    +0.000 N 
ATOM     27  C   UNL     1      47.081   4.317  15.479  0.00  0.00    +0.000 A 
ATOM     28  O   UNL     1      46.353   4.348  14.490  0.00  0.00    +0.000 OA
ATOM     29  C   UNL     1      48.072   5.326  15.789  0.00  0.00    +0.000 A 
ATOM     30  H   UNL     1      46.294   2.597  16.221  0.00  0.00    +0.000 HD
ENDBRANCH  17  20
ENDBRANCH   2  16
TORSDOF 5
ENDMDL
MODEL 3
REMARK VINA RESULT:    -8.729      2.868      3.589
REMARK INTER + INTRA:         -11.070
REMARK INTER:                  -9.901
REMARK INTRA:                  -1.169
REMARK UNBOUND:                 0.210
REMARK  Name = 
REMARK  6 active torsions:
REMARK  status: ('A' for Active; 'I' for Inactive)
REMARK    1  A    between atoms: C_1  and  C_2
REMARK    2  A    between atoms: C_2  and  N_3
REMARK    3  A    between atoms: C_2  and  C_16
REMARK    4  A    between atoms: C_4  and  C_6
REMARK    5  A    between atoms: C_19  and  O_20
REMARK    6  A    between atoms: O_20  and  C_21
REMARK                            x       y       z     vdW  Elec       q    Type
REMARK                         _______ _______ _______ _____ _____    ______ ____
ROOT
ATOM      1  C   UNL     1      46.524   4.694  14.344  0.00  0.00    +0.000 C 
ATOM      2  C   UNL     1      46.164   5.754  13.294  0.00  0.00    +0.000 C 
ENDROOT
BRANCH   2   3
ATOM      3  C   UNL     1      45.684   5.083  12.018  0.00  0.00    +0.000 A 
ATOM      4  C   UNL     1      45.108   3.806  12.064  0.00  0.00    +0.000 A 
ATOM      5  C   UNL     1      44.756   3.143  10.885  0.00  0.00    +0.000 A 
ATOM      6  C   UNL     1      44.907   3.771   9.645  0.00  0.00    +0.000 A 
ATOM      7  C   UNL     1      45.450   5.053   9.591  0.00  0.00    +0.000 A 
ATOM      8  C   UNL     1      45.836   5.703  10.765  0.00  0.00    +0.000 A 
BRANCH   6   9
ATOM      9  O   UNL     1      44.629   3.191   8.426  0.00  0.00    +0.000 OA
BRANCH   9  10
ATOM     10  C   UNL     1      45.643   2.697   7.641  0.00  0.00    +0.000 A 
ATOM     11  C   UNL     1      46.157   3.351   6.519  0.00  0.00    +0.000 A 
ATOM     12  C   UNL     1      47.164   2.764   5.759  0.00  0.00    +0.000 A 
ATOM     13  C   UNL     1      47.720   1.553   6.162  0.00  0.00    +0.000 A 
ATOM     14  C   UNL     1      47.263   0.925   7.320  0.00  0.00    +0.000 A 
ATOM     15  C   UNL     1      46.220   1.491   8.057  0.00  0.00    +0.000 A 
ENDBRANCH   9  10
ENDBRANCH   6   9
ENDBRANCH   2   3
BRANCH   2  16
ATOM     16  N   UNL     1      47.283   6.629  13.011  0.00  0.00    +0.000 N 
ATOM     17  C   UNL     1      47.174   7.993  13.043  0.00  0.00    +0.000 C 
ATOM     18  O   UNL     1      46.134   8.575  13.349  0.00  0.00    +0.000 OA
ATOM     19  H   UNL     1      48.032   6.222  12.445  0.00  0.00    +0.000 HD
BRANCH  17  20
ATOM     20  C   UNL     1      48.393   8.750  12.756  0.00  0.00    +0.000 A 
ATOM     21  C   UNL     1      48.364   9.789  11.834  0.00  0.00    +0.000 A 
ATOM     22  S   UNL     1      49.879  10.542  11.620  0.00  0.00    +0.000 S 
ATOM     23  C   UNL     1      50.625   9.482  12.725  0.00  0.00    +0.000 A 
ATOM     24  N   UNL     1      51.956   9.554  12.980  0.00  0.00    +0.000 NA
ATOM     25  C   UNL     1      52.387   8.669  13.818  0.00  0.00    +0.000 A 
ATOM     26  N   UNL     1      51.602   7.726  14.429  0.00  0.00    +0.000 N 
ATOM     27  C   UNL     1      50.249   7.640  14.232  0.00  0.00    +0.000 A 
ATOM     28  O   UNL     1      49.561   6.829  14.847  0.00  0.00    +0.000 OA
ATOM     29  C   UNL     1      49.722   8.592  13.277  0.00  0.00    +0.000 A 
ATOM     30  H   UNL     1      51.998   7.078  15.099  0.00  0.00    +0.000 HD
ENDBRANCH  17  20
ENDBRANCH   2  16
TORSDOF 5
ENDMDL
MODEL 4
REMARK VINA RESULT:    -8.396      3.555      8.427
REMARK INTER + INTRA:         -10.640
REMARK INTER:                  -9.429
REMARK INTRA:                  -1.211
REMARK UNBOUND:                 0.210
REMARK  Name = 
REMARK  6 active torsions:
REMARK  status: ('A' for Active; 'I' for Inactive)
REMARK    1  A    between atoms: C_1  and  C_2
REMARK    2  A    between atoms: C_2  and  N_3
REMARK    3  A    between atoms: C_2  and  C_16
REMARK    4  A    between atoms: C_4  and  C_6
REMARK    5  A    between atoms: C_19  and  O_20
REMARK    6  A    between atoms: O_20  and  C_21
REMARK                            x       y       z     vdW  Elec       q    Type
REMARK                         _______ _______ _______ _____ _____    ______ ____
ROOT
ATOM      1  C   UNL     1      49.452   7.930  12.463  0.00  0.00    +0.000 C 
ATOM      2  C   UNL     1      48.228   7.393  13.218  0.00  0.00    +0.000 C 
ENDROOT
BRANCH   2   3
ATOM      3  C   UNL     1      48.658   6.783  14.542  0.00  0.00    +0.000 A 
ATOM      4  C   UNL     1      49.844   7.201  15.162  0.00  0.00    +0.000 A 
ATOM      5  C   UNL     1      50.295   6.575  16.327  0.00  0.00    +0.000 A 
ATOM      6  C   UNL     1      49.535   5.571  16.933  0.00  0.00    +0.000 A 
ATOM      7  C   UNL     1      48.338   5.170  16.343  0.00  0.00    +0.000 A 
ATOM      8  C   UNL     1      47.903   5.769  15.158  0.00  0.00    +0.000 A 
BRANCH   6   9
ATOM      9  O   UNL     1      49.909   4.865  18.057  0.00  0.00    +0.000 OA
BRANCH   9  10
ATOM     10  C   UNL     1      50.715   3.757  17.949  0.00  0.00    +0.000 A 
ATOM     11  C   UNL     1      50.306   2.540  17.400  0.00  0.00    +0.000 A 
ATOM     12  C   UNL     1      51.178   1.456  17.359  0.00  0.00    +0.000 A 
ATOM     13  C   UNL     1      52.492   1.606  17.795  0.00  0.00    +0.000 A 
ATOM     14  C   UNL     1      52.931   2.837  18.281  0.00  0.00    +0.000 A 
ATOM     15  C   UNL     1      52.042   3.912  18.366  0.00  0.00    +0.000 A 
ENDBRANCH   9  10
ENDBRANCH   6   9
ENDBRANCH   2   3
BRANCH   2  16
ATOM     16  N   UNL     1      47.497   6.421  12.432  0.00  0.00    +0.000 N 
ATOM     17  C   UNL     1      46.361   6.743  11.739  0.00  0.00    +0.000 C 
ATOM     18  O   UNL     1      45.899   7.882  11.702  0.00  0.00    +0.000 OA
ATOM     19  H   UNL     1      47.635   5.443  12.696  0.00  0.00    +0.000 HD
BRANCH  17  20
ATOM     20  C   UNL     1      45.740   5.663  10.971  0.00  0.00    +0.000 A 
ATOM     21  C   UNL     1      45.839   5.651   9.586  0.00  0.00    +0.000 A 
ATOM     22  S   UNL     1      45.044   4.325   8.865  0.00  0.00    +0.000 S 
ATOM     23  C   UNL     1      44.515   3.748  10.378  0.00  0.00    +0.000 A 
ATOM     24  N   UNL     1      43.733   2.644  10.475  0.00  0.00    +0.000 NA
ATOM     25  C   UNL     1      43.386   2.341  11.683  0.00  0.00    +0.000 A 
ATOM     26  N   UNL     1      43.761   3.039  12.801  0.00  0.00    +0.000 N 
ATOM     27  C   UNL     1      44.580   4.137  12.755  0.00  0.00    +0.000 A 
ATOM     28  O   UNL     1      44.957   4.701  13.779  0.00  0.00    +0.000 OA
ATOM     29  C   UNL     1      44.973   4.535  11.419  0.00  0.00    +0.000 A 
ATOM     30  H   UNL     1      43.477   2.732  13.723  0.00  0.00    +0.000 HD
ENDBRANCH  17  20
ENDBRANCH   2  16
TORSDOF 5
ENDMDL
MODEL 5
REMARK VINA RESULT:    -8.376      2.604      3.817
REMARK INTER + INTRA:         -10.614
REMARK INTER:                  -9.445
REMARK INTRA:                  -1.169
REMARK UNBOUND:                 0.210
REMARK  Name = 
REMARK  6 active torsions:
REMARK  status: ('A' for Active; 'I' for Inactive)
REMARK    1  A    between atoms: C_1  and  C_2
REMARK    2  A    between atoms: C_2  and  N_3
REMARK    3  A    between atoms: C_2  and  C_16
REMARK    4  A    between atoms: C_4  and  C_6
REMARK    5  A    between atoms: C_19  and  O_20
REMARK    6  A    between atoms: O_20  and  C_21
REMARK                            x       y       z     vdW  Elec       q    Type
REMARK                         _______ _______ _______ _____ _____    ______ ____
ROOT
ATOM      1  C   UNL     1      47.903   8.788  13.896  0.00  0.00    +0.000 C 
ATOM      2  C   UNL     1      48.130   7.271  13.962  0.00  0.00    +0.000 C 
ENDROOT
BRANCH   2   3
ATOM      3  C   UNL     1      47.132   6.555  13.066  0.00  0.00    +0.000 A 
ATOM      4  C   UNL     1      46.663   5.279  13.408  0.00  0.00    +0.000 A 
ATOM      5  C   UNL     1      45.823   4.575  12.540  0.00  0.00    +0.000 A 
ATOM      6  C   UNL     1      45.380   5.161  11.351  0.00  0.00    +0.000 A 
ATOM      7  C   UNL     1      45.816   6.441  11.017  0.00  0.00    +0.000 A 
ATOM      8  C   UNL     1      46.684   7.132  11.865  0.00  0.00    +0.000 A 
BRANCH   6   9
ATOM      9  O   UNL     1      44.587   4.538  10.411  0.00  0.00    +0.000 OA
BRANCH   9  10
ATOM     10  C   UNL     1      45.153   3.819   9.386  0.00  0.00    +0.000 A 
ATOM     11  C   UNL     1      45.785   4.394   8.281  0.00  0.00    +0.000 A 
ATOM     12  C   UNL     1      46.304   3.591   7.269  0.00  0.00    +0.000 A 
ATOM     13  C   UNL     1      46.264   2.205   7.393  0.00  0.00    +0.000 A 
ATOM     14  C   UNL     1      45.698   1.621   8.526  0.00  0.00    +0.000 A 
ATOM     15  C   UNL     1      45.135   2.426   9.520  0.00  0.00    +0.000 A 
ENDBRANCH   9  10
ENDBRANCH   6   9
ENDBRANCH   2   3
BRANCH   2  16
ATOM     16  N   UNL     1      48.033   6.774  15.318  0.00  0.00    +0.000 N 
ATOM     17  C   UNL     1      49.135   6.402  16.042  0.00  0.00    +0.000 C 
ATOM     18  O   UNL     1      50.283   6.496  15.612  0.00  0.00    +0.000 OA
ATOM     19  H   UNL     1      47.131   6.372  15.580  0.00  0.00    +0.000 HD
BRANCH  17  20
ATOM     20  C   UNL     1      48.887   5.938  17.408  0.00  0.00    +0.000 A 
ATOM     21  C   UNL     1      49.103   4.606  17.738  0.00  0.00    +0.000 A 
ATOM     22  S   UNL     1      48.748   4.249  19.368  0.00  0.00    +0.000 S 
ATOM     23  C   UNL     1      48.263   5.853  19.672  0.00  0.00    +0.000 A 
ATOM     24  N   UNL     1      47.793   6.228  20.888  0.00  0.00    +0.000 NA
ATOM     25  C   UNL     1      47.437   7.468  20.963  0.00  0.00    +0.000 A 
ATOM     26  N   UNL     1      47.520   8.367  19.933  0.00  0.00    +0.000 N 
ATOM     27  C   UNL     1      48.022   8.045  18.699  0.00  0.00    +0.000 A 
ATOM     28  O   UNL     1      48.149   8.890  17.816  0.00  0.00    +0.000 OA
ATOM     29  C   UNL     1      48.408   6.657  18.555  0.00  0.00    +0.000 A 
ATOM     30  H   UNL     1      47.249   9.334  20.065  0.00  0.00    +0.000 HD
ENDBRANCH  17  20
ENDBRANCH   2  16
TORSDOF 5
ENDMDL
MODEL 6
REMARK VINA RESULT:    -8.298      3.833     10.070
REMARK INTER + INTRA:         -10.514
REMARK INTER:                  -9.158
REMARK INTRA:                  -1.356
REMARK UNBOUND:                 0.210
REMARK  Name = 
REMARK  6 active torsions:
REMARK  status: ('A' for Active; 'I' for Inactive)
REMARK    1  A    between atoms: C_1  and  C_2
REMARK    2  A    between atoms: C_2  and  N_3
REMARK    3  A    between atoms: C_2  and  C_16
REMARK    4  A    between atoms: C_4  and  C_6
REMARK    5  A    between atoms: C_19  and  O_20
REMARK    6  A    between atoms: O_20  and  C_21
REMARK                            x       y       z     vdW  Elec       q    Type
REMARK                         _______ _______ _______ _____ _____    ______ ____
ROOT
ATOM      1  C   UNL     1      47.565   3.152  16.716  0.00  0.00    +0.000 C 
ATOM      2  C   UNL     1      47.994   4.516  16.159  0.00  0.00    +0.000 C 
ENDROOT
BRANCH   2   3
ATOM      3  C   UNL     1      48.186   5.507  17.297  0.00  0.00    +0.000 A 
ATOM      4  C   UNL     1      47.375   5.439  18.438  0.00  0.00    +0.000 A 
ATOM      5  C   UNL     1      47.480   6.406  19.442  0.00  0.00    +0.000 A 
ATOM      6  C   UNL     1      48.443   7.415  19.357  0.00  0.00    +0.000 A 
ATOM      7  C   UNL     1      49.274   7.473  18.241  0.00  0.00    +0.000 A 
ATOM      8  C   UNL     1      49.148   6.529  17.219  0.00  0.00    +0.000 A 
BRANCH   6   9
ATOM      9  O   UNL     1      48.600   8.437  20.270  0.00  0.00    +0.000 OA
BRANCH   9  10
ATOM     10  C   UNL     1      47.546   9.261  20.583  0.00  0.00    +0.000 A 
ATOM     11  C   UNL     1      46.947  10.145  19.682  0.00  0.00    +0.000 A 
ATOM     12  C   UNL     1      45.903  10.970  20.092  0.00  0.00    +0.000 A 
ATOM     13  C   UNL     1      45.398  10.860  21.384  0.00  0.00    +0.000 A 
ATOM     14  C   UNL     1      45.943   9.931  22.271  0.00  0.00    +0.000 A 
ATOM     15  C   UNL     1      47.022   9.136  21.874  0.00  0.00    +0.000 A 
ENDBRANCH   9  10
ENDBRANCH   6   9
ENDBRANCH   2   3
BRANCH   2  16
ATOM     16  N   UNL     1      47.036   5.030  15.203  0.00  0.00    +0.000 N 
ATOM     17  C   UNL     1      47.418   5.677  14.058  0.00  0.00    +0.000 C 
ATOM     18  O   UNL     1      48.595   5.838  13.740  0.00  0.00    +0.000 OA
ATOM     19  H   UNL     1      46.100   5.219  15.570  0.00  0.00    +0.000 HD
BRANCH  17  20
ATOM     20  C   UNL     1      46.340   6.123  13.175  0.00  0.00    +0.000 A 
ATOM     21  C   UNL     1      46.173   7.477  12.912  0.00  0.00    +0.000 A 
ATOM     22  S   UNL     1      44.860   7.806  11.874  0.00  0.00    +0.000 S 
ATOM     23  C   UNL     1      44.455   6.154  11.772  0.00  0.00    +0.000 A 
ATOM     24  N   UNL     1      43.379   5.737  11.060  0.00  0.00    +0.000 NA
ATOM     25  C   UNL     1      43.178   4.460  11.096  0.00  0.00    +0.000 A 
ATOM     26  N   UNL     1      43.965   3.566  11.772  0.00  0.00    +0.000 N 
ATOM     27  C   UNL     1      45.083   3.936  12.474  0.00  0.00    +0.000 A 
ATOM     28  O   UNL     1      45.808   3.104  13.012  0.00  0.00    +0.000 OA
ATOM     29  C   UNL     1      45.334   5.362  12.489  0.00  0.00    +0.000 A 
ATOM     30  H   UNL     1      43.769   2.573  11.737  0.00  0.00    +0.000 HD
ENDBRANCH  17  20
ENDBRANCH   2  16
TORSDOF 5
ENDMDL
MODEL 7
REMARK VINA RESULT:    -8.209      2.285      3.726
REMARK INTER + INTRA:         -10.399
REMARK INTER:                  -9.428
REMARK INTRA:                  -0.971
REMARK UNBOUND:                 0.210
REMARK  Name = 
REMARK  6 active torsions:
REMARK  status: ('A' for Active; 'I' for Inactive)
REMARK    1  A    between atoms: C_1  and  C_2
REMARK    2  A    between atoms: C_2  and  N_3
REMARK    3  A    between atoms: C_2  and  C_16
REMARK    4  A    between atoms: C_4  and  C_6
REMARK    5  A    between atoms: C_19  and  O_20
REMARK    6  A    between atoms: O_20  and  C_21
REMARK                            x       y       z     vdW  Elec       q    Type
REMARK                         _______ _______ _______ _____ _____    ______ ____
ROOT
ATOM      1  C   UNL     1      48.096   9.397  13.495  0.00  0.00    +0.000 C 
ATOM      2  C   UNL     1      48.215   7.918  13.888  0.00  0.00    +0.000 C 
ENDROOT
BRANCH   2   3
ATOM      3  C   UNL     1      47.179   7.094  13.140  0.00  0.00    +0.000 A 
ATOM      4  C   UNL     1      47.040   5.724  13.402  0.00  0.00    +0.000 A 
ATOM      5  C   UNL     1      46.160   4.943  12.648  0.00  0.00    +0.000 A 
ATOM      6  C   UNL     1      45.351   5.528  11.670  0.00  0.00    +0.000 A 
ATOM      7  C   UNL     1      45.459   6.895  11.423  0.00  0.00    +0.000 A 
ATOM      8  C   UNL     1      46.364   7.671  12.150  0.00  0.00    +0.000 A 
BRANCH   6   9
ATOM      9  O   UNL     1      44.484   4.841  10.847  0.00  0.00    +0.000 OA
BRANCH   9  10
ATOM     10  C   UNL     1      44.962   4.080   9.808  0.00  0.00    +0.000 A 
ATOM     11  C   UNL     1      45.656   4.597   8.712  0.00  0.00    +0.000 A 
ATOM     12  C   UNL     1      46.078   3.758   7.684  0.00  0.00    +0.000 A 
ATOM     13  C   UNL     1      45.879   2.383   7.785  0.00  0.00    +0.000 A 
ATOM     14  C   UNL     1      45.249   1.849   8.909  0.00  0.00    +0.000 A 
ATOM     15  C   UNL     1      44.783   2.696   9.918  0.00  0.00    +0.000 A 
ENDBRANCH   9  10
ENDBRANCH   6   9
ENDBRANCH   2   3
BRANCH   2  16
ATOM     16  N   UNL     1      48.068   7.730  15.317  0.00  0.00    +0.000 N 
ATOM     17  C   UNL     1      49.009   7.080  16.071  0.00  0.00    +0.000 C 
ATOM     18  O   UNL     1      50.058   6.643  15.602  0.00  0.00    +0.000 OA
ATOM     19  H   UNL     1      47.110   7.764  15.673  0.00  0.00    +0.000 HD
BRANCH  17  20
ATOM     20  C   UNL     1      48.737   6.983  17.505  0.00  0.00    +0.000 A 
ATOM     21  C   UNL     1      48.458   8.130  18.238  0.00  0.00    +0.000 A 
ATOM     22  S   UNL     1      48.181   7.822  19.893  0.00  0.00    +0.000 S 
ATOM     23  C   UNL     1      48.459   6.154  19.686  0.00  0.00    +0.000 A 
ATOM     24  N   UNL     1      48.421   5.299  20.738  0.00  0.00    +0.000 NA
ATOM     25  C   UNL     1      48.679   4.068  20.436  0.00  0.00    +0.000 A 
ATOM     26  N   UNL     1      48.961   3.619  19.173  0.00  0.00    +0.000 N 
ATOM     27  C   UNL     1      48.975   4.438  18.074  0.00  0.00    +0.000 A 
ATOM     28  O   UNL     1      49.163   3.995  16.944  0.00  0.00    +0.000 OA
ATOM     29  C   UNL     1      48.721   5.833  18.366  0.00  0.00    +0.000 A 
ATOM     30  H   UNL     1      49.127   2.635  18.998  0.00  0.00    +0.000 HD
ENDBRANCH  17  20
ENDBRANCH   2  16
TORSDOF 5
ENDMDL
MODEL 8
REMARK VINA RESULT:    -7.905      4.203     10.172
REMARK INTER + INTRA:         -10.006
REMARK INTER:                  -8.721
REMARK INTRA:                  -1.284
REMARK UNBOUND:                 0.210
REMARK  Name = 
REMARK  6 active torsions:
REMARK  status: ('A' for Active; 'I' for Inactive)
REMARK    1  A    between atoms: C_1  and  C_2
REMARK    2  A    between atoms: C_2  and  N_3
REMARK    3  A    between atoms: C_2  and  C_16
REMARK    4  A    between atoms: C_4  and  C_6
REMARK    5  A    between atoms: C_19  and  O_20
REMARK    6  A    between atoms: O_20  and  C_21
REMARK                            x       y       z     vdW  Elec       q    Type
REMARK                         _______ _______ _______ _____ _____    ______ ____
ROOT
ATOM      1  C   UNL     1      47.360   2.983  17.332  0.00  0.00    +0.000 C 
ATOM      2  C   UNL     1      47.853   4.262  16.640  0.00  0.00    +0.000 C 
ENDROOT
BRANCH   2   3
ATOM      3  C   UNL     1      48.062   5.363  17.668  0.00  0.00    +0.000 A 
ATOM      4  C   UNL     1      47.245   5.434  18.804  0.00  0.00    +0.000 A 
ATOM      5  C   UNL     1      47.367   6.500  19.701  0.00  0.00    +0.000 A 
ATOM      6  C   UNL     1      48.353   7.473  19.516  0.00  0.00    +0.000 A 
ATOM      7  C   UNL     1      49.191   7.394  18.406  0.00  0.00    +0.000 A 
ATOM      8  C   UNL     1      49.047   6.350  17.489  0.00  0.00    +0.000 A 
BRANCH   6   9
ATOM      9  O   UNL     1      48.530   8.581  20.317  0.00  0.00    +0.000 OA
BRANCH   9  10
ATOM     10  C   UNL     1      47.451   9.340  20.706  0.00  0.00    +0.000 A 
ATOM     11  C   UNL     1      46.887   9.303  21.983  0.00  0.00    +0.000 A 
ATOM     12  C   UNL     1      45.773  10.081  22.285  0.00  0.00    +0.000 A 
ATOM     13  C   UNL     1      45.264  10.962  21.334  0.00  0.00    +0.000 A 
ATOM     14  C   UNL     1      45.864  11.058  20.078  0.00  0.00    +0.000 A 
ATOM     15  C   UNL     1      46.953  10.242  19.760  0.00  0.00    +0.000 A 
ENDBRANCH   9  10
ENDBRANCH   6   9
ENDBRANCH   2   3
BRANCH   2  16
ATOM     16  N   UNL     1      46.934   4.703  15.612  0.00  0.00    +0.000 N 
ATOM     17  C   UNL     1      46.965   4.203  14.337  0.00  0.00    +0.000 C 
ATOM     18  O   UNL     1      47.746   3.321  13.983  0.00  0.00    +0.000 OA
ATOM     19  H   UNL     1      46.522   5.628  15.752  0.00  0.00    +0.000 HD
BRANCH  17  20
ATOM     20  C   UNL     1      45.963   4.727  13.409  0.00  0.00    +0.000 A 
ATOM     21  C   UNL     1      45.016   3.874  12.856  0.00  0.00    +0.000 A 
ATOM     22  S   UNL     1      43.941   4.661  11.790  0.00  0.00    +0.000 S 
ATOM     23  C   UNL     1      44.730   6.155  12.009  0.00  0.00    +0.000 A 
ATOM     24  N   UNL     1      44.333   7.265  11.337  0.00  0.00    +0.000 NA
ATOM     25  C   UNL     1      45.041   8.318  11.582  0.00  0.00    +0.000 A 
ATOM     26  N   UNL     1      46.103   8.360  12.446  0.00  0.00    +0.000 N 
ATOM     27  C   UNL     1      46.517   7.275  13.174  0.00  0.00    +0.000 A 
ATOM     28  O   UNL     1      47.428   7.361  13.993  0.00  0.00    +0.000 OA
ATOM     29  C   UNL     1      45.773   6.061  12.912  0.00  0.00    +0.000 A 
ATOM     30  H   UNL     1      46.600   9.226  12.615  0.00  0.00    +0.000 HD
ENDBRANCH  17  20
ENDBRANCH   2  16
TORSDOF 5
ENDMDL
MODEL 9
REMARK VINA RESULT:    -7.700      3.330      9.292
REMARK INTER + INTRA:          -9.740
REMARK INTER:                  -8.484
REMARK INTRA:                  -1.257
REMARK UNBOUND:                 0.210
REMARK  Name = 
REMARK  6 active torsions:
REMARK  status: ('A' for Active; 'I' for Inactive)
REMARK    1  A    between atoms: C_1  and  C_2
REMARK    2  A    between atoms: C_2  and  N_3
REMARK    3  A    between atoms: C_2  and  C_16
REMARK    4  A    between atoms: C_4  and  C_6
REMARK    5  A    between atoms: C_19  and  O_20
REMARK    6  A    between atoms: O_20  and  C_21
REMARK                            x       y       z     vdW  Elec       q    Type
REMARK                         _______ _______ _______ _____ _____    ______ ____
ROOT
ATOM      1  C   UNL     1      49.208   7.664  11.566  0.00  0.00    +0.000 C 
ATOM      2  C   UNL     1      47.925   7.683  12.408  0.00  0.00    +0.000 C 
ENDROOT
BRANCH   2   3
ATOM      3  C   UNL     1      48.271   7.783  13.885  0.00  0.00    +0.000 A 
ATOM      4  C   UNL     1      47.931   8.930  14.615  0.00  0.00    +0.000 A 
ATOM      5  C   UNL     1      48.333   9.069  15.946  0.00  0.00    +0.000 A 
ATOM      6  C   UNL     1      49.019   8.036  16.592  0.00  0.00    +0.000 A 
ATOM      7  C   UNL     1      49.333   6.878  15.884  0.00  0.00    +0.000 A 
ATOM      8  C   UNL     1      48.964   6.752  14.543  0.00  0.00    +0.000 A 
BRANCH   6   9
ATOM      9  O   UNL     1      49.493   8.090  17.885  0.00  0.00    +0.000 OA
BRANCH   9  10
ATOM     10  C   UNL     1      49.141   7.125  18.799  0.00  0.00    +0.000 A 
ATOM     11  C   UNL     1      49.993   6.105  19.230  0.00  0.00    +0.000 A 
ATOM     12  C   UNL     1      49.545   5.147  20.135  0.00  0.00    +0.000 A 
ATOM     13  C   UNL     1      48.266   5.249  20.676  0.00  0.00    +0.000 A 
ATOM     14  C   UNL     1      47.432   6.304  20.305  0.00  0.00    +0.000 A 
ATOM     15  C   UNL     1      47.865   7.239  19.362  0.00  0.00    +0.000 A 
ENDBRANCH   9  10
ENDBRANCH   6   9
ENDBRANCH   2   3
BRANCH   2  16
ATOM     16  N   UNL     1      47.106   6.514  12.162  0.00  0.00    +0.000 N 
ATOM     17  C   UNL     1      45.738   6.556  12.201  0.00  0.00    +0.000 C 
ATOM     18  O   UNL     1      45.105   7.590  12.409  0.00  0.00    +0.000 OA
ATOM     19  H   UNL     1      47.561   5.612  12.321  0.00  0.00    +0.000 HD
BRANCH  17  20
ATOM     20  C   UNL     1      45.041   5.302  11.912  0.00  0.00    +0.000 A 
ATOM     21  C   UNL     1      44.337   4.651  12.918  0.00  0.00    +0.000 A 
ATOM     22  S   UNL     1      43.604   3.202  12.399  0.00  0.00    +0.000 S 
ATOM     23  C   UNL     1      44.233   3.382  10.826  0.00  0.00    +0.000 A 
ATOM     24  N   UNL     1      44.015   2.444   9.870  0.00  0.00    +0.000 NA
ATOM     25  C   UNL     1      44.577   2.701   8.734  0.00  0.00    +0.000 A 
ATOM     26  N   UNL     1      45.328   3.816   8.469  0.00  0.00    +0.000 N 
ATOM     27  C   UNL     1      45.544   4.806   9.391  0.00  0.00    +0.000 A 
ATOM     28  O   UNL     1      46.163   5.828   9.103  0.00  0.00    +0.000 OA
ATOM     29  C   UNL     1      44.959   4.551  10.691  0.00  0.00    +0.000 A 
ATOM     30  H   UNL     1      45.718   3.971   7.548  0.00  0.00    +0.000 HD
ENDBRANCH  17  20
ENDBRANCH   2  16
TORSDOF 5
ENDMDL
