MODEL 1
REMARK VINA RESULT:    -7.564      0.000      0.000
REMARK INTER + INTRA:         -10.621
REMARK INTER:                  -9.775
REMARK INTRA:                  -0.846
REMARK UNBOUND:                -0.846
REMARK  Name = 
REMARK  5 active torsions:
REMARK  status: ('A' for Active; 'I' for Inactive)
REMARK    1  A    between atoms: C_2  and  C_3
REMARK    2  A    between atoms: C_5  and  O_6
REMARK    3  A    between atoms: O_6  and  C_7
REMARK    4  A    between atoms: C_7  and  C_8
REMARK    5  A    between atoms: C_12  and  C_13
REMARK                            x       y       z     vdW  Elec       q    Type
REMARK                         _______ _______ _______ _____ _____    ______ ____
ROOT
ATOM      1  C   UNL     1      44.230   4.965  10.635  0.00  0.00    +0.000 A 
ATOM      2  C   UNL     1      43.408   4.079  11.338  0.00  0.00    +0.000 A 
ATOM      3  C   UNL     1      43.452   2.715  11.061  0.00  0.00    +0.000 A 
ATOM      4  C   UNL     1      44.301   2.231  10.063  0.00  0.00    +0.000 A 
ATOM      5  C   UNL     1      45.112   3.095   9.305  0.00  0.00    +0.000 A 
ATOM      6  C   UNL     1      45.097   4.460   9.650  0.00  0.00    +0.000 A 
ENDROOT
BRANCH   5   7
ATOM      7  C   UNL     1      45.843   2.615   8.107  0.00  0.00    +0.000 A 
ATOM      8  C   UNL     1      46.098   3.492   7.035  0.00  0.00    +0.000 A 
ATOM      9  C   UNL     1      46.884   3.115   5.944  0.00  0.00    +0.000 A 
ATOM     10  C   UNL     1      47.443   1.844   5.903  0.00  0.00    +0.000 A 
ATOM     11  C   UNL     1      47.194   0.946   6.937  0.00  0.00    +0.000 A 
ATOM     12  C   UNL     1      46.392   1.324   8.022  0.00  0.00    +0.000 A 
ENDBRANCH   5   7
BRANCH   1  13
ATOM     13  C   UNL     1      44.144   6.451  10.881  0.00  0.00    +0.000 C 
BRANCH  13  14
ATOM     14  O   UNL     1      44.392   6.726  12.258  0.00  0.00    +0.000 OA
BRANCH  14  17
ATOM     15  C   UNL     1      47.140   5.055  14.070  0.00  0.00    +0.000 A 
ATOM     16  C   UNL     1      45.828   5.314  13.675  0.00  0.00    +0.000 A 
ATOM     17  C   UNL     1      45.607   6.334  12.754  0.00  0.00    +0.000 A 
ATOM     18  C   UNL     1      46.698   7.048  12.265  0.00  0.00    +0.000 A 
ATOM     19  C   UNL     1      47.965   6.721  12.714  0.00  0.00    +0.000 A 
ATOM     20  N   UNL     1      48.210   5.740  13.606  0.00  0.00    +0.000 NA
BRANCH  15  22
ATOM     21  N   UNL     1      47.692   3.166  15.767  0.00  0.00    +0.000 NA
ATOM     22  C   UNL     1      47.419   4.021  15.025  0.00  0.00    +0.000 C 
ENDBRANCH  15  22
ENDBRANCH  14  17
ENDBRANCH  13  14
ENDBRANCH   1  13
TORSDOF 5
ENDMDL
MODEL 2
REMARK VINA RESULT:    -7.345      1.006      2.172
REMARK INTER + INTRA:         -10.338
REMARK INTER:                  -9.391
REMARK INTRA:                  -0.947
REMARK UNBOUND:                -0.846
REMARK  Name = 
REMARK  5 active torsions:
REMARK  status: ('A' for Active; 'I' for Inactive)
REMARK    1  A    between atoms: C_2  and  C_3
REMARK    2  A    between atoms: C_5  and  O_6
REMARK    3  A    between atoms: O_6  and  C_7
REMARK    4  A    between atoms: C_7  and  C_8
REMARK    5  A    between atoms: C_12  and  C_13
REMARK                            x       y       z     vdW  Elec       q    Type
REMARK                         _______ _______ _______ _____ _____    ______ ____
ROOT
ATOM      1  C   UNL     1      44.069   5.122  11.008  0.00  0.00    +0.000 A 
ATOM      2  C   UNL     1      43.251   4.227  11.705  0.00  0.00    +0.000 A 
ATOM      3  C   UNL     1      43.293   2.867  11.412  0.00  0.00    +0.000 A 
ATOM      4  C   UNL     1      44.137   2.395  10.404  0.00  0.00    +0.000 A 
ATOM      5  C   UNL     1      44.943   3.267   9.651  0.00  0.00    +0.000 A 
ATOM      6  C   UNL     1      44.930   4.628  10.012  0.00  0.00    +0.000 A 
ENDROOT
BRANCH   5   7
ATOM      7  C   UNL     1      45.666   2.800   8.443  0.00  0.00    +0.000 A 
ATOM      8  C   UNL     1      45.978   3.707   7.411  0.00  0.00    +0.000 A 
ATOM      9  C   UNL     1      46.760   3.336   6.315  0.00  0.00    +0.000 A 
ATOM     10  C   UNL     1      47.258   2.042   6.229  0.00  0.00    +0.000 A 
ATOM     11  C   UNL     1      46.952   1.117   7.222  0.00  0.00    +0.000 A 
ATOM     12  C   UNL     1      46.155   1.488   8.312  0.00  0.00    +0.000 A 
ENDBRANCH   5   7
BRANCH   1  13
ATOM     13  C   UNL     1      43.985   6.605  11.271  0.00  0.00    +0.000 C 
BRANCH  13  14
ATOM     14  O   UNL     1      44.521   6.896  12.560  0.00  0.00    +0.000 OA
BRANCH  14  17
ATOM     15  C   UNL     1      48.210   6.960  12.449  0.00  0.00    +0.000 A 
ATOM     16  C   UNL     1      46.906   7.351  12.149  0.00  0.00    +0.000 A 
ATOM     17  C   UNL     1      45.857   6.654  12.740  0.00  0.00    +0.000 A 
ATOM     18  C   UNL     1      46.149   5.602  13.605  0.00  0.00    +0.000 A 
ATOM     19  C   UNL     1      47.475   5.284  13.844  0.00  0.00    +0.000 A 
ATOM     20  N   UNL     1      48.511   5.939  13.285  0.00  0.00    +0.000 NA
BRANCH  15  22
ATOM     21  N   UNL     1      50.203   8.243  11.385  0.00  0.00    +0.000 NA
ATOM     22  C   UNL     1      49.326   7.641  11.857  0.00  0.00    +0.000 C 
ENDBRANCH  15  22
ENDBRANCH  14  17
ENDBRANCH  13  14
ENDBRANCH   1  13
TORSDOF 5
ENDMDL
MODEL 3
REMARK VINA RESULT:    -7.258      1.486      2.068
REMARK INTER + INTRA:         -10.226
REMARK INTER:                  -9.373
REMARK INTRA:                  -0.853
REMARK UNBOUND:                -0.846
REMARK  Name = 
REMARK  5 active torsions:
REMARK  status: ('A' for Active; 'I' for Inactive)
REMARK    1  A    between atoms: C_2  and  C_3
REMARK    2  A    between atoms: C_5  and  O_6
REMARK    3  A    between atoms: O_6  and  C_7
REMARK    4  A    between atoms: C_7  and  C_8
REMARK    5  A    between atoms: C_12  and  C_13
REMARK                            x       y       z     vdW  Elec       q    Type
REMARK                         _______ _______ _______ _____ _____    ______ ____
ROOT
ATOM      1  C   UNL     1      45.166   6.326  11.633  0.00  0.00    +0.000 A 
ATOM      2  C   UNL     1      43.782   6.358  11.827  0.00  0.00    +0.000 A 
ATOM      3  C   UNL     1      42.964   5.430  11.188  0.00  0.00    +0.000 A 
ATOM      4  C   UNL     1      43.523   4.479  10.332  0.00  0.00    +0.000 A 
ATOM      5  C   UNL     1      44.905   4.440  10.076  0.00  0.00    +0.000 A 
ATOM      6  C   UNL     1      45.716   5.347  10.786  0.00  0.00    +0.000 A 
ENDROOT
BRANCH   5   7
ATOM      7  C   UNL     1      45.468   3.582   9.007  0.00  0.00    +0.000 A 
ATOM      8  C   UNL     1      46.123   4.165   7.903  0.00  0.00    +0.000 A 
ATOM      9  C   UNL     1      46.771   3.391   6.937  0.00  0.00    +0.000 A 
ATOM     10  C   UNL     1      46.785   2.008   7.057  0.00  0.00    +0.000 A 
ATOM     11  C   UNL     1      46.132   1.400   8.125  0.00  0.00    +0.000 A 
ATOM     12  C   UNL     1      45.470   2.178   9.082  0.00  0.00    +0.000 A 
ENDBRANCH   5   7
BRANCH   1  13
ATOM     13  C   UNL     1      46.055   7.366  12.268  0.00  0.00    +0.000 C 
BRANCH  13  14
ATOM     14  O   UNL     1      47.385   6.862  12.376  0.00  0.00    +0.000 OA
BRANCH  14  17
ATOM     15  C   UNL     1      47.781   5.142  15.617  0.00  0.00    +0.000 A 
ATOM     16  C   UNL     1      47.238   5.415  14.363  0.00  0.00    +0.000 A 
ATOM     17  C   UNL     1      47.790   6.454  13.619  0.00  0.00    +0.000 A 
ATOM     18  C   UNL     1      48.857   7.172  14.152  0.00  0.00    +0.000 A 
ATOM     19  C   UNL     1      49.331   6.830  15.406  0.00  0.00    +0.000 A 
ATOM     20  N   UNL     1      48.817   5.831  16.151  0.00  0.00    +0.000 NA
BRANCH  15  22
ATOM     21  N   UNL     1      46.795   3.272  17.128  0.00  0.00    +0.000 NA
ATOM     22  C   UNL     1      47.242   4.088  16.428  0.00  0.00    +0.000 C 
ENDBRANCH  15  22
ENDBRANCH  14  17
ENDBRANCH  13  14
ENDBRANCH   1  13
TORSDOF 5
ENDMDL
MODEL 4
REMARK VINA RESULT:    -7.215      2.951      6.519
REMARK INTER + INTRA:         -10.170
REMARK INTER:                  -9.106
REMARK INTRA:                  -1.065
REMARK UNBOUND:                -0.846
REMARK  Name = 
REMARK  5 active torsions:
REMARK  status: ('A' for Active; 'I' for Inactive)
REMARK    1  A    between atoms: C_2  and  C_3
REMARK    2  A    between atoms: C_5  and  O_6
REMARK    3  A    between atoms: O_6  and  C_7
REMARK    4  A    between atoms: C_7  and  C_8
REMARK    5  A    between atoms: C_12  and  C_13
REMARK                            x       y       z     vdW  Elec       q    Type
REMARK                         _______ _______ _______ _____ _____    ______ ____
ROOT
ATOM      1  C   UNL     1      44.890   4.069  12.132  0.00  0.00    +0.000 A 
ATOM      2  C   UNL     1      45.822   3.316  12.852  0.00  0.00    +0.000 A 
ATOM      3  C   UNL     1      46.840   3.951  13.558  0.00  0.00    +0.000 A 
ATOM      4  C   UNL     1      46.947   5.344  13.527  0.00  0.00    +0.000 A 
ATOM      5  C   UNL     1      46.056   6.134  12.781  0.00  0.00    +0.000 A 
ATOM      6  C   UNL     1      44.997   5.471  12.131  0.00  0.00    +0.000 A 
ENDROOT
BRANCH   5   7
ATOM      7  C   UNL     1      46.299   7.582  12.570  0.00  0.00    +0.000 A 
ATOM      8  C   UNL     1      47.614   8.086  12.573  0.00  0.00    +0.000 A 
ATOM      9  C   UNL     1      47.894   9.418  12.260  0.00  0.00    +0.000 A 
ATOM     10  C   UNL     1      46.858  10.281  11.928  0.00  0.00    +0.000 A 
ATOM     11  C   UNL     1      45.545   9.819  11.935  0.00  0.00    +0.000 A 
ATOM     12  C   UNL     1      45.267   8.487  12.264  0.00  0.00    +0.000 A 
ENDBRANCH   5   7
BRANCH   1  13
ATOM     13  C   UNL     1      43.822   3.389  11.312  0.00  0.00    +0.000 C 
BRANCH  13  14
ATOM     14  O   UNL     1      43.837   3.900   9.981  0.00  0.00    +0.000 OA
BRANCH  14  17
ATOM     15  C   UNL     1      46.165   1.767   8.068  0.00  0.00    +0.000 A 
ATOM     16  C   UNL     1      45.140   2.075   8.961  0.00  0.00    +0.000 A 
ATOM     17  C   UNL     1      44.809   3.414   9.147  0.00  0.00    +0.000 A 
ATOM     18  C   UNL     1      45.509   4.387   8.437  0.00  0.00    +0.000 A 
ATOM     19  C   UNL     1      46.512   3.987   7.572  0.00  0.00    +0.000 A 
ATOM     20  N   UNL     1      46.857   2.700   7.372  0.00  0.00    +0.000 NA
BRANCH  15  22
ATOM     21  N   UNL     1      46.871  -0.710   7.728  0.00  0.00    +0.000 NA
ATOM     22  C   UNL     1      46.551   0.403   7.849  0.00  0.00    +0.000 C 
ENDBRANCH  15  22
ENDBRANCH  14  17
ENDBRANCH  13  14
ENDBRANCH   1  13
TORSDOF 5
ENDMDL
MODEL 5
REMARK VINA RESULT:    -6.446      2.277      4.211
REMARK INTER + INTRA:          -9.175
REMARK INTER:                  -8.292
REMARK INTRA:                  -0.883
REMARK UNBOUND:                -0.846
REMARK  Name = 
REMARK  5 active torsions:
REMARK  status: ('A' for Active; 'I' for Inactive)
REMARK    1  A    between atoms: C_2  and  C_3
REMARK    2  A    between atoms: C_5  and  O_6
REMARK    3  A    between atoms: O_6  and  C_7
REMARK    4  A    between atoms: C_7  and  C_8
REMARK    5  A    between atoms: C_12  and  C_13
REMARK                            x       y       z     vdW  Elec       q    Type
REMARK                         _______ _______ _______ _____ _____    ______ ____
ROOT
ATOM      1  C   UNL     1      47.290   7.504  12.545  0.00  0.00    +0.000 A 
ATOM      2  C   UNL     1      46.452   8.623  12.579  0.00  0.00    +0.000 A 
ATOM      3  C   UNL     1      45.171   8.554  12.038  0.00  0.00    +0.000 A 
ATOM      4  C   UNL     1      44.729   7.373  11.437  0.00  0.00    +0.000 A 
ATOM      5  C   UNL     1      45.556   6.239  11.345  0.00  0.00    +0.000 A 
ATOM      6  C   UNL     1      46.822   6.315  11.959  0.00  0.00    +0.000 A 
ENDROOT
BRANCH   5   7
ATOM      7  C   UNL     1      45.172   5.069  10.520  0.00  0.00    +0.000 A 
ATOM      8  C   UNL     1      45.561   4.999   9.168  0.00  0.00    +0.000 A 
ATOM      9  C   UNL     1      45.324   3.863   8.390  0.00  0.00    +0.000 A 
ATOM     10  C   UNL     1      44.695   2.760   8.954  0.00  0.00    +0.000 A 
ATOM     11  C   UNL     1      44.282   2.804  10.281  0.00  0.00    +0.000 A 
ATOM     12  C   UNL     1      44.507   3.951  11.053  0.00  0.00    +0.000 A 
ENDBRANCH   5   7
BRANCH   1  13
ATOM     13  C   UNL     1      48.702   7.586  13.070  0.00  0.00    +0.000 C 
BRANCH  13  14
ATOM     14  O   UNL     1      48.682   7.903  14.460  0.00  0.00    +0.000 OA
BRANCH  14  17
ATOM     15  C   UNL     1      48.388   4.900  16.587  0.00  0.00    +0.000 A 
ATOM     16  C   UNL     1      47.987   5.878  15.676  0.00  0.00    +0.000 A 
ATOM     17  C   UNL     1      48.901   6.869  15.330  0.00  0.00    +0.000 A 
ATOM     18  C   UNL     1      50.172   6.843  15.900  0.00  0.00    +0.000 A 
ATOM     19  C   UNL     1      50.481   5.833  16.794  0.00  0.00    +0.000 A 
ATOM     20  N   UNL     1      49.618   4.862  17.151  0.00  0.00    +0.000 NA
BRANCH  15  22
ATOM     21  N   UNL     1      46.714   3.061  17.338  0.00  0.00    +0.000 NA
ATOM     22  C   UNL     1      47.480   3.863  16.984  0.00  0.00    +0.000 C 
ENDBRANCH  15  22
ENDBRANCH  14  17
ENDBRANCH  13  14
ENDBRANCH   1  13
TORSDOF 5
ENDMDL
MODEL 6
REMARK VINA RESULT:    -6.374      2.095      2.551
REMARK INTER + INTRA:          -9.083
REMARK INTER:                  -8.327
REMARK INTRA:                  -0.757
REMARK UNBOUND:                -0.846
REMARK  Name = 
REMARK  5 active torsions:
REMARK  status: ('A' for Active; 'I' for Inactive)
REMARK    1  A    between atoms: C_2  and  C_3
REMARK    2  A    between atoms: C_5  and  O_6
REMARK    3  A    between atoms: O_6  and  C_7
REMARK    4  A    between atoms: C_7  and  C_8
REMARK    5  A    between atoms: C_12  and  C_13
REMARK                            x       y       z     vdW  Elec       q    Type
REMARK                         _______ _______ _______ _____ _____    ______ ____
ROOT
ATOM      1  C   UNL     1      44.793   6.285  11.405  0.00  0.00    +0.000 A 
ATOM      2  C   UNL     1      43.506   5.967  11.850  0.00  0.00    +0.000 A 
ATOM      3  C   UNL     1      42.891   4.791  11.427  0.00  0.00    +0.000 A 
ATOM      4  C   UNL     1      43.549   3.938  10.538  0.00  0.00    +0.000 A 
ATOM      5  C   UNL     1      44.826   4.243  10.035  0.00  0.00    +0.000 A 
ATOM      6  C   UNL     1      45.452   5.404  10.529  0.00  0.00    +0.000 A 
ENDROOT
BRANCH   5   7
ATOM      7  C   UNL     1      45.428   3.458   8.931  0.00  0.00    +0.000 A 
ATOM      8  C   UNL     1      46.004   4.117   7.826  0.00  0.00    +0.000 A 
ATOM      9  C   UNL     1      46.687   3.420   6.826  0.00  0.00    +0.000 A 
ATOM     10  C   UNL     1      46.815   2.040   6.911  0.00  0.00    +0.000 A 
ATOM     11  C   UNL     1      46.241   1.357   7.979  0.00  0.00    +0.000 A 
ATOM     12  C   UNL     1      45.544   2.058   8.972  0.00  0.00    +0.000 A 
ENDBRANCH   5   7
BRANCH   1  13
ATOM     13  C   UNL     1      45.443   7.586  11.804  0.00  0.00    +0.000 C 
BRANCH  13  14
ATOM     14  O   UNL     1      46.071   7.441  13.076  0.00  0.00    +0.000 OA
BRANCH  14  17
ATOM     15  C   UNL     1      49.602   7.820  14.084  0.00  0.00    +0.000 A 
ATOM     16  C   UNL     1      48.221   7.705  14.246  0.00  0.00    +0.000 A 
ATOM     17  C   UNL     1      47.434   7.564  13.107  0.00  0.00    +0.000 A 
ATOM     18  C   UNL     1      48.052   7.540  11.859  0.00  0.00    +0.000 A 
ATOM     19  C   UNL     1      49.429   7.660  11.795  0.00  0.00    +0.000 A 
ATOM     20  N   UNL     1      50.218   7.801  12.879  0.00  0.00    +0.000 NA
BRANCH  15  22
ATOM     21  N   UNL     1      51.165   8.159  16.131  0.00  0.00    +0.000 NA
ATOM     22  C   UNL     1      50.456   7.979  15.226  0.00  0.00    +0.000 C 
ENDBRANCH  15  22
ENDBRANCH  14  17
ENDBRANCH  13  14
ENDBRANCH   1  13
TORSDOF 5
ENDMDL
MODEL 7
REMARK VINA RESULT:    -6.202      2.639      3.712
REMARK INTER + INTRA:          -8.860
REMARK INTER:                  -8.018
REMARK INTRA:                  -0.842
REMARK UNBOUND:                -0.846
REMARK  Name = 
REMARK  5 active torsions:
REMARK  status: ('A' for Active; 'I' for Inactive)
REMARK    1  A    between atoms: C_2  and  C_3
REMARK    2  A    between atoms: C_5  and  O_6
REMARK    3  A    between atoms: O_6  and  C_7
REMARK    4  A    between atoms: C_7  and  C_8
REMARK    5  A    between atoms: C_12  and  C_13
REMARK                            x       y       z     vdW  Elec       q    Type
REMARK                         _______ _______ _______ _____ _____    ______ ____
ROOT
ATOM      1  C   UNL     1      44.955   5.841  12.205  0.00  0.00    +0.000 A 
ATOM      2  C   UNL     1      43.593   5.698  12.486  0.00  0.00    +0.000 A 
ATOM      3  C   UNL     1      42.827   4.772  11.783  0.00  0.00    +0.000 A 
ATOM      4  C   UNL     1      43.413   4.000  10.777  0.00  0.00    +0.000 A 
ATOM      5  C   UNL     1      44.770   4.143  10.436  0.00  0.00    +0.000 A 
ATOM      6  C   UNL     1      45.536   5.039  11.207  0.00  0.00    +0.000 A 
ENDROOT
BRANCH   5   7
ATOM      7  C   UNL     1      45.336   3.489   9.232  0.00  0.00    +0.000 A 
ATOM      8  C   UNL     1      45.855   4.271   8.180  0.00  0.00    +0.000 A 
ATOM      9  C   UNL     1      46.504   3.696   7.086  0.00  0.00    +0.000 A 
ATOM     10  C   UNL     1      46.656   2.317   7.019  0.00  0.00    +0.000 A 
ATOM     11  C   UNL     1      46.138   1.516   8.032  0.00  0.00    +0.000 A 
ATOM     12  C   UNL     1      45.474   2.095   9.121  0.00  0.00    +0.000 A 
ENDBRANCH   5   7
BRANCH   1  13
ATOM     13  C   UNL     1      45.780   6.885  12.916  0.00  0.00    +0.000 C 
BRANCH  13  14
ATOM     14  O   UNL     1      47.138   6.799  12.489  0.00  0.00    +0.000 OA
BRANCH  14  17
ATOM     15  C   UNL     1      49.549   9.415  11.504  0.00  0.00    +0.000 A 
ATOM     16  C   UNL     1      49.091   8.131  11.801  0.00  0.00    +0.000 A 
ATOM     17  C   UNL     1      47.756   7.977  12.164  0.00  0.00    +0.000 A 
ATOM     18  C   UNL     1      46.936   9.101  12.213  0.00  0.00    +0.000 A 
ATOM     19  C   UNL     1      47.478  10.336  11.902  0.00  0.00    +0.000 A 
ATOM     20  N   UNL     1      48.766  10.518  11.549  0.00  0.00    +0.000 NA
BRANCH  15  22
ATOM     21  N   UNL     1      52.028   9.754  10.803  0.00  0.00    +0.000 NA
ATOM     22  C   UNL     1      50.919   9.629  11.135  0.00  0.00    +0.000 C 
ENDBRANCH  15  22
ENDBRANCH  14  17
ENDBRANCH  13  14
ENDBRANCH   1  13
TORSDOF 5
ENDMDL
MODEL 8
REMARK VINA RESULT:    -6.201      2.472      4.533
REMARK INTER + INTRA:          -8.859
REMARK INTER:                  -7.981
REMARK INTRA:                  -0.878
REMARK UNBOUND:                -0.846
REMARK  Name = 
REMARK  5 active torsions:
REMARK  status: ('A' for Active; 'I' for Inactive)
REMARK    1  A    between atoms: C_2  and  C_3
REMARK    2  A    between atoms: C_5  and  O_6
REMARK    3  A    between atoms: O_6  and  C_7
REMARK    4  A    between atoms: C_7  and  C_8
REMARK    5  A    between atoms: C_12  and  C_13
REMARK                            x       y       z     vdW  Elec       q    Type
REMARK                         _______ _______ _______ _____ _____    ______ ____
ROOT
ATOM      1  C   UNL     1      46.914   7.191  13.097  0.00  0.00    +0.000 A 
ATOM      2  C   UNL     1      46.226   8.396  12.924  0.00  0.00    +0.000 A 
ATOM      3  C   UNL     1      45.118   8.455  12.082  0.00  0.00    +0.000 A 
ATOM      4  C   UNL     1      44.706   7.314  11.390  0.00  0.00    +0.000 A 
ATOM      5  C   UNL     1      45.396   6.094  11.504  0.00  0.00    +0.000 A 
ATOM      6  C   UNL     1      46.472   6.045  12.411  0.00  0.00    +0.000 A 
ENDROOT
BRANCH   5   7
ATOM      7  C   UNL     1      45.096   4.951  10.607  0.00  0.00    +0.000 A 
ATOM      8  C   UNL     1      45.529   4.971   9.267  0.00  0.00    +0.000 A 
ATOM      9  C   UNL     1      45.373   3.867   8.425  0.00  0.00    +0.000 A 
ATOM     10  C   UNL     1      44.782   2.708   8.910  0.00  0.00    +0.000 A 
ATOM     11  C   UNL     1      44.325   2.663  10.224  0.00  0.00    +0.000 A 
ATOM     12  C   UNL     1      44.470   3.777  11.060  0.00  0.00    +0.000 A 
ENDBRANCH   5   7
BRANCH   1  13
ATOM     13  C   UNL     1      48.153   7.130  13.955  0.00  0.00    +0.000 C 
BRANCH  13  14
ATOM     14  O   UNL     1      48.422   5.778  14.319  0.00  0.00    +0.000 OA
BRANCH  14  17
ATOM     15  C   UNL     1      48.293   5.591  18.003  0.00  0.00    +0.000 A 
ATOM     16  C   UNL     1      48.645   6.093  16.751  0.00  0.00    +0.000 A 
ATOM     17  C   UNL     1      48.176   5.431  15.620  0.00  0.00    +0.000 A 
ATOM     18  C   UNL     1      47.376   4.302  15.783  0.00  0.00    +0.000 A 
ATOM     19  C   UNL     1      47.077   3.876  17.065  0.00  0.00    +0.000 A 
ATOM     20  N   UNL     1      47.518   4.494  18.179  0.00  0.00    +0.000 NA
BRANCH  15  22
ATOM     21  N   UNL     1      49.137   6.801  20.141  0.00  0.00    +0.000 NA
ATOM     22  C   UNL     1      48.759   6.231  19.199  0.00  0.00    +0.000 C 
ENDBRANCH  15  22
ENDBRANCH  14  17
ENDBRANCH  13  14
ENDBRANCH   1  13
TORSDOF 5
ENDMDL
MODEL 9
REMARK VINA RESULT:    -6.114      3.356      6.847
REMARK INTER + INTRA:          -8.747
REMARK INTER:                  -7.897
REMARK INTRA:                  -0.849
REMARK UNBOUND:                -0.846
REMARK  Name = 
REMARK  5 active torsions:
REMARK  status: ('A' for Active; 'I' for Inactive)
REMARK    1  A    between atoms: C_2  and  C_3
REMARK    2  A    between atoms: C_5  and  O_6
REMARK    3  A    between atoms: O_6  and  C_7
REMARK    4  A    between atoms: C_7  and  C_8
REMARK    5  A    between atoms: C_12  and  C_13
REMARK                            x       y       z     vdW  Elec       q    Type
REMARK                         _______ _______ _______ _____ _____    ______ ____
ROOT
ATOM      1  C   UNL     1      46.766   7.269  12.822  0.00  0.00    +0.000 A 
ATOM      2  C   UNL     1      45.948   8.398  12.928  0.00  0.00    +0.000 A 
ATOM      3  C   UNL     1      46.393   9.631  12.457  0.00  0.00    +0.000 A 
ATOM      4  C   UNL     1      47.668   9.746  11.898  0.00  0.00    +0.000 A 
ATOM      5  C   UNL     1      48.537   8.643  11.812  0.00  0.00    +0.000 A 
ATOM      6  C   UNL     1      48.037   7.396  12.236  0.00  0.00    +0.000 A 
ENDROOT
BRANCH   5   7
ATOM      7  C   UNL     1      49.959   8.809  11.427  0.00  0.00    +0.000 A 
ATOM      8  C   UNL     1      50.754   7.679  11.152  0.00  0.00    +0.000 A 
ATOM      9  C   UNL     1      52.060   7.795  10.670  0.00  0.00    +0.000 A 
ATOM     10  C   UNL     1      52.602   9.054  10.444  0.00  0.00    +0.000 A 
ATOM     11  C   UNL     1      51.850  10.190  10.724  0.00  0.00    +0.000 A 
ATOM     12  C   UNL     1      50.547  10.070  11.222  0.00  0.00    +0.000 A 
ENDBRANCH   5   7
BRANCH   1  13
ATOM     13  C   UNL     1      46.320   5.943  13.388  0.00  0.00    +0.000 C 
BRANCH  13  14
ATOM     14  O   UNL     1      44.930   5.754  13.135  0.00  0.00    +0.000 OA
BRANCH  14  17
ATOM     15  C   UNL     1      44.578   3.859   9.986  0.00  0.00    +0.000 A 
ATOM     16  C   UNL     1      45.020   4.871  10.837  0.00  0.00    +0.000 A 
ATOM     17  C   UNL     1      44.600   4.846  12.164  0.00  0.00    +0.000 A 
ATOM     18  C   UNL     1      43.763   3.816  12.587  0.00  0.00    +0.000 A 
ATOM     19  C   UNL     1      43.375   2.854  11.671  0.00  0.00    +0.000 A 
ATOM     20  N   UNL     1      43.763   2.852  10.381  0.00  0.00    +0.000 NA
BRANCH  15  22
ATOM     21  N   UNL     1      45.351   3.844   7.506  0.00  0.00    +0.000 NA
ATOM     22  C   UNL     1      44.974   3.846   8.607  0.00  0.00    +0.000 C 
ENDBRANCH  15  22
ENDBRANCH  14  17
ENDBRANCH  13  14
ENDBRANCH   1  13
TORSDOF 5
ENDMDL
