MODEL 1
REMARK VINA RESULT:    -7.651      0.000      0.000
REMARK INTER + INTRA:         -11.345
REMARK INTER:                 -10.335
REMARK INTRA:                  -1.010
REMARK UNBOUND:                -1.010
REMARK  Name = 
REMARK  6 active torsions:
REMARK  status: ('A' for Active; 'I' for Inactive)
REMARK    1  A    between atoms: C_2  and  C_20
REMARK    2  A    between atoms: N_3  and  C_4
REMARK    3  A    between atoms: C_4  and  C_5
REMARK    4  A    between atoms: C_8  and  C_9
REMARK    5  A    between atoms: C_9  and  N_10
REMARK    6  A    between atoms: N_10  and  C_11
REMARK                            x       y       z     vdW  Elec       q    Type
REMARK                         _______ _______ _______ _____ _____    ______ ____
ROOT
ATOM      1  C   UNL     1      46.950   4.274  16.031  0.00  0.00    +0.000 C 
ENDROOT
BRANCH   1   2
ATOM      2  C   UNL     1      46.725   4.814  14.643  0.00  0.00    +0.000 A 
ATOM      3  C   UNL     1      45.570   4.466  13.933  0.00  0.00    +0.000 A 
ATOM      4  C   UNL     1      45.361   4.948  12.639  0.00  0.00    +0.000 A 
ATOM      5  C   UNL     1      46.316   5.767  12.022  0.00  0.00    +0.000 A 
ATOM      6  C   UNL     1      47.472   6.115  12.733  0.00  0.00    +0.000 A 
ATOM      7  C   UNL     1      47.680   5.634  14.027  0.00  0.00    +0.000 A 
BRANCH   5   8
ATOM      8  C   UNL     1      46.119   6.230  10.598  0.00  0.00    +0.000 C 
BRANCH   8   9
ATOM      9  N   UNL     1      45.012   5.521   9.972  0.00  0.00    +0.000 N 
ATOM     10  H   UNL     1      44.366   6.135   9.486  0.00  0.00    +0.000 HD
BRANCH   9  11
ATOM     11  C   UNL     1      45.430   4.486   9.113  0.00  0.00    +0.000 A 
ATOM     12  N   UNL     1      46.282   4.788   8.102  0.00  0.00    +0.000 NA
ATOM     13  C   UNL     1      46.721   3.793   7.303  0.00  0.00    +0.000 A 
ATOM     14  C   UNL     1      46.361   2.469   7.459  0.00  0.00    +0.000 A 
ATOM     15  C   UNL     1      45.497   2.146   8.498  0.00  0.00    +0.000 A 
ATOM     16  C   UNL     1      45.022   3.159   9.334  0.00  0.00    +0.000 A 
ATOM     17 CL   UNL     1      43.938   2.732  10.608  0.00  0.00    +0.000 Cl
ENDBRANCH   9  11
ENDBRANCH   8   9
ENDBRANCH   5   8
ENDBRANCH   1   2
BRANCH   1  20
ATOM     18  O   UNL     1      48.289   5.398  18.239  0.00  0.00    +0.000 OA
ATOM     19  C   UNL     1      48.920   4.696  17.455  0.00  0.00    +0.000 C 
ATOM     20  N   UNL     1      48.357   4.164  16.324  0.00  0.00    +0.000 N 
ATOM     21  H   UNL     1      48.858   3.443  15.818  0.00  0.00    +0.000 HD
BRANCH  19  22
ATOM     22  C   UNL     1      50.351   4.431  17.650  0.00  0.00    +0.000 A 
ATOM     23  C   UNL     1      51.198   5.463  18.027  0.00  0.00    +0.000 A 
ATOM     24  S   UNL     1      52.830   4.989  18.176  0.00  0.00    +0.000 S 
ATOM     25  C   UNL     1      52.454   3.374  17.795  0.00  0.00    +0.000 A 
ATOM     26  N   UNL     1      53.419   2.416  17.778  0.00  0.00    +0.000 NA
ATOM     27  C   UNL     1      52.985   1.226  17.524  0.00  0.00    +0.000 A 
ATOM     28  N   UNL     1      51.676   0.910  17.272  0.00  0.00    +0.000 N 
ATOM     29  C   UNL     1      50.682   1.856  17.198  0.00  0.00    +0.000 A 
ATOM     30  O   UNL     1      49.550   1.557  16.832  0.00  0.00    +0.000 OA
ATOM     31  C   UNL     1      51.106   3.204  17.528  0.00  0.00    +0.000 A 
ATOM     32  H   UNL     1      51.406  -0.036  17.048  0.00  0.00    +0.000 HD
ENDBRANCH  19  22
ENDBRANCH   1  20
TORSDOF 6
ENDMDL
MODEL 2
REMARK VINA RESULT:    -7.375      3.043      4.551
REMARK INTER + INTRA:         -10.973
REMARK INTER:                  -9.994
REMARK INTRA:                  -0.978
REMARK UNBOUND:                -1.010
REMARK  Name = 
REMARK  6 active torsions:
REMARK  status: ('A' for Active; 'I' for Inactive)
REMARK    1  A    between atoms: C_2  and  C_20
REMARK    2  A    between atoms: N_3  and  C_4
REMARK    3  A    between atoms: C_4  and  C_5
REMARK    4  A    between atoms: C_8  and  C_9
REMARK    5  A    between atoms: C_9  and  N_10
REMARK    6  A    between atoms: N_10  and  C_11
REMARK                            x       y       z     vdW  Elec       q    Type
REMARK                         _______ _______ _______ _____ _____    ______ ____
ROOT
ATOM      1  C   UNL     1      47.500   4.250  15.698  0.00  0.00    +0.000 C 
ENDROOT
BRANCH   1   2
ATOM      2  C   UNL     1      46.976   4.807  14.400  0.00  0.00    +0.000 A 
ATOM      3  C   UNL     1      45.781   4.319  13.858  0.00  0.00    +0.000 A 
ATOM      4  C   UNL     1      45.297   4.817  12.647  0.00  0.00    +0.000 A 
ATOM      5  C   UNL     1      46.012   5.794  11.943  0.00  0.00    +0.000 A 
ATOM      6  C   UNL     1      47.208   6.283  12.485  0.00  0.00    +0.000 A 
ATOM      7  C   UNL     1      47.691   5.786  13.697  0.00  0.00    +0.000 A 
BRANCH   5   8
ATOM      8  C   UNL     1      45.520   6.282  10.600  0.00  0.00    +0.000 C 
BRANCH   8   9
ATOM      9  N   UNL     1      44.542   5.359  10.042  0.00  0.00    +0.000 N 
ATOM     10  H   UNL     1      43.785   5.825   9.552  0.00  0.00    +0.000 HD
BRANCH   9  11
ATOM     11  C   UNL     1      45.116   4.375   9.214  0.00  0.00    +0.000 A 
ATOM     12  N   UNL     1      45.934   4.770   8.208  0.00  0.00    +0.000 NA
ATOM     13  C   UNL     1      46.522   3.830   7.440  0.00  0.00    +0.000 A 
ATOM     14  C   UNL     1      46.348   2.472   7.623  0.00  0.00    +0.000 A 
ATOM     15  C   UNL     1      45.520   2.053   8.657  0.00  0.00    +0.000 A 
ATOM     16  C   UNL     1      44.894   3.008   9.462  0.00  0.00    +0.000 A 
ATOM     17 CL   UNL     1      43.858   2.462  10.730  0.00  0.00    +0.000 Cl
ENDBRANCH   9  11
ENDBRANCH   8   9
ENDBRANCH   5   8
ENDBRANCH   1   2
BRANCH   1  20
ATOM     18  O   UNL     1      49.723   5.603  16.773  0.00  0.00    +0.000 OA
ATOM     19  C   UNL     1      48.599   5.899  17.167  0.00  0.00    +0.000 C 
ATOM     20  N   UNL     1      47.472   5.245  16.739  0.00  0.00    +0.000 N 
ATOM     21  H   UNL     1      46.564   5.648  16.941  0.00  0.00    +0.000 HD
BRANCH  19  22
ATOM     22  C   UNL     1      48.395   6.943  18.179  0.00  0.00    +0.000 A 
ATOM     23  C   UNL     1      48.412   6.609  19.526  0.00  0.00    +0.000 A 
ATOM     24  S   UNL     1      48.125   7.933  20.562  0.00  0.00    +0.000 S 
ATOM     25  C   UNL     1      48.024   9.011  19.249  0.00  0.00    +0.000 A 
ATOM     26  N   UNL     1      47.819  10.340  19.449  0.00  0.00    +0.000 NA
ATOM     27  C   UNL     1      47.815  11.048  18.367  0.00  0.00    +0.000 A 
ATOM     28  N   UNL     1      47.985  10.544  17.105  0.00  0.00    +0.000 N 
ATOM     29  C   UNL     1      48.113   9.200  16.849  0.00  0.00    +0.000 A 
ATOM     30  O   UNL     1      48.120   8.772  15.700  0.00  0.00    +0.000 OA
ATOM     31  C   UNL     1      48.177   8.364  18.035  0.00  0.00    +0.000 A 
ATOM     32  H   UNL     1      47.939  11.147  16.297  0.00  0.00    +0.000 HD
ENDBRANCH  19  22
ENDBRANCH   1  20
TORSDOF 6
ENDMDL
MODEL 3
REMARK VINA RESULT:    -7.287      3.754      8.794
REMARK INTER + INTRA:         -10.853
REMARK INTER:                  -9.718
REMARK INTRA:                  -1.135
REMARK UNBOUND:                -1.010
REMARK  Name = 
REMARK  6 active torsions:
REMARK  status: ('A' for Active; 'I' for Inactive)
REMARK    1  A    between atoms: C_2  and  C_20
REMARK    2  A    between atoms: N_3  and  C_4
REMARK    3  A    between atoms: C_4  and  C_5
REMARK    4  A    between atoms: C_8  and  C_9
REMARK    5  A    between atoms: C_9  and  N_10
REMARK    6  A    between atoms: N_10  and  C_11
REMARK                            x       y       z     vdW  Elec       q    Type
REMARK                         _______ _______ _______ _____ _____    ______ ____
ROOT
ATOM      1  C   UNL     1      48.443   7.704  12.377  0.00  0.00    +0.000 C 
ENDROOT
BRANCH   1   2
ATOM      2  C   UNL     1      48.930   7.326  13.752  0.00  0.00    +0.000 A 
ATOM      3  C   UNL     1      50.190   7.751  14.192  0.00  0.00    +0.000 A 
ATOM      4  C   UNL     1      50.656   7.390  15.458  0.00  0.00    +0.000 A 
ATOM      5  C   UNL     1      49.883   6.577  16.297  0.00  0.00    +0.000 A 
ATOM      6  C   UNL     1      48.623   6.152  15.856  0.00  0.00    +0.000 A 
ATOM      7  C   UNL     1      48.155   6.514  14.591  0.00  0.00    +0.000 A 
BRANCH   5   8
ATOM      8  C   UNL     1      50.420   6.134  17.637  0.00  0.00    +0.000 C 
BRANCH   8   9
ATOM      9  N   UNL     1      49.822   4.869  18.040  0.00  0.00    +0.000 N 
ATOM     10  H   UNL     1      48.944   4.673  17.569  0.00  0.00    +0.000 HD
BRANCH   9  11
ATOM     11  C   UNL     1      50.695   3.773  17.904  0.00  0.00    +0.000 A 
ATOM     12  N   UNL     1      51.952   3.879  18.402  0.00  0.00    +0.000 NA
ATOM     13  C   UNL     1      52.778   2.816  18.315  0.00  0.00    +0.000 A 
ATOM     14  C   UNL     1      52.417   1.609  17.750  0.00  0.00    +0.000 A 
ATOM     15  C   UNL     1      51.129   1.483  17.246  0.00  0.00    +0.000 A 
ATOM     16  C   UNL     1      50.256   2.572  17.317  0.00  0.00    +0.000 A 
ATOM     17 CL   UNL     1      48.666   2.395  16.669  0.00  0.00    +0.000 Cl
ENDBRANCH   9  11
ENDBRANCH   8   9
ENDBRANCH   5   8
ENDBRANCH   1   2
BRANCH   1  20
ATOM     18  O   UNL     1      45.694   7.847  11.784  0.00  0.00    +0.000 OA
ATOM     19  C   UNL     1      46.313   6.827  11.494  0.00  0.00    +0.000 C 
ATOM     20  N   UNL     1      47.638   6.655  11.805  0.00  0.00    +0.000 N 
ATOM     21  H   UNL     1      48.147   5.889  11.379  0.00  0.00    +0.000 HD
BRANCH  19  22
ATOM     22  C   UNL     1      45.650   5.690  10.844  0.00  0.00    +0.000 A 
ATOM     23  C   UNL     1      45.789   5.502   9.476  0.00  0.00    +0.000 A 
ATOM     24  S   UNL     1      44.928   4.156   8.880  0.00  0.00    +0.000 S 
ATOM     25  C   UNL     1      44.383   3.744  10.438  0.00  0.00    +0.000 A 
ATOM     26  N   UNL     1      43.607   2.646  10.640  0.00  0.00    +0.000 NA
ATOM     27  C   UNL     1      43.309   2.424  11.878  0.00  0.00    +0.000 A 
ATOM     28  N   UNL     1      43.706   3.207  12.929  0.00  0.00    +0.000 N 
ATOM     29  C   UNL     1      44.420   4.370  12.764  0.00  0.00    +0.000 A 
ATOM     30  O   UNL     1      44.637   5.120  13.709  0.00  0.00    +0.000 OA
ATOM     31  C   UNL     1      44.827   4.638  11.396  0.00  0.00    +0.000 A 
ATOM     32  H   UNL     1      43.412   2.997  13.871  0.00  0.00    +0.000 HD
ENDBRANCH  19  22
ENDBRANCH   1  20
TORSDOF 6
ENDMDL
MODEL 4
REMARK VINA RESULT:    -7.165      2.664      3.378
REMARK INTER + INTRA:         -10.688
REMARK INTER:                 -10.613
REMARK INTRA:                  -0.076
REMARK UNBOUND:                -1.010
REMARK  Name = 
REMARK  6 active torsions:
REMARK  status: ('A' for Active; 'I' for Inactive)
REMARK    1  A    between atoms: C_2  and  C_20
REMARK    2  A    between atoms: N_3  and  C_4
REMARK    3  A    between atoms: C_4  and  C_5
REMARK    4  A    between atoms: C_8  and  C_9
REMARK    5  A    between atoms: C_9  and  N_10
REMARK    6  A    between atoms: N_10  and  C_11
REMARK                            x       y       z     vdW  Elec       q    Type
REMARK                         _______ _______ _______ _____ _____    ______ ____
ROOT
ATOM      1  C   UNL     1      48.695   6.886  14.052  0.00  0.00    +0.000 C 
ENDROOT
BRANCH   1   2
ATOM      2  C   UNL     1      47.557   6.290  13.266  0.00  0.00    +0.000 A 
ATOM      3  C   UNL     1      47.048   6.962  12.148  0.00  0.00    +0.000 A 
ATOM      4  C   UNL     1      45.982   6.426  11.423  0.00  0.00    +0.000 A 
ATOM      5  C   UNL     1      45.388   5.220  11.817  0.00  0.00    +0.000 A 
ATOM      6  C   UNL     1      45.897   4.547  12.936  0.00  0.00    +0.000 A 
ATOM      7  C   UNL     1      46.965   5.082  13.660  0.00  0.00    +0.000 A 
BRANCH   5   8
ATOM      8  C   UNL     1      44.192   4.678  11.072  0.00  0.00    +0.000 C 
BRANCH   8   9
ATOM      9  N   UNL     1      44.275   5.004   9.655  0.00  0.00    +0.000 N 
ATOM     10  H   UNL     1      44.595   5.952   9.481  0.00  0.00    +0.000 HD
BRANCH   9  11
ATOM     11  C   UNL     1      45.053   4.090   8.919  0.00  0.00    +0.000 A 
ATOM     12  N   UNL     1      45.926   4.574   8.001  0.00  0.00    +0.000 NA
ATOM     13  C   UNL     1      46.706   3.706   7.325  0.00  0.00    +0.000 A 
ATOM     14  C   UNL     1      46.679   2.339   7.518  0.00  0.00    +0.000 A 
ATOM     15  C   UNL     1      45.796   1.831   8.464  0.00  0.00    +0.000 A 
ATOM     16  C   UNL     1      44.972   2.709   9.172  0.00  0.00    +0.000 A 
ATOM     17 CL   UNL     1      43.874   2.051  10.331  0.00  0.00    +0.000 Cl
ENDBRANCH   9  11
ENDBRANCH   8   9
ENDBRANCH   5   8
ENDBRANCH   1   2
BRANCH   1  20
ATOM     18  O   UNL     1      50.373   6.171  16.198  0.00  0.00    +0.000 OA
ATOM     19  C   UNL     1      49.270   6.651  16.440  0.00  0.00    +0.000 C 
ATOM     20  N   UNL     1      48.371   6.967  15.454  0.00  0.00    +0.000 N 
ATOM     21  H   UNL     1      47.563   7.533  15.689  0.00  0.00    +0.000 HD
BRANCH  19  22
ATOM     22  C   UNL     1      48.815   6.862  17.820  0.00  0.00    +0.000 A 
ATOM     23  C   UNL     1      48.362   8.114  18.212  0.00  0.00    +0.000 A 
ATOM     24  S   UNL     1      47.905   8.192  19.853  0.00  0.00    +0.000 S 
ATOM     25  C   UNL     1      48.243   6.541  20.084  0.00  0.00    +0.000 A 
ATOM     26  N   UNL     1      48.032   5.945  21.289  0.00  0.00    +0.000 NA
ATOM     27  C   UNL     1      48.283   4.678  21.308  0.00  0.00    +0.000 A 
ATOM     28  N   UNL     1      48.736   3.955  20.236  0.00  0.00    +0.000 N 
ATOM     29  C   UNL     1      49.040   4.529  19.025  0.00  0.00    +0.000 A 
ATOM     30  O   UNL     1      49.577   3.881  18.134  0.00  0.00    +0.000 OA
ATOM     31  C   UNL     1      48.727   5.944  18.933  0.00  0.00    +0.000 A 
ATOM     32  H   UNL     1      48.944   2.972  20.325  0.00  0.00    +0.000 HD
ENDBRANCH  19  22
ENDBRANCH   1  20
TORSDOF 6
ENDMDL
MODEL 5
REMARK VINA RESULT:    -6.940      3.752      4.804
REMARK INTER + INTRA:         -10.384
REMARK INTER:                  -9.669
REMARK INTRA:                  -0.715
REMARK UNBOUND:                -1.010
REMARK  Name = 
REMARK  6 active torsions:
REMARK  status: ('A' for Active; 'I' for Inactive)
REMARK    1  A    between atoms: C_2  and  C_20
REMARK    2  A    between atoms: N_3  and  C_4
REMARK    3  A    between atoms: C_4  and  C_5
REMARK    4  A    between atoms: C_8  and  C_9
REMARK    5  A    between atoms: C_9  and  N_10
REMARK    6  A    between atoms: N_10  and  C_11
REMARK                            x       y       z     vdW  Elec       q    Type
REMARK                         _______ _______ _______ _____ _____    ______ ____
ROOT
ATOM      1  C   UNL     1      46.291   4.381  14.093  0.00  0.00    +0.000 C 
ENDROOT
BRANCH   1   2
ATOM      2  C   UNL     1      45.871   5.594  13.304  0.00  0.00    +0.000 A 
ATOM      3  C   UNL     1      46.657   6.753  13.327  0.00  0.00    +0.000 A 
ATOM      4  C   UNL     1      46.267   7.887  12.613  0.00  0.00    +0.000 A 
ATOM      5  C   UNL     1      45.071   7.893  11.883  0.00  0.00    +0.000 A 
ATOM      6  C   UNL     1      44.285   6.733  11.860  0.00  0.00    +0.000 A 
ATOM      7  C   UNL     1      44.676   5.598  12.573  0.00  0.00    +0.000 A 
BRANCH   5   8
ATOM      8  C   UNL     1      44.619   9.143  11.167  0.00  0.00    +0.000 C 
BRANCH   8   9
ATOM      9  N   UNL     1      43.192   9.088  10.881  0.00  0.00    +0.000 N 
ATOM     10  H   UNL     1      42.623   8.944  11.709  0.00  0.00    +0.000 HD
BRANCH   9  11
ATOM     11  C   UNL     1      42.725  10.206  10.164  0.00  0.00    +0.000 A 
ATOM     12  N   UNL     1      43.557  10.798   9.271  0.00  0.00    +0.000 NA
ATOM     13  C   UNL     1      43.099  11.841   8.549  0.00  0.00    +0.000 A 
ATOM     14  C   UNL     1      41.818  12.345   8.657  0.00  0.00    +0.000 A 
ATOM     15  C   UNL     1      40.953  11.741   9.560  0.00  0.00    +0.000 A 
ATOM     16  C   UNL     1      41.405  10.663  10.325  0.00  0.00    +0.000 A 
ATOM     17 CL   UNL     1      40.314   9.940  11.451  0.00  0.00    +0.000 Cl
ENDBRANCH   9  11
ENDBRANCH   8   9
ENDBRANCH   5   8
ENDBRANCH   1   2
BRANCH   1  20
ATOM     18  O   UNL     1      46.533   3.430  16.733  0.00  0.00    +0.000 OA
ATOM     19  C   UNL     1      47.414   4.152  16.278  0.00  0.00    +0.000 C 
ATOM     20  N   UNL     1      47.341   4.706  15.025  0.00  0.00    +0.000 N 
ATOM     21  H   UNL     1      48.170   5.129  14.626  0.00  0.00    +0.000 HD
BRANCH  19  22
ATOM     22  C   UNL     1      48.588   4.522  17.079  0.00  0.00    +0.000 A 
ATOM     23  C   UNL     1      48.627   5.756  17.713  0.00  0.00    +0.000 A 
ATOM     24  S   UNL     1      50.074   6.037  18.571  0.00  0.00    +0.000 S 
ATOM     25  C   UNL     1      50.676   4.497  18.173  0.00  0.00    +0.000 A 
ATOM     26  N   UNL     1      51.886   4.079  18.631  0.00  0.00    +0.000 NA
ATOM     27  C   UNL     1      52.195   2.870  18.294  0.00  0.00    +0.000 A 
ATOM     28  N   UNL     1      51.409   2.047  17.531  0.00  0.00    +0.000 N 
ATOM     29  C   UNL     1      50.218   2.455  16.980  0.00  0.00    +0.000 A 
ATOM     30  O   UNL     1      49.611   1.743  16.188  0.00  0.00    +0.000 OA
ATOM     31  C   UNL     1      49.798   3.789  17.370  0.00  0.00    +0.000 A 
ATOM     32  H   UNL     1      51.723   1.123  17.276  0.00  0.00    +0.000 HD
ENDBRANCH  19  22
ENDBRANCH   1  20
TORSDOF 6
ENDMDL
MODEL 6
REMARK VINA RESULT:    -6.814      5.929      8.338
REMARK INTER + INTRA:         -10.214
REMARK INTER:                  -9.323
REMARK INTRA:                  -0.891
REMARK UNBOUND:                -1.010
REMARK  Name = 
REMARK  6 active torsions:
REMARK  status: ('A' for Active; 'I' for Inactive)
REMARK    1  A    between atoms: C_2  and  C_20
REMARK    2  A    between atoms: N_3  and  C_4
REMARK    3  A    between atoms: C_4  and  C_5
REMARK    4  A    between atoms: C_8  and  C_9
REMARK    5  A    between atoms: C_9  and  N_10
REMARK    6  A    between atoms: N_10  and  C_11
REMARK                            x       y       z     vdW  Elec       q    Type
REMARK                         _______ _______ _______ _____ _____    ______ ____
ROOT
ATOM      1  C   UNL     1      46.621   8.345  12.902  0.00  0.00    +0.000 C 
ENDROOT
BRANCH   1   2
ATOM      2  C   UNL     1      48.018   8.401  12.340  0.00  0.00    +0.000 A 
ATOM      3  C   UNL     1      48.802   7.243  12.291  0.00  0.00    +0.000 A 
ATOM      4  C   UNL     1      50.104   7.289  11.787  0.00  0.00    +0.000 A 
ATOM      5  C   UNL     1      50.654   8.500  11.346  0.00  0.00    +0.000 A 
ATOM      6  C   UNL     1      49.869   9.659  11.395  0.00  0.00    +0.000 A 
ATOM      7  C   UNL     1      48.567   9.613  11.897  0.00  0.00    +0.000 A 
BRANCH   5   8
ATOM      8  C   UNL     1      52.084   8.559  10.865  0.00  0.00    +0.000 C 
BRANCH   8   9
ATOM      9  N   UNL     1      52.707   7.245  10.932  0.00  0.00    +0.000 N 
ATOM     10  H   UNL     1      52.190   6.585  11.506  0.00  0.00    +0.000 HD
BRANCH   9  11
ATOM     11  C   UNL     1      52.960   6.684   9.665  0.00  0.00    +0.000 A 
ATOM     12  N   UNL     1      52.338   7.217   8.585  0.00  0.00    +0.000 NA
ATOM     13  C   UNL     1      52.611   6.714   7.363  0.00  0.00    +0.000 A 
ATOM     14  C   UNL     1      53.503   5.683   7.140  0.00  0.00    +0.000 A 
ATOM     15  C   UNL     1      54.155   5.136   8.239  0.00  0.00    +0.000 A 
ATOM     16  C   UNL     1      53.884   5.634   9.514  0.00  0.00    +0.000 A 
ATOM     17 CL   UNL     1      54.696   4.927  10.863  0.00  0.00    +0.000 Cl
ENDBRANCH   9  11
ENDBRANCH   8   9
ENDBRANCH   5   8
ENDBRANCH   1   2
BRANCH   1  20
ATOM     18  O   UNL     1      44.572   7.735  11.070  0.00  0.00    +0.000 OA
ATOM     19  C   UNL     1      45.069   6.828  11.730  0.00  0.00    +0.000 C 
ATOM     20  N   UNL     1      46.027   7.050  12.686  0.00  0.00    +0.000 N 
ATOM     21  H   UNL     1      46.538   6.260  13.062  0.00  0.00    +0.000 HD
BRANCH  19  22
ATOM     22  C   UNL     1      44.619   5.438  11.578  0.00  0.00    +0.000 A 
ATOM     23  C   UNL     1      43.886   4.837  12.591  0.00  0.00    +0.000 A 
ATOM     24  S   UNL     1      43.474   3.214  12.267  0.00  0.00    +0.000 S 
ATOM     25  C   UNL     1      44.215   3.274  10.736  0.00  0.00    +0.000 A 
ATOM     26  N   UNL     1      44.194   2.196   9.907  0.00  0.00    +0.000 NA
ATOM     27  C   UNL     1      44.749   2.397   8.757  0.00  0.00    +0.000 A 
ATOM     28  N   UNL     1      45.332   3.574   8.367  0.00  0.00    +0.000 N 
ATOM     29  C   UNL     1      45.448   4.661   9.201  0.00  0.00    +0.000 A 
ATOM     30  O   UNL     1      46.099   5.645   8.870  0.00  0.00    +0.000 OA
ATOM     31  C   UNL     1      44.794   4.506  10.488  0.00  0.00    +0.000 A 
ATOM     32  H   UNL     1      45.778   3.657   7.466  0.00  0.00    +0.000 HD
ENDBRANCH  19  22
ENDBRANCH   1  20
TORSDOF 6
ENDMDL
MODEL 7
REMARK VINA RESULT:    -6.690      2.628      3.432
REMARK INTER + INTRA:         -10.047
REMARK INTER:                  -9.244
REMARK INTRA:                  -0.804
REMARK UNBOUND:                -1.010
REMARK  Name = 
REMARK  6 active torsions:
REMARK  status: ('A' for Active; 'I' for Inactive)
REMARK    1  A    between atoms: C_2  and  C_20
REMARK    2  A    between atoms: N_3  and  C_4
REMARK    3  A    between atoms: C_4  and  C_5
REMARK    4  A    between atoms: C_8  and  C_9
REMARK    5  A    between atoms: C_9  and  N_10
REMARK    6  A    between atoms: N_10  and  C_11
REMARK                            x       y       z     vdW  Elec       q    Type
REMARK                         _______ _______ _______ _____ _____    ______ ____
ROOT
ATOM      1  C   UNL     1      47.314   4.299  15.804  0.00  0.00    +0.000 C 
ENDROOT
BRANCH   1   2
ATOM      2  C   UNL     1      46.903   4.756  14.428  0.00  0.00    +0.000 A 
ATOM      3  C   UNL     1      47.625   5.763  13.777  0.00  0.00    +0.000 A 
ATOM      4  C   UNL     1      47.240   6.205  12.510  0.00  0.00    +0.000 A 
ATOM      5  C   UNL     1      46.110   5.665  11.881  0.00  0.00    +0.000 A 
ATOM      6  C   UNL     1      45.388   4.657  12.532  0.00  0.00    +0.000 A 
ATOM      7  C   UNL     1      45.773   4.214  13.799  0.00  0.00    +0.000 A 
BRANCH   5   8
ATOM      8  C   UNL     1      45.658   6.193  10.540  0.00  0.00    +0.000 C 
BRANCH   8   9
ATOM      9  N   UNL     1      44.684   5.296   9.934  0.00  0.00    +0.000 N 
ATOM     10  H   UNL     1      43.937   5.784   9.450  0.00  0.00    +0.000 HD
BRANCH   9  11
ATOM     11  C   UNL     1      45.266   4.340   9.079  0.00  0.00    +0.000 A 
ATOM     12  N   UNL     1      46.113   4.768   8.110  0.00  0.00    +0.000 NA
ATOM     13  C   UNL     1      46.709   3.853   7.317  0.00  0.00    +0.000 A 
ATOM     14  C   UNL     1      46.515   2.491   7.438  0.00  0.00    +0.000 A 
ATOM     15  C   UNL     1      45.657   2.040   8.434  0.00  0.00    +0.000 A 
ATOM     16  C   UNL     1      45.023   2.967   9.263  0.00  0.00    +0.000 A 
ATOM     17 CL   UNL     1      43.951   2.382  10.483  0.00  0.00    +0.000 Cl
ENDBRANCH   9  11
ENDBRANCH   8   9
ENDBRANCH   5   8
ENDBRANCH   1   2
BRANCH   1  20
ATOM     18  O   UNL     1      48.103   4.185  18.505  0.00  0.00    +0.000 OA
ATOM     19  C   UNL     1      48.105   5.269  17.930  0.00  0.00    +0.000 C 
ATOM     20  N   UNL     1      47.677   5.419  16.635  0.00  0.00    +0.000 N 
ATOM     21  H   UNL     1      47.878   6.285  16.148  0.00  0.00    +0.000 HD
BRANCH  19  22
ATOM     22  C   UNL     1      48.514   6.499  18.620  0.00  0.00    +0.000 A 
ATOM     23  C   UNL     1      47.568   7.472  18.912  0.00  0.00    +0.000 A 
ATOM     24  S   UNL     1      48.218   8.847  19.684  0.00  0.00    +0.000 S 
ATOM     25  C   UNL     1      49.778   8.167  19.705  0.00  0.00    +0.000 A 
ATOM     26  N   UNL     1      50.823   8.831  20.269  0.00  0.00    +0.000 NA
ATOM     27  C   UNL     1      51.937   8.177  20.260  0.00  0.00    +0.000 A 
ATOM     28  N   UNL     1      52.103   6.925  19.729  0.00  0.00    +0.000 N 
ATOM     29  C   UNL     1      51.098   6.252  19.077  0.00  0.00    +0.000 A 
ATOM     30  O   UNL     1      51.317   5.199  18.490  0.00  0.00    +0.000 OA
ATOM     31  C   UNL     1      49.809   6.921  19.105  0.00  0.00    +0.000 A 
ATOM     32  H   UNL     1      53.009   6.481  19.725  0.00  0.00    +0.000 HD
ENDBRANCH  19  22
ENDBRANCH   1  20
TORSDOF 6
ENDMDL
MODEL 8
REMARK VINA RESULT:    -6.668      3.796      8.992
REMARK INTER + INTRA:         -10.018
REMARK INTER:                  -8.906
REMARK INTRA:                  -1.111
REMARK UNBOUND:                -1.010
REMARK  Name = 
REMARK  6 active torsions:
REMARK  status: ('A' for Active; 'I' for Inactive)
REMARK    1  A    between atoms: C_2  and  C_20
REMARK    2  A    between atoms: N_3  and  C_4
REMARK    3  A    between atoms: C_4  and  C_5
REMARK    4  A    between atoms: C_8  and  C_9
REMARK    5  A    between atoms: C_9  and  N_10
REMARK    6  A    between atoms: N_10  and  C_11
REMARK                            x       y       z     vdW  Elec       q    Type
REMARK                         _______ _______ _______ _____ _____    ______ ____
ROOT
ATOM      1  C   UNL     1      47.884   7.498  12.456  0.00  0.00    +0.000 C 
ENDROOT
BRANCH   1   2
ATOM      2  C   UNL     1      48.727   7.249  13.679  0.00  0.00    +0.000 A 
ATOM      3  C   UNL     1      48.196   6.544  14.766  0.00  0.00    +0.000 A 
ATOM      4  C   UNL     1      48.965   6.323  15.911  0.00  0.00    +0.000 A 
ATOM      5  C   UNL     1      50.269   6.825  16.000  0.00  0.00    +0.000 A 
ATOM      6  C   UNL     1      50.801   7.531  14.913  0.00  0.00    +0.000 A 
ATOM      7  C   UNL     1      50.033   7.750  13.767  0.00  0.00    +0.000 A 
BRANCH   5   8
ATOM      8  C   UNL     1      51.073   6.643  17.266  0.00  0.00    +0.000 C 
BRANCH   8   9
ATOM      9  N   UNL     1      50.524   5.565  18.076  0.00  0.00    +0.000 N 
ATOM     10  H   UNL     1      49.527   5.431  17.942  0.00  0.00    +0.000 HD
BRANCH   9  11
ATOM     11  C   UNL     1      51.201   4.342  17.905  0.00  0.00    +0.000 A 
ATOM     12  N   UNL     1      52.531   4.295  18.164  0.00  0.00    +0.000 NA
ATOM     13  C   UNL     1      53.176   3.116  18.046  0.00  0.00    +0.000 A 
ATOM     14  C   UNL     1      52.556   1.937  17.681  0.00  0.00    +0.000 A 
ATOM     15  C   UNL     1      51.191   1.969  17.424  0.00  0.00    +0.000 A 
ATOM     16  C   UNL     1      50.503   3.179  17.532  0.00  0.00    +0.000 A 
ATOM     17 CL   UNL     1      48.810   3.196  17.191  0.00  0.00    +0.000 Cl
ENDBRANCH   9  11
ENDBRANCH   8   9
ENDBRANCH   5   8
ENDBRANCH   1   2
BRANCH   1  20
ATOM     18  O   UNL     1      45.097   7.247  12.773  0.00  0.00    +0.000 OA
ATOM     19  C   UNL     1      45.723   6.323  12.262  0.00  0.00    +0.000 C 
ATOM     20  N   UNL     1      47.088   6.342  12.129  0.00  0.00    +0.000 N 
ATOM     21  H   UNL     1      47.533   5.653  11.535  0.00  0.00    +0.000 HD
BRANCH  19  22
ATOM     22  C   UNL     1      45.048   5.099  11.813  0.00  0.00    +0.000 A 
ATOM     23  C   UNL     1      44.281   4.367  12.709  0.00  0.00    +0.000 A 
ATOM     24  S   UNL     1      43.597   2.959  12.031  0.00  0.00    +0.000 S 
ATOM     25  C   UNL     1      44.255   3.308  10.502  0.00  0.00    +0.000 A 
ATOM     26  N   UNL     1      44.018   2.496   9.436  0.00  0.00    +0.000 NA
ATOM     27  C   UNL     1      44.536   2.908   8.327  0.00  0.00    +0.000 A 
ATOM     28  N   UNL     1      45.279   4.050   8.188  0.00  0.00    +0.000 N 
ATOM     29  C   UNL     1      45.613   4.855   9.251  0.00  0.00    +0.000 A 
ATOM     30  O   UNL     1      46.396   5.789   9.116  0.00  0.00    +0.000 OA
ATOM     31  C   UNL     1      45.012   4.467  10.514  0.00  0.00    +0.000 A 
ATOM     32  H   UNL     1      45.684   4.299   7.298  0.00  0.00    +0.000 HD
ENDBRANCH  19  22
ENDBRANCH   1  20
TORSDOF 6
ENDMDL
MODEL 9
REMARK VINA RESULT:    -6.504      1.946      2.681
REMARK INTER + INTRA:          -9.796
REMARK INTER:                  -9.056
REMARK INTRA:                  -0.740
REMARK UNBOUND:                -1.010
REMARK  Name = 
REMARK  6 active torsions:
REMARK  status: ('A' for Active; 'I' for Inactive)
REMARK    1  A    between atoms: C_2  and  C_20
REMARK    2  A    between atoms: N_3  and  C_4
REMARK    3  A    between atoms: C_4  and  C_5
REMARK    4  A    between atoms: C_8  and  C_9
REMARK    5  A    between atoms: C_9  and  N_10
REMARK    6  A    between atoms: N_10  and  C_11
REMARK                            x       y       z     vdW  Elec       q    Type
REMARK                         _______ _______ _______ _____ _____    ______ ____
ROOT
ATOM      1  C   UNL     1      48.698   7.987  16.059  0.00  0.00    +0.000 C 
ENDROOT
BRANCH   1   2
ATOM      2  C   UNL     1      48.189   7.589  14.698  0.00  0.00    +0.000 A 
ATOM      3  C   UNL     1      47.739   8.568  13.803  0.00  0.00    +0.000 A 
ATOM      4  C   UNL     1      47.250   8.207  12.546  0.00  0.00    +0.000 A 
ATOM      5  C   UNL     1      47.177   6.859  12.170  0.00  0.00    +0.000 A 
ATOM      6  C   UNL     1      47.626   5.880  13.066  0.00  0.00    +0.000 A 
ATOM      7  C   UNL     1      48.118   6.241  14.322  0.00  0.00    +0.000 A 
BRANCH   5   8
ATOM      8  C   UNL     1      46.584   6.469  10.837  0.00  0.00    +0.000 C 
BRANCH   8   9
ATOM      9  N   UNL     1      45.129   6.472  10.898  0.00  0.00    +0.000 N 
ATOM     10  H   UNL     1      44.693   6.813  10.047  0.00  0.00    +0.000 HD
BRANCH   9  11
ATOM     11  C   UNL     1      44.585   5.221  11.249  0.00  0.00    +0.000 A 
ATOM     12  N   UNL     1      44.105   5.052  12.506  0.00  0.00    +0.000 NA
ATOM     13  C   UNL     1      43.542   3.871  12.834  0.00  0.00    +0.000 A 
ATOM     14  C   UNL     1      43.414   2.813  11.956  0.00  0.00    +0.000 A 
ATOM     15  C   UNL     1      43.892   2.977  10.661  0.00  0.00    +0.000 A 
ATOM     16  C   UNL     1      44.486   4.188  10.300  0.00  0.00    +0.000 A 
ATOM     17 CL   UNL     1      45.085   4.361   8.690  0.00  0.00    +0.000 Cl
ENDBRANCH   9  11
ENDBRANCH   8   9
ENDBRANCH   5   8
ENDBRANCH   1   2
BRANCH   1  20
ATOM     18  O   UNL     1      48.429   5.863  17.889  0.00  0.00    +0.000 OA
ATOM     19  C   UNL     1      49.517   6.053  17.354  0.00  0.00    +0.000 C 
ATOM     20  N   UNL     1      49.746   7.102  16.500  0.00  0.00    +0.000 N 
ATOM     21  H   UNL     1      50.591   7.104  15.941  0.00  0.00    +0.000 HD
BRANCH  19  22
ATOM     22  C   UNL     1      50.672   5.195  17.646  0.00  0.00    +0.000 A 
ATOM     23  C   UNL     1      51.824   5.750  18.184  0.00  0.00    +0.000 A 
ATOM     24  S   UNL     1      53.078   4.620  18.430  0.00  0.00    +0.000 S 
ATOM     25  C   UNL     1      52.106   3.338  17.876  0.00  0.00    +0.000 A 
ATOM     26  N   UNL     1      52.576   2.062  17.858  0.00  0.00    +0.000 NA
ATOM     27  C   UNL     1      51.716   1.183  17.463  0.00  0.00    +0.000 A 
ATOM     28  N   UNL     1      50.433   1.465  17.073  0.00  0.00    +0.000 N 
ATOM     29  C   UNL     1      49.942   2.747  16.998  0.00  0.00    +0.000 A 
ATOM     30  O   UNL     1      48.841   2.976  16.511  0.00  0.00    +0.000 OA
ATOM     31  C   UNL     1      50.852   3.770  17.482  0.00  0.00    +0.000 A 
ATOM     32  H   UNL     1      49.819   0.735  16.744  0.00  0.00    +0.000 HD
ENDBRANCH  19  22
ENDBRANCH   1  20
TORSDOF 6
ENDMDL
