MODEL 1
REMARK VINA RESULT:    -8.300      0.000      0.000
REMARK INTER + INTRA:         -11.602
REMARK INTER:                 -10.726
REMARK INTRA:                  -0.876
REMARK UNBOUND:                -0.876
REMARK  Name = 
REMARK  5 active torsions:
REMARK  status: ('A' for Active; 'I' for Inactive)
REMARK    1  A    between atoms: C_6  and  C_7
REMARK    2  A    between atoms: C_7  and  C_8
REMARK    3  A    between atoms: C_11  and  C_12
REMARK    4  A    between atoms: C_12  and  N_13
REMARK    5  A    between atoms: C_14  and  C_16
REMARK                            x       y       z     vdW  Elec       q    Type
REMARK                         _______ _______ _______ _____ _____    ______ ____
ROOT
ATOM      1  C   UNL     1      44.782   5.113  10.636  0.00  0.00    +0.000 A 
ATOM      2  C   UNL     1      44.301   5.306  11.928  0.00  0.00    +0.000 A 
ATOM      3  C   UNL     1      44.979   6.180  12.776  0.00  0.00    +0.000 A 
ATOM      4  C   UNL     1      46.121   6.843  12.323  0.00  0.00    +0.000 A 
ATOM      5  C   UNL     1      46.534   6.581  11.022  0.00  0.00    +0.000 A 
ATOM      6  N   UNL     1      45.901   5.734  10.178  0.00  0.00    +0.000 NA
ENDROOT
BRANCH   1   7
ATOM      7  C   UNL     1      44.001   4.274   9.648  0.00  0.00    +0.000 C 
BRANCH   7  13
ATOM      8  N   UNL     1      46.992   3.807   5.939  0.00  0.00    +0.000 N 
ATOM      9  C   UNL     1      46.353   3.194   7.017  0.00  0.00    +0.000 A 
ATOM     10  C   UNL     1      46.624   1.870   7.327  0.00  0.00    +0.000 A 
ATOM     11  C   UNL     1      45.969   1.288   8.405  0.00  0.00    +0.000 A 
ATOM     12  C   UNL     1      45.083   2.054   9.150  0.00  0.00    +0.000 A 
ATOM     13  C   UNL     1      44.896   3.391   8.806  0.00  0.00    +0.000 A 
ATOM     14  N   UNL     1      45.517   3.962   7.738  0.00  0.00    +0.000 NA
ATOM     15  H   UNL     1      46.878   3.268   5.089  0.00  0.00    +0.000 HD
ATOM     16  H   UNL     1      46.595   4.738   5.855  0.00  0.00    +0.000 HD
ENDBRANCH   7  13
ENDBRANCH   1   7
BRANCH   4  17
ATOM     17  C   UNL     1      46.833   7.849  13.176  0.00  0.00    +0.000 C 
BRANCH  17  18
ATOM     18  N   UNL     1      47.317   7.248  14.398  0.00  0.00    +0.000 N 
ATOM     19  C   UNL     1      48.612   6.807  14.505  0.00  0.00    +0.000 C 
ATOM     20  O   UNL     1      49.423   6.961  13.595  0.00  0.00    +0.000 OA
ATOM     21  H   UNL     1      46.623   6.919  15.061  0.00  0.00    +0.000 HD
BRANCH  19  22
ATOM     22  C   UNL     1      49.002   6.189  15.780  0.00  0.00    +0.000 A 
ATOM     23  C   UNL     1      50.088   6.697  16.481  0.00  0.00    +0.000 A 
ATOM     24  S   UNL     1      50.388   5.895  17.956  0.00  0.00    +0.000 S 
ATOM     25  C   UNL     1      49.108   4.809  17.690  0.00  0.00    +0.000 A 
ATOM     26  N   UNL     1      48.835   3.820  18.583  0.00  0.00    +0.000 NA
ATOM     27  C   UNL     1      47.854   3.050  18.242  0.00  0.00    +0.000 A 
ATOM     28  N   UNL     1      47.121   3.184  17.090  0.00  0.00    +0.000 N 
ATOM     29  C   UNL     1      47.344   4.183  16.173  0.00  0.00    +0.000 A 
ATOM     30  O   UNL     1      46.644   4.300  15.172  0.00  0.00    +0.000 OA
ATOM     31  C   UNL     1      48.444   5.068  16.502  0.00  0.00    +0.000 A 
ATOM     32  H   UNL     1      46.359   2.551  16.888  0.00  0.00    +0.000 HD
ENDBRANCH  19  22
ENDBRANCH  17  18
ENDBRANCH   4  17
TORSDOF 5
ENDMDL
MODEL 2
REMARK VINA RESULT:    -7.448      2.195      2.576
REMARK INTER + INTRA:         -10.501
REMARK INTER:                  -9.582
REMARK INTRA:                  -0.919
REMARK UNBOUND:                -0.876
REMARK  Name = 
REMARK  5 active torsions:
REMARK  status: ('A' for Active; 'I' for Inactive)
REMARK    1  A    between atoms: C_6  and  C_7
REMARK    2  A    between atoms: C_7  and  C_8
REMARK    3  A    between atoms: C_11  and  C_12
REMARK    4  A    between atoms: C_12  and  N_13
REMARK    5  A    between atoms: C_14  and  C_16
REMARK                            x       y       z     vdW  Elec       q    Type
REMARK                         _______ _______ _______ _____ _____    ______ ____
ROOT
ATOM      1  C   UNL     1      45.537   5.403  11.335  0.00  0.00    +0.000 A 
ATOM      2  C   UNL     1      45.796   4.785  12.555  0.00  0.00    +0.000 A 
ATOM      3  C   UNL     1      46.693   5.384  13.437  0.00  0.00    +0.000 A 
ATOM      4  C   UNL     1      47.317   6.584  13.087  0.00  0.00    +0.000 A 
ATOM      5  C   UNL     1      47.007   7.122  11.845  0.00  0.00    +0.000 A 
ATOM      6  N   UNL     1      46.145   6.561  10.965  0.00  0.00    +0.000 NA
ENDROOT
BRANCH   1   7
ATOM      7  C   UNL     1      44.474   4.851  10.410  0.00  0.00    +0.000 C 
BRANCH   7  13
ATOM      8  N   UNL     1      46.977   4.030   6.412  0.00  0.00    +0.000 N 
ATOM      9  C   UNL     1      46.264   3.491   7.482  0.00  0.00    +0.000 A 
ATOM     10  C   UNL     1      46.177   2.117   7.642  0.00  0.00    +0.000 A 
ATOM     11  C   UNL     1      45.457   1.611   8.716  0.00  0.00    +0.000 A 
ATOM     12  C   UNL     1      44.867   2.495   9.609  0.00  0.00    +0.000 A 
ATOM     13  C   UNL     1      45.035   3.864   9.409  0.00  0.00    +0.000 A 
ATOM     14  N   UNL     1      45.720   4.367   8.346  0.00  0.00    +0.000 NA
ATOM     15  H   UNL     1      46.663   3.643   5.529  0.00  0.00    +0.000 HD
ATOM     16  H   UNL     1      46.847   5.037   6.452  0.00  0.00    +0.000 HD
ENDBRANCH   7  13
ENDBRANCH   1   7
BRANCH   4  17
ATOM     17  C   UNL     1      48.228   7.299  14.038  0.00  0.00    +0.000 C 
BRANCH  17  18
ATOM     18  N   UNL     1      48.064   6.809  15.388  0.00  0.00    +0.000 N 
ATOM     19  C   UNL     1      49.144   6.397  16.126  0.00  0.00    +0.000 C 
ATOM     20  O   UNL     1      50.292   6.486  15.697  0.00  0.00    +0.000 OA
ATOM     21  H   UNL     1      47.131   6.526  15.670  0.00  0.00    +0.000 HD
BRANCH  19  22
ATOM     22  C   UNL     1      48.872   5.892  17.480  0.00  0.00    +0.000 A 
ATOM     23  C   UNL     1      49.084   4.549  17.764  0.00  0.00    +0.000 A 
ATOM     24  S   UNL     1      48.757   4.130  19.383  0.00  0.00    +0.000 S 
ATOM     25  C   UNL     1      48.273   5.717  19.755  0.00  0.00    +0.000 A 
ATOM     26  N   UNL     1      47.833   6.039  21.001  0.00  0.00    +0.000 NA
ATOM     27  C   UNL     1      47.471   7.272  21.135  0.00  0.00    +0.000 A 
ATOM     28  N   UNL     1      47.513   8.212  20.137  0.00  0.00    +0.000 N 
ATOM     29  C   UNL     1      47.974   7.938  18.871  0.00  0.00    +0.000 A 
ATOM     30  O   UNL     1      48.037   8.810  18.010  0.00  0.00    +0.000 OA
ATOM     31  C   UNL     1      48.381   6.562  18.663  0.00  0.00    +0.000 A 
ATOM     32  H   UNL     1      47.222   9.163  20.313  0.00  0.00    +0.000 HD
ENDBRANCH  19  22
ENDBRANCH  17  18
ENDBRANCH   4  17
TORSDOF 5
ENDMDL
MODEL 3
REMARK VINA RESULT:    -7.426      1.484      1.648
REMARK INTER + INTRA:         -10.473
REMARK INTER:                  -9.504
REMARK INTRA:                  -0.969
REMARK UNBOUND:                -0.876
REMARK  Name = 
REMARK  5 active torsions:
REMARK  status: ('A' for Active; 'I' for Inactive)
REMARK    1  A    between atoms: C_6  and  C_7
REMARK    2  A    between atoms: C_7  and  C_8
REMARK    3  A    between atoms: C_11  and  C_12
REMARK    4  A    between atoms: C_12  and  N_13
REMARK    5  A    between atoms: C_14  and  C_16
REMARK                            x       y       z     vdW  Elec       q    Type
REMARK                         _______ _______ _______ _____ _____    ______ ____
ROOT
ATOM      1  C   UNL     1      44.979   6.039  11.267  0.00  0.00    +0.000 A 
ATOM      2  C   UNL     1      46.034   5.447  11.955  0.00  0.00    +0.000 A 
ATOM      3  C   UNL     1      46.891   6.255  12.700  0.00  0.00    +0.000 A 
ATOM      4  C   UNL     1      46.682   7.636  12.743  0.00  0.00    +0.000 A 
ATOM      5  C   UNL     1      45.611   8.139  12.017  0.00  0.00    +0.000 A 
ATOM      6  N   UNL     1      44.766   7.380  11.280  0.00  0.00    +0.000 NA
ENDROOT
BRANCH   1   7
ATOM      7  C   UNL     1      43.955   5.181  10.556  0.00  0.00    +0.000 C 
BRANCH   7  13
ATOM      8  N   UNL     1      46.926   4.140   6.950  0.00  0.00    +0.000 N 
ATOM      9  C   UNL     1      46.049   3.663   7.923  0.00  0.00    +0.000 A 
ATOM     10  C   UNL     1      45.871   2.299   8.094  0.00  0.00    +0.000 A 
ATOM     11  C   UNL     1      44.989   1.855   9.070  0.00  0.00    +0.000 A 
ATOM     12  C   UNL     1      44.330   2.789   9.859  0.00  0.00    +0.000 A 
ATOM     13  C   UNL     1      44.593   4.143   9.659  0.00  0.00    +0.000 A 
ATOM     14  N   UNL     1      45.440   4.585   8.690  0.00  0.00    +0.000 NA
ATOM     15  H   UNL     1      46.715   3.747   6.040  0.00  0.00    +0.000 HD
ATOM     16  H   UNL     1      46.844   5.153   6.953  0.00  0.00    +0.000 HD
ENDBRANCH   7  13
ENDBRANCH   1   7
BRANCH   4  17
ATOM     17  C   UNL     1      47.534   8.530  13.594  0.00  0.00    +0.000 C 
BRANCH  17  18
ATOM     18  N   UNL     1      47.670   8.003  14.933  0.00  0.00    +0.000 N 
ATOM     19  C   UNL     1      48.812   8.214  15.662  0.00  0.00    +0.000 C 
ATOM     20  O   UNL     1      49.733   8.906  15.235  0.00  0.00    +0.000 OA
ATOM     21  H   UNL     1      47.032   7.264  15.209  0.00  0.00    +0.000 HD
BRANCH  19  22
ATOM     22  C   UNL     1      48.864   7.617  17.005  0.00  0.00    +0.000 A 
ATOM     23  C   UNL     1      49.127   8.428  18.102  0.00  0.00    +0.000 A 
ATOM     24  S   UNL     1      49.116   7.594  19.589  0.00  0.00    +0.000 S 
ATOM     25  C   UNL     1      48.809   6.110  18.818  0.00  0.00    +0.000 A 
ATOM     26  N   UNL     1      48.713   4.958  19.534  0.00  0.00    +0.000 NA
ATOM     27  C   UNL     1      48.505   3.902  18.819  0.00  0.00    +0.000 A 
ATOM     28  N   UNL     1      48.383   3.895  17.452  0.00  0.00    +0.000 N 
ATOM     29  C   UNL     1      48.448   5.038  16.690  0.00  0.00    +0.000 A 
ATOM     30  O   UNL     1      48.295   5.005  15.474  0.00  0.00    +0.000 OA
ATOM     31  C   UNL     1      48.693   6.251  17.445  0.00  0.00    +0.000 A 
ATOM     32  H   UNL     1      48.213   3.033  16.955  0.00  0.00    +0.000 HD
ENDBRANCH  19  22
ENDBRANCH  17  18
ENDBRANCH   4  17
TORSDOF 5
ENDMDL
MODEL 4
REMARK VINA RESULT:    -7.408      3.896      8.974
REMARK INTER + INTRA:         -10.449
REMARK INTER:                 -10.099
REMARK INTRA:                  -0.351
REMARK UNBOUND:                -0.876
REMARK  Name = 
REMARK  5 active torsions:
REMARK  status: ('A' for Active; 'I' for Inactive)
REMARK    1  A    between atoms: C_6  and  C_7
REMARK    2  A    between atoms: C_7  and  C_8
REMARK    3  A    between atoms: C_11  and  C_12
REMARK    4  A    between atoms: C_12  and  N_13
REMARK    5  A    between atoms: C_14  and  C_16
REMARK                            x       y       z     vdW  Elec       q    Type
REMARK                         _______ _______ _______ _____ _____    ______ ____
ROOT
ATOM      1  C   UNL     1      51.431   3.568  17.791  0.00  0.00    +0.000 A 
ATOM      2  C   UNL     1      50.640   4.690  18.025  0.00  0.00    +0.000 A 
ATOM      3  C   UNL     1      49.285   4.637  17.705  0.00  0.00    +0.000 A 
ATOM      4  C   UNL     1      48.744   3.472  17.156  0.00  0.00    +0.000 A 
ATOM      5  C   UNL     1      49.610   2.407  16.948  0.00  0.00    +0.000 A 
ATOM      6  N   UNL     1      50.931   2.430  17.243  0.00  0.00    +0.000 NA
ENDROOT
BRANCH   1   7
ATOM      7  C   UNL     1      52.875   3.543  18.245  0.00  0.00    +0.000 C 
BRANCH   7  13
ATOM      8  N   UNL     1      53.190  -1.207  18.759  0.00  0.00    +0.000 N 
ATOM      9  C   UNL     1      53.688  -0.056  18.149  0.00  0.00    +0.000 A 
ATOM     10  C   UNL     1      54.701  -0.148  17.206  0.00  0.00    +0.000 A 
ATOM     11  C   UNL     1      55.178   1.016  16.619  0.00  0.00    +0.000 A 
ATOM     12  C   UNL     1      54.612   2.233  16.976  0.00  0.00    +0.000 A 
ATOM     13  C   UNL     1      53.567   2.243  17.898  0.00  0.00    +0.000 A 
ATOM     14  N   UNL     1      53.110   1.109  18.494  0.00  0.00    +0.000 NA
ATOM     15  H   UNL     1      53.935  -1.757  19.170  0.00  0.00    +0.000 HD
ATOM     16  H   UNL     1      52.517  -0.900  19.456  0.00  0.00    +0.000 HD
ENDBRANCH   7  13
ENDBRANCH   1   7
BRANCH   4  17
ATOM     17  C   UNL     1      47.278   3.349  16.870  0.00  0.00    +0.000 C 
BRANCH  17  18
ATOM     18  N   UNL     1      46.845   4.350  15.920  0.00  0.00    +0.000 N 
ATOM     19  C   UNL     1      46.912   4.118  14.570  0.00  0.00    +0.000 C 
ATOM     20  O   UNL     1      47.281   3.036  14.118  0.00  0.00    +0.000 OA
ATOM     21  H   UNL     1      46.751   5.301  16.258  0.00  0.00    +0.000 HD
BRANCH  19  22
ATOM     22  C   UNL     1      46.471   5.206  13.685  0.00  0.00    +0.000 A 
ATOM     23  C   UNL     1      47.302   6.299  13.480  0.00  0.00    +0.000 A 
ATOM     24  S   UNL     1      46.663   7.454  12.402  0.00  0.00    +0.000 S 
ATOM     25  C   UNL     1      45.230   6.560  12.205  0.00  0.00    +0.000 A 
ATOM     26  N   UNL     1      44.224   7.019  11.413  0.00  0.00    +0.000 NA
ATOM     27  C   UNL     1      43.184   6.253  11.377  0.00  0.00    +0.000 A 
ATOM     28  N   UNL     1      43.061   5.069  12.060  0.00  0.00    +0.000 N 
ATOM     29  C   UNL     1      44.061   4.554  12.850  0.00  0.00    +0.000 A 
ATOM     30  O   UNL     1      43.936   3.473  13.416  0.00  0.00    +0.000 OA
ATOM     31  C   UNL     1      45.248   5.383  12.935  0.00  0.00    +0.000 A 
ATOM     32  H   UNL     1      42.221   4.514  11.980  0.00  0.00    +0.000 HD
ENDBRANCH  19  22
ENDBRANCH  17  18
ENDBRANCH   4  17
TORSDOF 5
ENDMDL
MODEL 5
REMARK VINA RESULT:    -7.173      3.288      8.168
REMARK INTER + INTRA:         -10.146
REMARK INTER:                  -9.332
REMARK INTRA:                  -0.814
REMARK UNBOUND:                -0.876
REMARK  Name = 
REMARK  5 active torsions:
REMARK  status: ('A' for Active; 'I' for Inactive)
REMARK    1  A    between atoms: C_6  and  C_7
REMARK    2  A    between atoms: C_7  and  C_8
REMARK    3  A    between atoms: C_11  and  C_12
REMARK    4  A    between atoms: C_12  and  N_13
REMARK    5  A    between atoms: C_14  and  C_16
REMARK                            x       y       z     vdW  Elec       q    Type
REMARK                         _______ _______ _______ _____ _____    ______ ____
ROOT
ATOM      1  C   UNL     1      49.860   6.377  16.338  0.00  0.00    +0.000 A 
ATOM      2  C   UNL     1      50.650   7.270  15.620  0.00  0.00    +0.000 A 
ATOM      3  C   UNL     1      50.218   7.691  14.363  0.00  0.00    +0.000 A 
ATOM      4  C   UNL     1      49.013   7.213  13.846  0.00  0.00    +0.000 A 
ATOM      5  C   UNL     1      48.296   6.316  14.628  0.00  0.00    +0.000 A 
ATOM      6  N   UNL     1      48.692   5.884  15.848  0.00  0.00    +0.000 NA
ENDROOT
BRANCH   1   7
ATOM      7  C   UNL     1      50.231   6.000  17.757  0.00  0.00    +0.000 C 
BRANCH   7  13
ATOM      8  N   UNL     1      50.751   1.304  16.982  0.00  0.00    +0.000 N 
ATOM      9  C   UNL     1      51.333   2.494  17.417  0.00  0.00    +0.000 A 
ATOM     10  C   UNL     1      52.670   2.523  17.786  0.00  0.00    +0.000 A 
ATOM     11  C   UNL     1      53.220   3.722  18.218  0.00  0.00    +0.000 A 
ATOM     12  C   UNL     1      52.423   4.859  18.245  0.00  0.00    +0.000 A 
ATOM     13  C   UNL     1      51.100   4.763  17.817  0.00  0.00    +0.000 A 
ATOM     14  N   UNL     1      50.549   3.586  17.414  0.00  0.00    +0.000 NA
ATOM     15  H   UNL     1      50.895   0.557  17.652  0.00  0.00    +0.000 HD
ATOM     16  H   UNL     1      49.764   1.498  16.836  0.00  0.00    +0.000 HD
ENDBRANCH   7  13
ENDBRANCH   1   7
BRANCH   4  17
ATOM     17  C   UNL     1      48.476   7.699  12.533  0.00  0.00    +0.000 C 
BRANCH  17  18
ATOM     18  N   UNL     1      47.733   6.661  11.855  0.00  0.00    +0.000 N 
ATOM     19  C   UNL     1      46.409   6.830  11.541  0.00  0.00    +0.000 C 
ATOM     20  O   UNL     1      45.822   7.886  11.764  0.00  0.00    +0.000 OA
ATOM     21  H   UNL     1      48.128   5.726  11.863  0.00  0.00    +0.000 HD
BRANCH  19  22
ATOM     22  C   UNL     1      45.735   5.707  10.873  0.00  0.00    +0.000 A 
ATOM     23  C   UNL     1      45.837   5.572   9.494  0.00  0.00    +0.000 A 
ATOM     24  S   UNL     1      45.031   4.202   8.878  0.00  0.00    +0.000 S 
ATOM     25  C   UNL     1      44.475   3.765  10.424  0.00  0.00    +0.000 A 
ATOM     26  N   UNL     1      43.682   2.673  10.598  0.00  0.00    +0.000 NA
ATOM     27  C   UNL     1      43.310   2.475  11.819  0.00  0.00    +0.000 A 
ATOM     28  N   UNL     1      43.661   3.268  12.882  0.00  0.00    +0.000 N 
ATOM     29  C   UNL     1      44.481   4.365  12.757  0.00  0.00    +0.000 A 
ATOM     30  O   UNL     1      44.810   5.031  13.733  0.00  0.00    +0.000 OA
ATOM     31  C   UNL     1      44.917   4.640  11.402  0.00  0.00    +0.000 A 
ATOM     32  H   UNL     1      43.341   3.050  13.815  0.00  0.00    +0.000 HD
ENDBRANCH  19  22
ENDBRANCH  17  18
ENDBRANCH   4  17
TORSDOF 5
ENDMDL
MODEL 6
REMARK VINA RESULT:    -7.105      2.534      3.643
REMARK INTER + INTRA:         -10.057
REMARK INTER:                  -9.352
REMARK INTRA:                  -0.705
REMARK UNBOUND:                -0.876
REMARK  Name = 
REMARK  5 active torsions:
REMARK  status: ('A' for Active; 'I' for Inactive)
REMARK    1  A    between atoms: C_6  and  C_7
REMARK    2  A    between atoms: C_7  and  C_8
REMARK    3  A    between atoms: C_11  and  C_12
REMARK    4  A    between atoms: C_12  and  N_13
REMARK    5  A    between atoms: C_14  and  C_16
REMARK                            x       y       z     vdW  Elec       q    Type
REMARK                         _______ _______ _______ _____ _____    ______ ____
ROOT
ATOM      1  C   UNL     1      45.559   5.393  11.814  0.00  0.00    +0.000 A 
ATOM      2  C   UNL     1      46.710   6.094  12.163  0.00  0.00    +0.000 A 
ATOM      3  C   UNL     1      47.332   5.807  13.376  0.00  0.00    +0.000 A 
ATOM      4  C   UNL     1      46.797   4.830  14.219  0.00  0.00    +0.000 A 
ATOM      5  C   UNL     1      45.640   4.189  13.794  0.00  0.00    +0.000 A 
ATOM      6  N   UNL     1      45.010   4.451  12.624  0.00  0.00    +0.000 NA
ENDROOT
BRANCH   1   7
ATOM      7  C   UNL     1      44.932   5.585  10.450  0.00  0.00    +0.000 C 
BRANCH   7  13
ATOM      8  N   UNL     1      47.023   3.981   6.453  0.00  0.00    +0.000 N 
ATOM      9  C   UNL     1      46.262   3.680   7.582  0.00  0.00    +0.000 A 
ATOM     10  C   UNL     1      45.896   2.369   7.848  0.00  0.00    +0.000 A 
ATOM     11  C   UNL     1      45.135   2.102   8.979  0.00  0.00    +0.000 A 
ATOM     12  C   UNL     1      44.784   3.150   9.819  0.00  0.00    +0.000 A 
ATOM     13  C   UNL     1      45.227   4.436   9.511  0.00  0.00    +0.000 A 
ATOM     14  N   UNL     1      45.953   4.708   8.393  0.00  0.00    +0.000 NA
ATOM     15  H   UNL     1      46.596   3.610   5.612  0.00  0.00    +0.000 HD
ATOM     16  H   UNL     1      47.110   4.993   6.420  0.00  0.00    +0.000 HD
ENDBRANCH   7  13
ENDBRANCH   1   7
BRANCH   4  17
ATOM     17  C   UNL     1      47.478   4.437  15.495  0.00  0.00    +0.000 C 
BRANCH  17  18
ATOM     18  N   UNL     1      47.632   5.573  16.376  0.00  0.00    +0.000 N 
ATOM     19  C   UNL     1      48.861   5.916  16.878  0.00  0.00    +0.000 C 
ATOM     20  O   UNL     1      49.883   5.316  16.552  0.00  0.00    +0.000 OA
ATOM     21  H   UNL     1      46.794   5.934  16.820  0.00  0.00    +0.000 HD
BRANCH  19  22
ATOM     22  C   UNL     1      48.911   7.073  17.784  0.00  0.00    +0.000 A 
ATOM     23  C   UNL     1      49.224   6.879  19.123  0.00  0.00    +0.000 A 
ATOM     24  S   UNL     1      49.276   8.320  20.031  0.00  0.00    +0.000 S 
ATOM     25  C   UNL     1      48.835   9.253  18.680  0.00  0.00    +0.000 A 
ATOM     26  N   UNL     1      48.672  10.600  18.785  0.00  0.00    +0.000 NA
ATOM     27  C   UNL     1      48.309  11.179  17.688  0.00  0.00    +0.000 A 
ATOM     28  N   UNL     1      48.099  10.533  16.496  0.00  0.00    +0.000 N 
ATOM     29  C   UNL     1      48.277   9.179  16.337  0.00  0.00    +0.000 A 
ATOM     30  O   UNL     1      48.120   8.637  15.248  0.00  0.00    +0.000 OA
ATOM     31  C   UNL     1      48.673   8.479  17.544  0.00  0.00    +0.000 A 
ATOM     32  H   UNL     1      47.824  11.049  15.673  0.00  0.00    +0.000 HD
ENDBRANCH  19  22
ENDBRANCH  17  18
ENDBRANCH   4  17
TORSDOF 5
ENDMDL
MODEL 7
REMARK VINA RESULT:    -7.085      2.863      8.384
REMARK INTER + INTRA:         -10.031
REMARK INTER:                  -9.018
REMARK INTRA:                  -1.013
REMARK UNBOUND:                -0.876
REMARK  Name = 
REMARK  5 active torsions:
REMARK  status: ('A' for Active; 'I' for Inactive)
REMARK    1  A    between atoms: C_6  and  C_7
REMARK    2  A    between atoms: C_7  and  C_8
REMARK    3  A    between atoms: C_11  and  C_12
REMARK    4  A    between atoms: C_12  and  N_13
REMARK    5  A    between atoms: C_14  and  C_16
REMARK                            x       y       z     vdW  Elec       q    Type
REMARK                         _______ _______ _______ _____ _____    ______ ____
ROOT
ATOM      1  C   UNL     1      49.477   7.858  15.365  0.00  0.00    +0.000 A 
ATOM      2  C   UNL     1      48.673   8.968  15.123  0.00  0.00    +0.000 A 
ATOM      3  C   UNL     1      47.950   9.030  13.933  0.00  0.00    +0.000 A 
ATOM      4  C   UNL     1      48.043   7.988  13.008  0.00  0.00    +0.000 A 
ATOM      5  C   UNL     1      48.878   6.926  13.329  0.00  0.00    +0.000 A 
ATOM      6  N   UNL     1      49.597   6.841  14.473  0.00  0.00    +0.000 NA
ENDROOT
BRANCH   1   7
ATOM      7  C   UNL     1      50.173   7.696  16.699  0.00  0.00    +0.000 C 
BRANCH   7  13
ATOM      8  N   UNL     1      46.531   5.496  18.895  0.00  0.00    +0.000 N 
ATOM      9  C   UNL     1      47.874   5.455  18.521  0.00  0.00    +0.000 A 
ATOM     10  C   UNL     1      48.637   4.328  18.782  0.00  0.00    +0.000 A 
ATOM     11  C   UNL     1      49.972   4.318  18.400  0.00  0.00    +0.000 A 
ATOM     12  C   UNL     1      50.495   5.428  17.749  0.00  0.00    +0.000 A 
ATOM     13  C   UNL     1      49.655   6.507  17.480  0.00  0.00    +0.000 A 
ATOM     14  N   UNL     1      48.352   6.532  17.871  0.00  0.00    +0.000 NA
ATOM     15  H   UNL     1      46.416   5.275  19.877  0.00  0.00    +0.000 HD
ATOM     16  H   UNL     1      46.194   6.429  18.674  0.00  0.00    +0.000 HD
ENDBRANCH   7  13
ENDBRANCH   1   7
BRANCH   4  17
ATOM     17  C   UNL     1      47.223   7.979  11.752  0.00  0.00    +0.000 C 
BRANCH  17  18
ATOM     18  N   UNL     1      46.615   6.686  11.534  0.00  0.00    +0.000 N 
ATOM     19  C   UNL     1      45.252   6.551  11.453  0.00  0.00    +0.000 C 
ATOM     20  O   UNL     1      44.503   7.523  11.500  0.00  0.00    +0.000 OA
ATOM     21  H   UNL     1      47.187   5.868  11.712  0.00  0.00    +0.000 HD
BRANCH  19  22
ATOM     22  C   UNL     1      44.729   5.191  11.253  0.00  0.00    +0.000 A 
ATOM     23  C   UNL     1      43.976   4.595  12.256  0.00  0.00    +0.000 A 
ATOM     24  S   UNL     1      43.413   3.037  11.857  0.00  0.00    +0.000 S 
ATOM     25  C   UNL     1      44.196   3.080  10.348  0.00  0.00    +0.000 A 
ATOM     26  N   UNL     1      44.138   2.017   9.502  0.00  0.00    +0.000 NA
ATOM     27  C   UNL     1      44.801   2.175   8.403  0.00  0.00    +0.000 A 
ATOM     28  N   UNL     1      45.512   3.302   8.075  0.00  0.00    +0.000 N 
ATOM     29  C   UNL     1      45.576   4.409   8.888  0.00  0.00    +0.000 A 
ATOM     30  O   UNL     1      46.188   5.416   8.548  0.00  0.00    +0.000 OA
ATOM     31  C   UNL     1      44.859   4.277  10.141  0.00  0.00    +0.000 A 
ATOM     32  H   UNL     1      46.002   3.363   7.194  0.00  0.00    +0.000 HD
ENDBRANCH  19  22
ENDBRANCH  17  18
ENDBRANCH   4  17
TORSDOF 5
ENDMDL
MODEL 8
REMARK VINA RESULT:    -7.017      2.705      3.190
REMARK INTER + INTRA:          -9.944
REMARK INTER:                  -9.106
REMARK INTRA:                  -0.838
REMARK UNBOUND:                -0.876
REMARK  Name = 
REMARK  5 active torsions:
REMARK  status: ('A' for Active; 'I' for Inactive)
REMARK    1  A    between atoms: C_6  and  C_7
REMARK    2  A    between atoms: C_7  and  C_8
REMARK    3  A    between atoms: C_11  and  C_12
REMARK    4  A    between atoms: C_12  and  N_13
REMARK    5  A    between atoms: C_14  and  C_16
REMARK                            x       y       z     vdW  Elec       q    Type
REMARK                         _______ _______ _______ _____ _____    ______ ____
ROOT
ATOM      1  C   UNL     1      45.506   5.363  11.760  0.00  0.00    +0.000 A 
ATOM      2  C   UNL     1      46.698   6.055  11.952  0.00  0.00    +0.000 A 
ATOM      3  C   UNL     1      47.418   5.845  13.126  0.00  0.00    +0.000 A 
ATOM      4  C   UNL     1      46.937   4.952  14.087  0.00  0.00    +0.000 A 
ATOM      5  C   UNL     1      45.733   4.314  13.815  0.00  0.00    +0.000 A 
ATOM      6  N   UNL     1      45.009   4.503  12.687  0.00  0.00    +0.000 NA
ENDROOT
BRANCH   1   7
ATOM      7  C   UNL     1      44.765   5.467  10.444  0.00  0.00    +0.000 C 
BRANCH   7  13
ATOM      8  N   UNL     1      47.023   4.004   6.484  0.00  0.00    +0.000 N 
ATOM      9  C   UNL     1      46.235   3.659   7.581  0.00  0.00    +0.000 A 
ATOM     10  C   UNL     1      45.896   2.334   7.808  0.00  0.00    +0.000 A 
ATOM     11  C   UNL     1      45.108   2.023   8.908  0.00  0.00    +0.000 A 
ATOM     12  C   UNL     1      44.703   3.043   9.759  0.00  0.00    +0.000 A 
ATOM     13  C   UNL     1      45.120   4.346   9.492  0.00  0.00    +0.000 A 
ATOM     14  N   UNL     1      45.874   4.661   8.403  0.00  0.00    +0.000 NA
ATOM     15  H   UNL     1      46.632   3.640   5.622  0.00  0.00    +0.000 HD
ATOM     16  H   UNL     1      47.083   5.018   6.475  0.00  0.00    +0.000 HD
ENDBRANCH   7  13
ENDBRANCH   1   7
BRANCH   4  17
ATOM     17  C   UNL     1      47.719   4.640  15.328  0.00  0.00    +0.000 C 
BRANCH  17  18
ATOM     18  N   UNL     1      47.732   5.766  16.234  0.00  0.00    +0.000 N 
ATOM     19  C   UNL     1      48.894   6.444  16.502  0.00  0.00    +0.000 C 
ATOM     20  O   UNL     1      49.950   6.164  15.939  0.00  0.00    +0.000 OA
ATOM     21  H   UNL     1      46.940   5.869  16.860  0.00  0.00    +0.000 HD
BRANCH  19  22
ATOM     22  C   UNL     1      48.809   7.560  17.455  0.00  0.00    +0.000 A 
ATOM     23  C   UNL     1      49.276   8.814  17.081  0.00  0.00    +0.000 A 
ATOM     24  S   UNL     1      49.073  10.007  18.282  0.00  0.00    +0.000 S 
ATOM     25  C   UNL     1      48.398   8.882  19.364  0.00  0.00    +0.000 A 
ATOM     26  N   UNL     1      48.024   9.257  20.617  0.00  0.00    +0.000 NA
ATOM     27  C   UNL     1      47.554   8.296  21.342  0.00  0.00    +0.000 A 
ATOM     28  N   UNL     1      47.420   6.996  20.924  0.00  0.00    +0.000 N 
ATOM     29  C   UNL     1      47.760   6.578  19.659  0.00  0.00    +0.000 A 
ATOM     30  O   UNL     1      47.591   5.416  19.303  0.00  0.00    +0.000 OA
ATOM     31  C   UNL     1      48.307   7.617  18.809  0.00  0.00    +0.000 A 
ATOM     32  H   UNL     1      47.035   6.294  21.541  0.00  0.00    +0.000 HD
ENDBRANCH  19  22
ENDBRANCH  17  18
ENDBRANCH   4  17
TORSDOF 5
ENDMDL
MODEL 9
REMARK VINA RESULT:    -6.991      2.025      2.816
REMARK INTER + INTRA:          -9.910
REMARK INTER:                  -8.588
REMARK INTRA:                  -1.322
REMARK UNBOUND:                -0.876
REMARK  Name = 
REMARK  5 active torsions:
REMARK  status: ('A' for Active; 'I' for Inactive)
REMARK    1  A    between atoms: C_6  and  C_7
REMARK    2  A    between atoms: C_7  and  C_8
REMARK    3  A    between atoms: C_11  and  C_12
REMARK    4  A    between atoms: C_12  and  N_13
REMARK    5  A    between atoms: C_14  and  C_16
REMARK                            x       y       z     vdW  Elec       q    Type
REMARK                         _______ _______ _______ _____ _____    ______ ____
ROOT
ATOM      1  C   UNL     1      45.584   7.284  11.592  0.00  0.00    +0.000 A 
ATOM      2  C   UNL     1      46.837   6.684  11.689  0.00  0.00    +0.000 A 
ATOM      3  C   UNL     1      47.747   7.171  12.626  0.00  0.00    +0.000 A 
ATOM      4  C   UNL     1      47.394   8.246  13.444  0.00  0.00    +0.000 A 
ATOM      5  C   UNL     1      46.127   8.789  13.269  0.00  0.00    +0.000 A 
ATOM      6  N   UNL     1      45.225   8.342  12.365  0.00  0.00    +0.000 NA
ENDROOT
BRANCH   1   7
ATOM      7  C   UNL     1      44.527   6.700  10.680  0.00  0.00    +0.000 C 
BRANCH   7  13
ATOM      8  N   UNL     1      44.428   2.021   9.673  0.00  0.00    +0.000 N 
ATOM      9  C   UNL     1      44.112   3.034  10.577  0.00  0.00    +0.000 A 
ATOM     10  C   UNL     1      43.555   2.723  11.808  0.00  0.00    +0.000 A 
ATOM     11  C   UNL     1      43.248   3.754  12.685  0.00  0.00    +0.000 A 
ATOM     12  C   UNL     1      43.529   5.062  12.314  0.00  0.00    +0.000 A 
ATOM     13  C   UNL     1      44.132   5.295  11.079  0.00  0.00    +0.000 A 
ATOM     14  N   UNL     1      44.415   4.291  10.205  0.00  0.00    +0.000 NA
ATOM     15  H   UNL     1      43.630   1.420   9.500  0.00  0.00    +0.000 HD
ATOM     16  H   UNL     1      44.752   2.477   8.825  0.00  0.00    +0.000 HD
ENDBRANCH   7  13
ENDBRANCH   1   7
BRANCH   4  17
ATOM     17  C   UNL     1      48.314   8.750  14.515  0.00  0.00    +0.000 C 
BRANCH  17  18
ATOM     18  N   UNL     1      48.439   7.791  15.590  0.00  0.00    +0.000 N 
ATOM     19  C   UNL     1      49.591   7.067  15.760  0.00  0.00    +0.000 C 
ATOM     20  O   UNL     1      50.578   7.248  15.051  0.00  0.00    +0.000 OA
ATOM     21  H   UNL     1      47.583   7.477  16.034  0.00  0.00    +0.000 HD
BRANCH  19  22
ATOM     22  C   UNL     1      49.612   6.100  16.868  0.00  0.00    +0.000 A 
ATOM     23  C   UNL     1      50.556   6.238  17.877  0.00  0.00    +0.000 A 
ATOM     24  S   UNL     1      50.426   5.062  19.104  0.00  0.00    +0.000 S 
ATOM     25  C   UNL     1      49.134   4.295  18.308  0.00  0.00    +0.000 A 
ATOM     26  N   UNL     1      48.563   3.174  18.825  0.00  0.00    +0.000 NA
ATOM     27  C   UNL     1      47.611   2.680  18.103  0.00  0.00    +0.000 A 
ATOM     28  N   UNL     1      47.179   3.209  16.913  0.00  0.00    +0.000 N 
ATOM     29  C   UNL     1      47.709   4.354  16.366  0.00  0.00    +0.000 A 
ATOM     30  O   UNL     1      47.272   4.824  15.321  0.00  0.00    +0.000 OA
ATOM     31  C   UNL     1      48.791   4.941  17.132  0.00  0.00    +0.000 A 
ATOM     32  H   UNL     1      46.422   2.776  16.402  0.00  0.00    +0.000 HD
ENDBRANCH  19  22
ENDBRANCH  17  18
ENDBRANCH   4  17
TORSDOF 5
ENDMDL
