MODEL 1
REMARK VINA RESULT:    -8.212      0.000      0.000
REMARK INTER + INTRA:         -13.423
REMARK INTER:                 -12.052
REMARK INTRA:                  -1.371
REMARK UNBOUND:                -1.371
REMARK  Name = 
REMARK  10 active torsions:
REMARK  status: ('A' for Active; 'I' for Inactive)
REMARK    1  A    between atoms: C_1  and  C_2
REMARK    2  A    between atoms: C_2  and  C_3
REMARK    3  A    between atoms: C_2  and  N_10
REMARK    4  A    between atoms: C_3  and  C_4
REMARK    5  A    between atoms: N_10  and  C_11
REMARK    6  A    between atoms: N_10  and  C_12
REMARK    7  A    between atoms: C_12  and  C_13
REMARK    8  A    between atoms: C_16  and  C_17
REMARK    9  A    between atoms: C_17  and  N_18
REMARK   10  A    between atoms: C_19  and  C_21
REMARK                            x       y       z     vdW  Elec       q    Type
REMARK                         _______ _______ _______ _____ _____    ______ ____
ROOT
ATOM      1  C   UNL     1      46.622   4.584  13.919  0.00  0.00    +0.000 A 
ATOM      2  C   UNL     1      47.346   5.758  13.717  0.00  0.00    +0.000 A 
ATOM      3  C   UNL     1      48.089   6.280  14.772  0.00  0.00    +0.000 A 
ATOM      4  C   UNL     1      48.110   5.613  15.999  0.00  0.00    +0.000 A 
ATOM      5  C   UNL     1      47.373   4.440  16.104  0.00  0.00    +0.000 A 
ATOM      6  N   UNL     1      46.616   3.927  15.110  0.00  0.00    +0.000 NA
ENDROOT
BRANCH   1   7
ATOM      7  C   UNL     1      45.908   3.910  12.762  0.00  0.00    +0.000 C 
BRANCH   7   8
ATOM      8  N   UNL     1      44.537   4.410  12.449  0.00  0.00    +0.000 NA
ATOM      9  C   UNL     1      43.634   3.247  12.503  0.00  0.00    +0.000 C 
BRANCH   8  11
ATOM     10  C   UNL     1      43.663   6.444  11.171  0.00  0.00    +0.000 C 
ATOM     11  C   UNL     1      44.452   5.119  11.132  0.00  0.00    +0.000 C 
BRANCH  11  12
ATOM     12  C   UNL     1      43.831   4.285   9.966  0.00  0.00    +0.000 C 
BRANCH  12  13
ATOM     13  C   UNL     1      44.822   3.569   9.071  0.00  0.00    +0.000 A 
ATOM     14  C   UNL     1      45.011   2.183   9.154  0.00  0.00    +0.000 A 
ATOM     15  C   UNL     1      45.967   1.544   8.359  0.00  0.00    +0.000 A 
ATOM     16  C   UNL     1      46.729   2.289   7.458  0.00  0.00    +0.000 A 
ATOM     17  C   UNL     1      46.536   3.659   7.354  0.00  0.00    +0.000 A 
ATOM     18  C   UNL     1      45.591   4.295   8.153  0.00  0.00    +0.000 A 
ENDBRANCH  12  13
ENDBRANCH  11  12
ENDBRANCH   8  11
ENDBRANCH   7   8
ENDBRANCH   1   7
BRANCH   4  19
ATOM     19  C   UNL     1      48.801   6.175  17.203  0.00  0.00    +0.000 C 
BRANCH  19  20
ATOM     20  N   UNL     1      49.853   5.280  17.620  0.00  0.00    +0.000 N 
ATOM     21  C   UNL     1      51.137   5.419  17.170  0.00  0.00    +0.000 C 
ATOM     22  O   UNL     1      51.467   6.310  16.399  0.00  0.00    +0.000 OA
ATOM     23  H   UNL     1      49.572   4.400  18.044  0.00  0.00    +0.000 HD
BRANCH  21  24
ATOM     24  C   UNL     1      52.117   4.479  17.730  0.00  0.00    +0.000 A 
ATOM     25  C   UNL     1      53.258   4.964  18.349  0.00  0.00    +0.000 A 
ATOM     26  S   UNL     1      54.261   3.742  18.992  0.00  0.00    +0.000 S 
ATOM     27  C   UNL     1      53.228   2.512  18.419  0.00  0.00    +0.000 A 
ATOM     28  N   UNL     1      53.526   1.202  18.608  0.00  0.00    +0.000 NA
ATOM     29  C   UNL     1      52.671   0.381  18.098  0.00  0.00    +0.000 A 
ATOM     30  N   UNL     1      51.539   0.746  17.428  0.00  0.00    +0.000 N 
ATOM     31  C   UNL     1      51.174   2.067  17.241  0.00  0.00    +0.000 A 
ATOM     32  O   UNL     1      50.130   2.370  16.679  0.00  0.00    +0.000 OA
ATOM     33  C   UNL     1      52.121   3.033  17.774  0.00  0.00    +0.000 A 
ATOM     34  H   UNL     1      50.896   0.059  17.058  0.00  0.00    +0.000 HD
ENDBRANCH  21  24
ENDBRANCH  19  20
ENDBRANCH   4  19
TORSDOF 8
ENDMDL
MODEL 2
REMARK VINA RESULT:    -7.140      4.280      9.148
REMARK INTER + INTRA:         -11.850
REMARK INTER:                  -9.954
REMARK INTRA:                  -1.896
REMARK UNBOUND:                -1.371
REMARK  Name = 
REMARK  10 active torsions:
REMARK  status: ('A' for Active; 'I' for Inactive)
REMARK    1  A    between atoms: C_1  and  C_2
REMARK    2  A    between atoms: C_2  and  C_3
REMARK    3  A    between atoms: C_2  and  N_10
REMARK    4  A    between atoms: C_3  and  C_4
REMARK    5  A    between atoms: N_10  and  C_11
REMARK    6  A    between atoms: N_10  and  C_12
REMARK    7  A    between atoms: C_12  and  C_13
REMARK    8  A    between atoms: C_16  and  C_17
REMARK    9  A    between atoms: C_17  and  N_18
REMARK   10  A    between atoms: C_19  and  C_21
REMARK                            x       y       z     vdW  Elec       q    Type
REMARK                         _______ _______ _______ _____ _____    ______ ____
ROOT
ATOM      1  C   UNL     1      48.910   8.211  15.950  0.00  0.00    +0.000 A 
ATOM      2  C   UNL     1      49.104   6.977  15.332  0.00  0.00    +0.000 A 
ATOM      3  C   UNL     1      48.742   6.828  13.996  0.00  0.00    +0.000 A 
ATOM      4  C   UNL     1      48.212   7.915  13.299  0.00  0.00    +0.000 A 
ATOM      5  C   UNL     1      48.070   9.113  13.989  0.00  0.00    +0.000 A 
ATOM      6  N   UNL     1      48.380   9.279  15.294  0.00  0.00    +0.000 NA
ENDROOT
BRANCH   1   7
ATOM      7  C   UNL     1      49.411   8.455  17.361  0.00  0.00    +0.000 C 
BRANCH   7   8
ATOM      8  N   UNL     1      48.384   8.424  18.443  0.00  0.00    +0.000 NA
ATOM      9  C   UNL     1      48.881   9.286  19.529  0.00  0.00    +0.000 C 
BRANCH   8  11
ATOM     10  C   UNL     1      47.472   6.982  20.346  0.00  0.00    +0.000 C 
ATOM     11  C   UNL     1      48.077   7.040  18.928  0.00  0.00    +0.000 C 
BRANCH  11  12
ATOM     12  C   UNL     1      49.288   6.054  18.939  0.00  0.00    +0.000 C 
BRANCH  12  13
ATOM     13  C   UNL     1      49.098   4.774  18.151  0.00  0.00    +0.000 A 
ATOM     14  C   UNL     1      47.850   4.423  17.618  0.00  0.00    +0.000 A 
ATOM     15  C   UNL     1      47.678   3.214  16.939  0.00  0.00    +0.000 A 
ATOM     16  C   UNL     1      48.763   2.353  16.770  0.00  0.00    +0.000 A 
ATOM     17  C   UNL     1      50.007   2.700  17.276  0.00  0.00    +0.000 A 
ATOM     18  C   UNL     1      50.175   3.900  17.961  0.00  0.00    +0.000 A 
ENDBRANCH  12  13
ENDBRANCH  11  12
ENDBRANCH   8  11
ENDBRANCH   7   8
ENDBRANCH   1   7
BRANCH   4  19
ATOM     19  C   UNL     1      47.705   7.795  11.895  0.00  0.00    +0.000 C 
BRANCH  19  20
ATOM     20  N   UNL     1      46.969   6.563  11.749  0.00  0.00    +0.000 N 
ATOM     21  C   UNL     1      45.606   6.521  11.858  0.00  0.00    +0.000 C 
ATOM     22  O   UNL     1      44.937   7.523  12.077  0.00  0.00    +0.000 OA
ATOM     23  H   UNL     1      47.496   5.696  11.820  0.00  0.00    +0.000 HD
BRANCH  21  24
ATOM     24  C   UNL     1      44.985   5.212  11.619  0.00  0.00    +0.000 A 
ATOM     25  C   UNL     1      44.289   4.586  12.641  0.00  0.00    +0.000 A 
ATOM     26  S   UNL     1      43.583   3.102  12.180  0.00  0.00    +0.000 S 
ATOM     27  C   UNL     1      44.231   3.216  10.607  0.00  0.00    +0.000 A 
ATOM     28  N   UNL     1      44.027   2.236   9.691  0.00  0.00    +0.000 NA
ATOM     29  C   UNL     1      44.597   2.442   8.552  0.00  0.00    +0.000 A 
ATOM     30  N   UNL     1      45.341   3.542   8.237  0.00  0.00    +0.000 N 
ATOM     31  C   UNL     1      45.547   4.584   9.122  0.00  0.00    +0.000 A 
ATOM     32  O   UNL     1      46.177   5.582   8.801  0.00  0.00    +0.000 OA
ATOM     33  C   UNL     1      44.946   4.386  10.432  0.00  0.00    +0.000 A 
ATOM     34  H   UNL     1      45.756   3.657   7.322  0.00  0.00    +0.000 HD
ENDBRANCH  21  24
ENDBRANCH  19  20
ENDBRANCH   4  19
TORSDOF 8
ENDMDL
MODEL 3
REMARK VINA RESULT:    -7.135      4.069      9.249
REMARK INTER + INTRA:         -11.843
REMARK INTER:                  -9.418
REMARK INTRA:                  -2.424
REMARK UNBOUND:                -1.371
REMARK  Name = 
REMARK  10 active torsions:
REMARK  status: ('A' for Active; 'I' for Inactive)
REMARK    1  A    between atoms: C_1  and  C_2
REMARK    2  A    between atoms: C_2  and  C_3
REMARK    3  A    between atoms: C_2  and  N_10
REMARK    4  A    between atoms: C_3  and  C_4
REMARK    5  A    between atoms: N_10  and  C_11
REMARK    6  A    between atoms: N_10  and  C_12
REMARK    7  A    between atoms: C_12  and  C_13
REMARK    8  A    between atoms: C_16  and  C_17
REMARK    9  A    between atoms: C_17  and  N_18
REMARK   10  A    between atoms: C_19  and  C_21
REMARK                            x       y       z     vdW  Elec       q    Type
REMARK                         _______ _______ _______ _____ _____    ______ ____
ROOT
ATOM      1  C   UNL     1      48.371   5.447  20.126  0.00  0.00    +0.000 A 
ATOM      2  C   UNL     1      47.277   5.891  19.384  0.00  0.00    +0.000 A 
ATOM      3  C   UNL     1      46.988   5.269  18.173  0.00  0.00    +0.000 A 
ATOM      4  C   UNL     1      47.783   4.207  17.734  0.00  0.00    +0.000 A 
ATOM      5  C   UNL     1      48.842   3.821  18.547  0.00  0.00    +0.000 A 
ATOM      6  N   UNL     1      49.168   4.426  19.709  0.00  0.00    +0.000 NA
ENDROOT
BRANCH   1   7
ATOM      7  C   UNL     1      48.642   6.006  21.509  0.00  0.00    +0.000 C 
BRANCH   7   8
ATOM      8  N   UNL     1      49.300   7.345  21.566  0.00  0.00    +0.000 NA
ATOM      9  C   UNL     1      48.235   8.352  21.432  0.00  0.00    +0.000 C 
BRANCH   8  11
ATOM     10  C   UNL     1      51.749   7.911  21.098  0.00  0.00    +0.000 C 
ATOM     11  C   UNL     1      50.368   7.524  20.530  0.00  0.00    +0.000 C 
BRANCH  11  12
ATOM     12  C   UNL     1      50.050   8.579  19.422  0.00  0.00    +0.000 C 
BRANCH  12  13
ATOM     13  C   UNL     1      49.852   8.023  18.026  0.00  0.00    +0.000 A 
ATOM     14  C   UNL     1      50.636   6.967  17.543  0.00  0.00    +0.000 A 
ATOM     15  C   UNL     1      50.478   6.501  16.235  0.00  0.00    +0.000 A 
ATOM     16  C   UNL     1      49.515   7.078  15.405  0.00  0.00    +0.000 A 
ATOM     17  C   UNL     1      48.720   8.110  15.881  0.00  0.00    +0.000 A 
ATOM     18  C   UNL     1      48.886   8.580  17.180  0.00  0.00    +0.000 A 
ENDBRANCH  12  13
ENDBRANCH  11  12
ENDBRANCH   8  11
ENDBRANCH   7   8
ENDBRANCH   1   7
BRANCH   4  19
ATOM     19  C   UNL     1      47.592   3.565  16.395  0.00  0.00    +0.000 C 
BRANCH  19  20
ATOM     20  N   UNL     1      46.999   4.513  15.483  0.00  0.00    +0.000 N 
ATOM     21  C   UNL     1      46.816   4.221  14.159  0.00  0.00    +0.000 C 
ATOM     22  O   UNL     1      47.136   3.142  13.678  0.00  0.00    +0.000 OA
ATOM     23  H   UNL     1      46.959   5.484  15.783  0.00  0.00    +0.000 HD
BRANCH  21  24
ATOM     24  C   UNL     1      46.140   5.253  13.364  0.00  0.00    +0.000 A 
ATOM     25  C   UNL     1      46.780   6.459  13.118  0.00  0.00    +0.000 A 
ATOM     26  S   UNL     1      45.879   7.522  12.132  0.00  0.00    +0.000 S 
ATOM     27  C   UNL     1      44.575   6.428  12.042  0.00  0.00    +0.000 A 
ATOM     28  N   UNL     1      43.443   6.740  11.362  0.00  0.00    +0.000 NA
ATOM     29  C   UNL     1      42.529   5.831  11.400  0.00  0.00    +0.000 A 
ATOM     30  N   UNL     1      42.643   4.633  12.044  0.00  0.00    +0.000 N 
ATOM     31  C   UNL     1      43.788   4.254  12.720  0.00  0.00    +0.000 A 
ATOM     32  O   UNL     1      43.886   3.155  13.249  0.00  0.00    +0.000 OA
ATOM     33  C   UNL     1      44.840   5.258  12.729  0.00  0.00    +0.000 A 
ATOM     34  H   UNL     1      41.897   3.950  12.032  0.00  0.00    +0.000 HD
ENDBRANCH  21  24
ENDBRANCH  19  20
ENDBRANCH   4  19
TORSDOF 8
ENDMDL
MODEL 4
REMARK VINA RESULT:    -7.066      3.672     10.183
REMARK INTER + INTRA:         -11.742
REMARK INTER:                  -9.510
REMARK INTRA:                  -2.231
REMARK UNBOUND:                -1.371
REMARK  Name = 
REMARK  10 active torsions:
REMARK  status: ('A' for Active; 'I' for Inactive)
REMARK    1  A    between atoms: C_1  and  C_2
REMARK    2  A    between atoms: C_2  and  C_3
REMARK    3  A    between atoms: C_2  and  N_10
REMARK    4  A    between atoms: C_3  and  C_4
REMARK    5  A    between atoms: N_10  and  C_11
REMARK    6  A    between atoms: N_10  and  C_12
REMARK    7  A    between atoms: C_12  and  C_13
REMARK    8  A    between atoms: C_16  and  C_17
REMARK    9  A    between atoms: C_17  and  N_18
REMARK   10  A    between atoms: C_19  and  C_21
REMARK                            x       y       z     vdW  Elec       q    Type
REMARK                         _______ _______ _______ _____ _____    ______ ____
ROOT
ATOM      1  C   UNL     1      51.030   4.738  18.007  0.00  0.00    +0.000 A 
ATOM      2  C   UNL     1      50.065   5.720  17.790  0.00  0.00    +0.000 A 
ATOM      3  C   UNL     1      48.798   5.336  17.361  0.00  0.00    +0.000 A 
ATOM      4  C   UNL     1      48.513   3.982  17.174  0.00  0.00    +0.000 A 
ATOM      5  C   UNL     1      49.530   3.070  17.432  0.00  0.00    +0.000 A 
ATOM      6  N   UNL     1      50.779   3.415  17.815  0.00  0.00    +0.000 NA
ENDROOT
BRANCH   1   7
ATOM      7  C   UNL     1      52.379   5.099  18.599  0.00  0.00    +0.000 C 
BRANCH   7   8
ATOM      8  N   UNL     1      52.394   6.229  19.575  0.00  0.00    +0.000 NA
ATOM      9  C   UNL     1      53.335   7.234  19.053  0.00  0.00    +0.000 C 
BRANCH   8  11
ATOM     10  C   UNL     1      53.055   4.300  21.116  0.00  0.00    +0.000 C 
ATOM     11  C   UNL     1      52.750   5.804  20.967  0.00  0.00    +0.000 C 
BRANCH  11  12
ATOM     12  C   UNL     1      51.681   6.134  22.058  0.00  0.00    +0.000 C 
BRANCH  12  13
ATOM     13  C   UNL     1      50.238   6.062  21.604  0.00  0.00    +0.000 A 
ATOM     14  C   UNL     1      49.563   4.838  21.507  0.00  0.00    +0.000 A 
ATOM     15  C   UNL     1      48.248   4.782  21.036  0.00  0.00    +0.000 A 
ATOM     16  C   UNL     1      47.590   5.960  20.677  0.00  0.00    +0.000 A 
ATOM     17  C   UNL     1      48.242   7.179  20.788  0.00  0.00    +0.000 A 
ATOM     18  C   UNL     1      49.555   7.232  21.247  0.00  0.00    +0.000 A 
ENDBRANCH  12  13
ENDBRANCH  11  12
ENDBRANCH   8  11
ENDBRANCH   7   8
ENDBRANCH   1   7
BRANCH   4  19
ATOM     19  C   UNL     1      47.207   3.509  16.615  0.00  0.00    +0.000 C 
BRANCH  19  20
ATOM     20  N   UNL     1      46.714   4.469  15.656  0.00  0.00    +0.000 N 
ATOM     21  C   UNL     1      46.755   4.228  14.311  0.00  0.00    +0.000 C 
ATOM     22  O   UNL     1      47.203   3.188  13.846  0.00  0.00    +0.000 OA
ATOM     23  H   UNL     1      46.576   5.422  15.983  0.00  0.00    +0.000 HD
BRANCH  21  24
ATOM     24  C   UNL     1      46.157   5.263  13.457  0.00  0.00    +0.000 A 
ATOM     25  C   UNL     1      46.866   6.423  13.187  0.00  0.00    +0.000 A 
ATOM     26  S   UNL     1      46.051   7.493  12.136  0.00  0.00    +0.000 S 
ATOM     27  C   UNL     1      44.694   6.465  12.047  0.00  0.00    +0.000 A 
ATOM     28  N   UNL     1      43.600   6.809  11.321  0.00  0.00    +0.000 NA
ATOM     29  C   UNL     1      42.639   5.950  11.365  0.00  0.00    +0.000 A 
ATOM     30  N   UNL     1      42.671   4.773  12.056  0.00  0.00    +0.000 N 
ATOM     31  C   UNL     1      43.775   4.361  12.780  0.00  0.00    +0.000 A 
ATOM     32  O   UNL     1      43.800   3.280  13.351  0.00  0.00    +0.000 OA
ATOM     33  C   UNL     1      44.878   5.310  12.784  0.00  0.00    +0.000 A 
ATOM     34  H   UNL     1      41.891   4.129  12.046  0.00  0.00    +0.000 HD
ENDBRANCH  21  24
ENDBRANCH  19  20
ENDBRANCH   4  19
TORSDOF 8
ENDMDL
MODEL 5
REMARK VINA RESULT:    -6.824      3.670      5.854
REMARK INTER + INTRA:         -11.387
REMARK INTER:                 -10.300
REMARK INTRA:                  -1.087
REMARK UNBOUND:                -1.371
REMARK  Name = 
REMARK  10 active torsions:
REMARK  status: ('A' for Active; 'I' for Inactive)
REMARK    1  A    between atoms: C_1  and  C_2
REMARK    2  A    between atoms: C_2  and  C_3
REMARK    3  A    between atoms: C_2  and  N_10
REMARK    4  A    between atoms: C_3  and  C_4
REMARK    5  A    between atoms: N_10  and  C_11
REMARK    6  A    between atoms: N_10  and  C_12
REMARK    7  A    between atoms: C_12  and  C_13
REMARK    8  A    between atoms: C_16  and  C_17
REMARK    9  A    between atoms: C_17  and  N_18
REMARK   10  A    between atoms: C_19  and  C_21
REMARK                            x       y       z     vdW  Elec       q    Type
REMARK                         _______ _______ _______ _____ _____    ______ ____
ROOT
ATOM      1  C   UNL     1      46.880   4.634  14.413  0.00  0.00    +0.000 A 
ATOM      2  C   UNL     1      47.627   5.810  14.381  0.00  0.00    +0.000 A 
ATOM      3  C   UNL     1      48.409   6.141  15.484  0.00  0.00    +0.000 A 
ATOM      4  C   UNL     1      48.443   5.286  16.588  0.00  0.00    +0.000 A 
ATOM      5  C   UNL     1      47.680   4.126  16.525  0.00  0.00    +0.000 A 
ATOM      6  N   UNL     1      46.886   3.795  15.484  0.00  0.00    +0.000 NA
ENDROOT
BRANCH   1   7
ATOM      7  C   UNL     1      46.121   4.170  13.184  0.00  0.00    +0.000 C 
BRANCH   7   8
ATOM      8  N   UNL     1      44.914   4.965  12.810  0.00  0.00    +0.000 NA
ATOM      9  C   UNL     1      43.755   4.064  12.926  0.00  0.00    +0.000 C 
BRANCH   8  11
ATOM     10  C   UNL     1      44.605   7.066  11.388  0.00  0.00    +0.000 C 
ATOM     11  C   UNL     1      45.008   5.578  11.447  0.00  0.00    +0.000 C 
BRANCH  11  12
ATOM     12  C   UNL     1      44.173   4.865  10.336  0.00  0.00    +0.000 C 
BRANCH  12  13
ATOM     13  C   UNL     1      44.958   3.969   9.400  0.00  0.00    +0.000 A 
ATOM     14  C   UNL     1      45.709   4.499   8.342  0.00  0.00    +0.000 A 
ATOM     15  C   UNL     1      46.385   3.656   7.455  0.00  0.00    +0.000 A 
ATOM     16  C   UNL     1      46.330   2.273   7.633  0.00  0.00    +0.000 A 
ATOM     17  C   UNL     1      45.605   1.740   8.689  0.00  0.00    +0.000 A 
ATOM     18  C   UNL     1      44.925   2.579   9.566  0.00  0.00    +0.000 A 
ENDBRANCH  12  13
ENDBRANCH  11  12
ENDBRANCH   8  11
ENDBRANCH   7   8
ENDBRANCH   1   7
BRANCH   4  19
ATOM     19  C   UNL     1      49.178   5.633  17.846  0.00  0.00    +0.000 C 
BRANCH  19  20
ATOM     20  N   UNL     1      48.454   6.654  18.564  0.00  0.00    +0.000 N 
ATOM     21  C   UNL     1      49.002   7.881  18.817  0.00  0.00    +0.000 C 
ATOM     22  O   UNL     1      50.128   8.184  18.443  0.00  0.00    +0.000 OA
ATOM     23  H   UNL     1      47.640   6.358  19.097  0.00  0.00    +0.000 HD
BRANCH  21  24
ATOM     24  C   UNL     1      48.127   8.844  19.498  0.00  0.00    +0.000 A 
ATOM     25  C   UNL     1      47.599   8.532  20.741  0.00  0.00    +0.000 A 
ATOM     26  S   UNL     1      46.651   9.782  21.415  0.00  0.00    +0.000 S 
ATOM     27  C   UNL     1      46.869  10.768  20.041  0.00  0.00    +0.000 A 
ATOM     28  N   UNL     1      46.284  11.989  19.954  0.00  0.00    +0.000 NA
ATOM     29  C   UNL     1      46.513  12.613  18.849  0.00  0.00    +0.000 A 
ATOM     30  N   UNL     1      47.282  12.138  17.826  0.00  0.00    +0.000 N 
ATOM     31  C   UNL     1      47.929  10.917  17.882  0.00  0.00    +0.000 A 
ATOM     32  O   UNL     1      48.653  10.533  16.973  0.00  0.00    +0.000 OA
ATOM     33  C   UNL     1      47.680  10.161  19.099  0.00  0.00    +0.000 A 
ATOM     34  H   UNL     1      47.438  12.677  16.984  0.00  0.00    +0.000 HD
ENDBRANCH  21  24
ENDBRANCH  19  20
ENDBRANCH   4  19
TORSDOF 8
ENDMDL
MODEL 6
REMARK VINA RESULT:    -6.537      4.350      7.314
REMARK INTER + INTRA:         -10.965
REMARK INTER:                  -9.629
REMARK INTRA:                  -1.337
REMARK UNBOUND:                -1.371
REMARK  Name = 
REMARK  10 active torsions:
REMARK  status: ('A' for Active; 'I' for Inactive)
REMARK    1  A    between atoms: C_1  and  C_2
REMARK    2  A    between atoms: C_2  and  C_3
REMARK    3  A    between atoms: C_2  and  N_10
REMARK    4  A    between atoms: C_3  and  C_4
REMARK    5  A    between atoms: N_10  and  C_11
REMARK    6  A    between atoms: N_10  and  C_12
REMARK    7  A    between atoms: C_12  and  C_13
REMARK    8  A    between atoms: C_16  and  C_17
REMARK    9  A    between atoms: C_17  and  N_18
REMARK   10  A    between atoms: C_19  and  C_21
REMARK                            x       y       z     vdW  Elec       q    Type
REMARK                         _______ _______ _______ _____ _____    ______ ____
ROOT
ATOM      1  C   UNL     1      44.686   9.018  11.587  0.00  0.00    +0.000 A 
ATOM      2  C   UNL     1      45.742   8.946  12.494  0.00  0.00    +0.000 A 
ATOM      3  C   UNL     1      46.171   7.696  12.930  0.00  0.00    +0.000 A 
ATOM      4  C   UNL     1      45.551   6.543  12.441  0.00  0.00    +0.000 A 
ATOM      5  C   UNL     1      44.518   6.709  11.527  0.00  0.00    +0.000 A 
ATOM      6  N   UNL     1      44.058   7.909  11.111  0.00  0.00    +0.000 NA
ENDROOT
BRANCH   1   7
ATOM      7  C   UNL     1      44.274  10.349  10.986  0.00  0.00    +0.000 C 
BRANCH   7   8
ATOM      8  N   UNL     1      43.248  10.298   9.904  0.00  0.00    +0.000 NA
ATOM      9  C   UNL     1      43.886  10.821   8.684  0.00  0.00    +0.000 C 
BRANCH   8  11
ATOM     10  C   UNL     1      41.998  12.524   9.799  0.00  0.00    +0.000 C 
ATOM     11  C   UNL     1      41.995  11.046  10.240  0.00  0.00    +0.000 C 
BRANCH  11  12
ATOM     12  C   UNL     1      41.608  11.052  11.754  0.00  0.00    +0.000 C 
BRANCH  12  13
ATOM     13  C   UNL     1      40.123  11.101  12.051  0.00  0.00    +0.000 A 
ATOM     14  C   UNL     1      39.223  10.232  11.418  0.00  0.00    +0.000 A 
ATOM     15  C   UNL     1      37.850  10.325  11.663  0.00  0.00    +0.000 A 
ATOM     16  C   UNL     1      37.369  11.278  12.562  0.00  0.00    +0.000 A 
ATOM     17  C   UNL     1      38.253  12.129  13.208  0.00  0.00    +0.000 A 
ATOM     18  C   UNL     1      39.620  12.042  12.956  0.00  0.00    +0.000 A 
ENDBRANCH  12  13
ENDBRANCH  11  12
ENDBRANCH   8  11
ENDBRANCH   7   8
ENDBRANCH   1   7
BRANCH   4  19
ATOM     19  C   UNL     1      45.892   5.176  12.947  0.00  0.00    +0.000 C 
BRANCH  19  20
ATOM     20  N   UNL     1      46.455   5.276  14.272  0.00  0.00    +0.000 N 
ATOM     21  C   UNL     1      47.112   4.228  14.856  0.00  0.00    +0.000 C 
ATOM     22  O   UNL     1      47.266   3.155  14.287  0.00  0.00    +0.000 OA
ATOM     23  H   UNL     1      46.132   6.042  14.857  0.00  0.00    +0.000 HD
BRANCH  21  24
ATOM     24  C   UNL     1      47.691   4.493  16.179  0.00  0.00    +0.000 A 
ATOM     25  C   UNL     1      47.321   3.708  17.260  0.00  0.00    +0.000 A 
ATOM     26  S   UNL     1      48.128   4.113  18.708  0.00  0.00    +0.000 S 
ATOM     27  C   UNL     1      48.965   5.392  17.953  0.00  0.00    +0.000 A 
ATOM     28  N   UNL     1      49.816   6.184  18.652  0.00  0.00    +0.000 NA
ATOM     29  C   UNL     1      50.359   7.128  17.960  0.00  0.00    +0.000 A 
ATOM     30  N   UNL     1      50.140   7.348  16.631  0.00  0.00    +0.000 N 
ATOM     31  C   UNL     1      49.311   6.548  15.867  0.00  0.00    +0.000 A 
ATOM     32  O   UNL     1      49.169   6.735  14.666  0.00  0.00    +0.000 OA
ATOM     33  C   UNL     1      48.653   5.484  16.609  0.00  0.00    +0.000 A 
ATOM     34  H   UNL     1      50.603   8.098  16.134  0.00  0.00    +0.000 HD
ENDBRANCH  21  24
ENDBRANCH  19  20
ENDBRANCH   4  19
TORSDOF 8
ENDMDL
MODEL 7
REMARK VINA RESULT:    -6.310      4.254      8.781
REMARK INTER + INTRA:         -10.632
REMARK INTER:                  -8.548
REMARK INTRA:                  -2.084
REMARK UNBOUND:                -1.371
REMARK  Name = 
REMARK  10 active torsions:
REMARK  status: ('A' for Active; 'I' for Inactive)
REMARK    1  A    between atoms: C_1  and  C_2
REMARK    2  A    between atoms: C_2  and  C_3
REMARK    3  A    between atoms: C_2  and  N_10
REMARK    4  A    between atoms: C_3  and  C_4
REMARK    5  A    between atoms: N_10  and  C_11
REMARK    6  A    between atoms: N_10  and  C_12
REMARK    7  A    between atoms: C_12  and  C_13
REMARK    8  A    between atoms: C_16  and  C_17
REMARK    9  A    between atoms: C_17  and  N_18
REMARK   10  A    between atoms: C_19  and  C_21
REMARK                            x       y       z     vdW  Elec       q    Type
REMARK                         _______ _______ _______ _____ _____    ______ ____
ROOT
ATOM      1  C   UNL     1      49.316   8.102  17.019  0.00  0.00    +0.000 A 
ATOM      2  C   UNL     1      49.426   6.897  16.327  0.00  0.00    +0.000 A 
ATOM      3  C   UNL     1      49.283   6.901  14.942  0.00  0.00    +0.000 A 
ATOM      4  C   UNL     1      49.051   8.105  14.275  0.00  0.00    +0.000 A 
ATOM      5  C   UNL     1      48.975   9.261  15.044  0.00  0.00    +0.000 A 
ATOM      6  N   UNL     1      49.075   9.284  16.391  0.00  0.00    +0.000 NA
ENDROOT
BRANCH   1   7
ATOM      7  C   UNL     1      49.596   8.164  18.509  0.00  0.00    +0.000 C 
BRANCH   7   8
ATOM      8  N   UNL     1      48.694   7.361  19.387  0.00  0.00    +0.000 NA
ATOM      9  C   UNL     1      47.954   8.316  20.229  0.00  0.00    +0.000 C 
BRANCH   8  11
ATOM     10  C   UNL     1      50.894   6.128  19.802  0.00  0.00    +0.000 C 
ATOM     11  C   UNL     1      49.421   6.342  20.209  0.00  0.00    +0.000 C 
BRANCH  11  12
ATOM     12  C   UNL     1      48.774   4.921  20.235  0.00  0.00    +0.000 C 
BRANCH  12  13
ATOM     13  C   UNL     1      48.513   4.295  18.880  0.00  0.00    +0.000 A 
ATOM     14  C   UNL     1      47.341   4.570  18.162  0.00  0.00    +0.000 A 
ATOM     15  C   UNL     1      47.090   3.944  16.938  0.00  0.00    +0.000 A 
ATOM     16  C   UNL     1      48.025   3.051  16.412  0.00  0.00    +0.000 A 
ATOM     17  C   UNL     1      49.197   2.787  17.105  0.00  0.00    +0.000 A 
ATOM     18  C   UNL     1      49.441   3.404  18.329  0.00  0.00    +0.000 A 
ENDBRANCH  12  13
ENDBRANCH  11  12
ENDBRANCH   8  11
ENDBRANCH   7   8
ENDBRANCH   1   7
BRANCH   4  19
ATOM     19  C   UNL     1      48.784   8.165  12.803  0.00  0.00    +0.000 C 
BRANCH  19  20
ATOM     20  N   UNL     1      47.660   7.320  12.479  0.00  0.00    +0.000 N 
ATOM     21  C   UNL     1      46.374   7.699  12.748  0.00  0.00    +0.000 C 
ATOM     22  O   UNL     1      46.104   8.774  13.268  0.00  0.00    +0.000 OA
ATOM     23  H   UNL     1      47.856   6.341  12.287  0.00  0.00    +0.000 HD
BRANCH  21  24
ATOM     24  C   UNL     1      45.327   6.771  12.302  0.00  0.00    +0.000 A 
ATOM     25  C   UNL     1      44.189   7.264  11.684  0.00  0.00    +0.000 A 
ATOM     26  S   UNL     1      43.102   6.049  11.180  0.00  0.00    +0.000 S 
ATOM     27  C   UNL     1      44.091   4.817  11.820  0.00  0.00    +0.000 A 
ATOM     28  N   UNL     1      43.720   3.514  11.753  0.00  0.00    +0.000 NA
ATOM     29  C   UNL     1      44.551   2.693  12.301  0.00  0.00    +0.000 A 
ATOM     30  N   UNL     1      45.724   3.050  12.900  0.00  0.00    +0.000 N 
ATOM     31  C   UNL     1      46.163   4.360  12.962  0.00  0.00    +0.000 A 
ATOM     32  O   UNL     1      47.242   4.651  13.461  0.00  0.00    +0.000 OA
ATOM     33  C   UNL     1      45.247   5.328  12.381  0.00  0.00    +0.000 A 
ATOM     34  H   UNL     1      46.345   2.362  13.305  0.00  0.00    +0.000 HD
ENDBRANCH  21  24
ENDBRANCH  19  20
ENDBRANCH   4  19
TORSDOF 8
ENDMDL
MODEL 8
REMARK VINA RESULT:    -6.050      5.822      9.424
REMARK INTER + INTRA:         -10.250
REMARK INTER:                  -7.918
REMARK INTRA:                  -2.332
REMARK UNBOUND:                -1.371
REMARK  Name = 
REMARK  10 active torsions:
REMARK  status: ('A' for Active; 'I' for Inactive)
REMARK    1  A    between atoms: C_1  and  C_2
REMARK    2  A    between atoms: C_2  and  C_3
REMARK    3  A    between atoms: C_2  and  N_10
REMARK    4  A    between atoms: C_3  and  C_4
REMARK    5  A    between atoms: N_10  and  C_11
REMARK    6  A    between atoms: N_10  and  C_12
REMARK    7  A    between atoms: C_12  and  C_13
REMARK    8  A    between atoms: C_16  and  C_17
REMARK    9  A    between atoms: C_17  and  N_18
REMARK   10  A    between atoms: C_19  and  C_21
REMARK                            x       y       z     vdW  Elec       q    Type
REMARK                         _______ _______ _______ _____ _____    ______ ____
ROOT
ATOM      1  C   UNL     1      50.891   8.225  11.891  0.00  0.00    +0.000 A 
ATOM      2  C   UNL     1      50.587   8.669  13.177  0.00  0.00    +0.000 A 
ATOM      3  C   UNL     1      49.265   8.618  13.611  0.00  0.00    +0.000 A 
ATOM      4  C   UNL     1      48.278   8.111  12.762  0.00  0.00    +0.000 A 
ATOM      5  C   UNL     1      48.676   7.674  11.504  0.00  0.00    +0.000 A 
ATOM      6  N   UNL     1      49.943   7.743  11.043  0.00  0.00    +0.000 NA
ENDROOT
BRANCH   1   7
ATOM      7  C   UNL     1      52.333   8.139  11.426  0.00  0.00    +0.000 C 
BRANCH   7   8
ATOM      8  N   UNL     1      52.938   9.401  10.906  0.00  0.00    +0.000 NA
ATOM      9  C   UNL     1      53.475  10.128  12.069  0.00  0.00    +0.000 C 
BRANCH   8  11
ATOM     10  C   UNL     1      52.453  10.590   8.697  0.00  0.00    +0.000 C 
ATOM     11  C   UNL     1      51.976  10.240  10.121  0.00  0.00    +0.000 C 
BRANCH  11  12
ATOM     12  C   UNL     1      51.579  11.596  10.787  0.00  0.00    +0.000 C 
BRANCH  12  13
ATOM     13  C   UNL     1      50.153  11.687  11.289  0.00  0.00    +0.000 A 
ATOM     14  C   UNL     1      49.075  11.242  10.511  0.00  0.00    +0.000 A 
ATOM     15  C   UNL     1      47.761  11.381  10.965  0.00  0.00    +0.000 A 
ATOM     16  C   UNL     1      47.517  11.950  12.216  0.00  0.00    +0.000 A 
ATOM     17  C   UNL     1      48.577  12.376  13.003  0.00  0.00    +0.000 A 
ATOM     18  C   UNL     1      49.885  12.245  12.544  0.00  0.00    +0.000 A 
ENDBRANCH  12  13
ENDBRANCH  11  12
ENDBRANCH   8  11
ENDBRANCH   7   8
ENDBRANCH   1   7
BRANCH   4  19
ATOM     19  C   UNL     1      46.826   8.126  13.127  0.00  0.00    +0.000 C 
BRANCH  19  20
ATOM     20  N   UNL     1      46.239   6.841  12.834  0.00  0.00    +0.000 N 
ATOM     21  C   UNL     1      45.225   6.702  11.927  0.00  0.00    +0.000 C 
ATOM     22  O   UNL     1      44.765   7.655  11.311  0.00  0.00    +0.000 OA
ATOM     23  H   UNL     1      46.415   6.089  13.495  0.00  0.00    +0.000 HD
BRANCH  21  24
ATOM     24  C   UNL     1      44.771   5.328  11.679  0.00  0.00    +0.000 A 
ATOM     25  C   UNL     1      44.074   4.647  12.666  0.00  0.00    +0.000 A 
ATOM     26  S   UNL     1      43.573   3.084  12.195  0.00  0.00    +0.000 S 
ATOM     27  C   UNL     1      44.318   3.242  10.669  0.00  0.00    +0.000 A 
ATOM     28  N   UNL     1      44.292   2.228   9.768  0.00  0.00    +0.000 NA
ATOM     29  C   UNL     1      44.918   2.475   8.668  0.00  0.00    +0.000 A 
ATOM     30  N   UNL     1      45.557   3.645   8.377  0.00  0.00    +0.000 N 
ATOM     31  C   UNL     1      45.581   4.720   9.246  0.00  0.00    +0.000 A 
ATOM     32  O   UNL     1      46.119   5.777   8.944  0.00  0.00    +0.000 OA
ATOM     33  C   UNL     1      44.911   4.481  10.515  0.00  0.00    +0.000 A 
ATOM     34  H   UNL     1      46.024   3.790   7.491  0.00  0.00    +0.000 HD
ENDBRANCH  21  24
ENDBRANCH  19  20
ENDBRANCH   4  19
TORSDOF 8
ENDMDL
MODEL 9
REMARK VINA RESULT:    -5.890      3.926      9.973
REMARK INTER + INTRA:         -10.016
REMARK INTER:                  -7.755
REMARK INTRA:                  -2.260
REMARK UNBOUND:                -1.371
REMARK  Name = 
REMARK  10 active torsions:
REMARK  status: ('A' for Active; 'I' for Inactive)
REMARK    1  A    between atoms: C_1  and  C_2
REMARK    2  A    between atoms: C_2  and  C_3
REMARK    3  A    between atoms: C_2  and  N_10
REMARK    4  A    between atoms: C_3  and  C_4
REMARK    5  A    between atoms: N_10  and  C_11
REMARK    6  A    between atoms: N_10  and  C_12
REMARK    7  A    between atoms: C_12  and  C_13
REMARK    8  A    between atoms: C_16  and  C_17
REMARK    9  A    between atoms: C_17  and  N_18
REMARK   10  A    between atoms: C_19  and  C_21
REMARK                            x       y       z     vdW  Elec       q    Type
REMARK                         _______ _______ _______ _____ _____    ______ ____
ROOT
ATOM      1  C   UNL     1      50.662   5.485  18.752  0.00  0.00    +0.000 A 
ATOM      2  C   UNL     1      49.532   6.223  18.403  0.00  0.00    +0.000 A 
ATOM      3  C   UNL     1      48.478   5.578  17.761  0.00  0.00    +0.000 A 
ATOM      4  C   UNL     1      48.564   4.209  17.497  0.00  0.00    +0.000 A 
ATOM      5  C   UNL     1      49.720   3.550  17.896  0.00  0.00    +0.000 A 
ATOM      6  N   UNL     1      50.773   4.154  18.489  0.00  0.00    +0.000 NA
ENDROOT
BRANCH   1   7
ATOM      7  C   UNL     1      51.774   6.116  19.568  0.00  0.00    +0.000 C 
BRANCH   7   8
ATOM      8  N   UNL     1      51.876   7.604  19.509  0.00  0.00    +0.000 NA
ATOM      9  C   UNL     1      53.005   7.921  18.618  0.00  0.00    +0.000 C 
BRANCH   8  11
ATOM     10  C   UNL     1      51.904   7.262  22.042  0.00  0.00    +0.000 C 
ATOM     11  C   UNL     1      52.035   8.240  20.856  0.00  0.00    +0.000 C 
BRANCH  11  12
ATOM     12  C   UNL     1      51.051   9.415  21.159  0.00  0.00    +0.000 C 
BRANCH  12  13
ATOM     13  C   UNL     1      49.664   9.277  20.566  0.00  0.00    +0.000 A 
ATOM     14  C   UNL     1      48.670   8.521  21.202  0.00  0.00    +0.000 A 
ATOM     15  C   UNL     1      47.411   8.359  20.616  0.00  0.00    +0.000 A 
ATOM     16  C   UNL     1      47.131   8.973  19.394  0.00  0.00    +0.000 A 
ATOM     17  C   UNL     1      48.101   9.740  18.766  0.00  0.00    +0.000 A 
ATOM     18  C   UNL     1      49.358   9.892  19.346  0.00  0.00    +0.000 A 
ENDBRANCH  12  13
ENDBRANCH  11  12
ENDBRANCH   8  11
ENDBRANCH   7   8
ENDBRANCH   1   7
BRANCH   4  19
ATOM     19  C   UNL     1      47.515   3.478  16.718  0.00  0.00    +0.000 C 
BRANCH  19  20
ATOM     20  N   UNL     1      46.889   4.380  15.782  0.00  0.00    +0.000 N 
ATOM     21  C   UNL     1      46.853   4.114  14.441  0.00  0.00    +0.000 C 
ATOM     22  O   UNL     1      47.341   3.099  13.962  0.00  0.00    +0.000 OA
ATOM     23  H   UNL     1      46.705   5.327  16.102  0.00  0.00    +0.000 HD
BRANCH  21  24
ATOM     24  C   UNL     1      46.124   5.086  13.615  0.00  0.00    +0.000 A 
ATOM     25  C   UNL     1      44.937   4.714  13.005  0.00  0.00    +0.000 A 
ATOM     26  S   UNL     1      44.192   5.976  12.131  0.00  0.00    +0.000 S 
ATOM     27  C   UNL     1      45.461   7.055  12.493  0.00  0.00    +0.000 A 
ATOM     28  N   UNL     1      45.462   8.324  12.013  0.00  0.00    +0.000 NA
ATOM     29  C   UNL     1      46.496   9.020  12.344  0.00  0.00    +0.000 A 
ATOM     30  N   UNL     1      47.526   8.571  13.120  0.00  0.00    +0.000 N 
ATOM     31  C   UNL     1      47.554   7.300  13.662  0.00  0.00    +0.000 A 
ATOM     32  O   UNL     1      48.463   6.935  14.395  0.00  0.00    +0.000 OA
ATOM     33  C   UNL     1      46.420   6.465  13.295  0.00  0.00    +0.000 A 
ATOM     34  H   UNL     1      48.309   9.165  13.359  0.00  0.00    +0.000 HD
ENDBRANCH  21  24
ENDBRANCH  19  20
ENDBRANCH   4  19
TORSDOF 8
ENDMDL
