MODEL 1
REMARK VINA RESULT:    -8.052      0.000      0.000
REMARK INTER + INTRA:         -10.163
REMARK INTER:                  -9.935
REMARK INTRA:                  -0.227
REMARK UNBOUND:                -0.227
REMARK  Name = 
REMARK  5 active torsions:
REMARK  status: ('A' for Active; 'I' for Inactive)
REMARK    1  A    between atoms: C_1  and  C_2
REMARK    2  A    between atoms: C_5  and  N_6
REMARK    3  A    between atoms: N_6  and  C_7
REMARK    4  A    between atoms: C_7  and  C_8
REMARK    5  A    between atoms: C_12  and  C_13
REMARK                            x       y       z     vdW  Elec       q    Type
REMARK                         _______ _______ _______ _____ _____    ______ ____
ROOT
ATOM      1  C   UNL     1      44.004   4.867  11.144  0.00  0.00    +0.000 C 
ATOM      2  C   UNL     1      43.232   3.880  12.018  0.00  0.00    +0.000 C 
ATOM      3  C   UNL     1      42.815   5.311  11.980  0.00  0.00    +0.000 C 
ENDROOT
BRANCH   1   4
ATOM      4  C   UNL     1      45.355   5.381  11.634  0.00  0.00    +0.000 A 
ATOM      5  C   UNL     1      45.994   6.444  10.979  0.00  0.00    +0.000 A 
ATOM      6  C   UNL     1      47.105   7.070  11.536  0.00  0.00    +0.000 A 
ATOM      7  C   UNL     1      47.600   6.641  12.767  0.00  0.00    +0.000 A 
ATOM      8  C   UNL     1      47.023   5.553  13.443  0.00  0.00    +0.000 A 
ATOM      9  C   UNL     1      45.933   4.910  12.828  0.00  0.00    +0.000 A 
BRANCH   8  10
ATOM     10  C   UNL     1      47.470   5.159  14.796  0.00  0.00    +0.000 A 
ATOM     11  C   UNL     1      48.323   5.990  15.537  0.00  0.00    +0.000 A 
ATOM     12  C   UNL     1      48.686   5.615  16.825  0.00  0.00    +0.000 A 
ATOM     13  N   UNL     1      48.265   4.487  17.430  0.00  0.00    +0.000 NA
ATOM     14  C   UNL     1      47.437   3.702  16.712  0.00  0.00    +0.000 A 
ATOM     15  C   UNL     1      47.022   3.987  15.417  0.00  0.00    +0.000 A 
ENDBRANCH   8  10
ENDBRANCH   1   4
BRANCH   1  16
ATOM     16  N   UNL     1      43.922   4.582   9.705  0.00  0.00    +0.000 N 
ATOM     17  H   UNL     1      42.985   4.339   9.384  0.00  0.00    +0.000 HD
BRANCH  16  22
ATOM     18  C   UNL     1      47.401   1.152   6.913  0.00  0.00    +0.000 C 
ATOM     19  C   UNL     1      46.533   2.097   7.680  0.00  0.00    +0.000 A 
ATOM     20  C   UNL     1      46.451   3.452   7.367  0.00  0.00    +0.000 A 
ATOM     21  N   UNL     1      45.624   4.323   8.007  0.00  0.00    +0.000 NA
ATOM     22  C   UNL     1      44.876   3.812   9.009  0.00  0.00    +0.000 A 
ATOM     23  C   UNL     1      44.979   2.450   9.318  0.00  0.00    +0.000 A 
ATOM     24  N   UNL     1      45.795   1.574   8.683  0.00  0.00    +0.000 NA
ENDBRANCH  16  22
ENDBRANCH   1  16
TORSDOF 4
ENDMDL
MODEL 2
REMARK VINA RESULT:    -7.764      2.205      3.649
REMARK INTER + INTRA:          -9.807
REMARK INTER:                  -9.109
REMARK INTRA:                  -0.697
REMARK UNBOUND:                -0.227
REMARK  Name = 
REMARK  5 active torsions:
REMARK  status: ('A' for Active; 'I' for Inactive)
REMARK    1  A    between atoms: C_1  and  C_2
REMARK    2  A    between atoms: C_5  and  N_6
REMARK    3  A    between atoms: N_6  and  C_7
REMARK    4  A    between atoms: C_7  and  C_8
REMARK    5  A    between atoms: C_12  and  C_13
REMARK                            x       y       z     vdW  Elec       q    Type
REMARK                         _______ _______ _______ _____ _____    ______ ____
ROOT
ATOM      1  C   UNL     1      43.816   4.943  11.556  0.00  0.00    +0.000 C 
ATOM      2  C   UNL     1      42.471   5.358  12.148  0.00  0.00    +0.000 C 
ATOM      3  C   UNL     1      43.064   6.159  11.040  0.00  0.00    +0.000 C 
ENDROOT
BRANCH   1   4
ATOM      4  C   UNL     1      45.091   5.263  12.332  0.00  0.00    +0.000 A 
ATOM      5  C   UNL     1      45.650   4.319  13.205  0.00  0.00    +0.000 A 
ATOM      6  C   UNL     1      46.919   4.500  13.746  0.00  0.00    +0.000 A 
ATOM      7  C   UNL     1      47.657   5.637  13.419  0.00  0.00    +0.000 A 
ATOM      8  C   UNL     1      47.126   6.634  12.584  0.00  0.00    +0.000 A 
ATOM      9  C   UNL     1      45.820   6.444  12.095  0.00  0.00    +0.000 A 
BRANCH   8  10
ATOM     10  C   UNL     1      47.938   7.789  12.145  0.00  0.00    +0.000 A 
ATOM     11  C   UNL     1      47.396   9.083  12.141  0.00  0.00    +0.000 A 
ATOM     12  C   UNL     1      48.199  10.154  11.769  0.00  0.00    +0.000 A 
ATOM     13  N   UNL     1      49.492  10.039  11.408  0.00  0.00    +0.000 NA
ATOM     14  C   UNL     1      50.005   8.791  11.426  0.00  0.00    +0.000 A 
ATOM     15  C   UNL     1      49.282   7.658  11.777  0.00  0.00    +0.000 A 
ENDBRANCH   8  10
ENDBRANCH   1   4
BRANCH   1  16
ATOM     16  N   UNL     1      43.796   3.635  10.889  0.00  0.00    +0.000 N 
ATOM     17  H   UNL     1      43.801   2.842  11.531  0.00  0.00    +0.000 HD
BRANCH  16  22
ATOM     18  C   UNL     1      47.155   2.808   6.451  0.00  0.00    +0.000 C 
ATOM     19  C   UNL     1      46.213   2.991   7.597  0.00  0.00    +0.000 A 
ATOM     20  C   UNL     1      45.801   1.928   8.397  0.00  0.00    +0.000 A 
ATOM     21  N   UNL     1      44.993   2.073   9.483  0.00  0.00    +0.000 NA
ATOM     22  C   UNL     1      44.573   3.328   9.753  0.00  0.00    +0.000 A 
ATOM     23  C   UNL     1      44.987   4.384   8.931  0.00  0.00    +0.000 A 
ATOM     24  N   UNL     1      45.795   4.250   7.851  0.00  0.00    +0.000 NA
ENDBRANCH  16  22
ENDBRANCH   1  16
TORSDOF 4
ENDMDL
MODEL 3
REMARK VINA RESULT:    -7.436      1.644      6.922
REMARK INTER + INTRA:          -9.402
REMARK INTER:                  -8.848
REMARK INTRA:                  -0.554
REMARK UNBOUND:                -0.227
REMARK  Name = 
REMARK  5 active torsions:
REMARK  status: ('A' for Active; 'I' for Inactive)
REMARK    1  A    between atoms: C_1  and  C_2
REMARK    2  A    between atoms: C_5  and  N_6
REMARK    3  A    between atoms: N_6  and  C_7
REMARK    4  A    between atoms: C_7  and  C_8
REMARK    5  A    between atoms: C_12  and  C_13
REMARK                            x       y       z     vdW  Elec       q    Type
REMARK                         _______ _______ _______ _____ _____    ______ ____
ROOT
ATOM      1  C   UNL     1      46.535   7.166  12.651  0.00  0.00    +0.000 C 
ATOM      2  C   UNL     1      46.840   8.530  12.035  0.00  0.00    +0.000 C 
ATOM      3  C   UNL     1      45.968   8.447  13.242  0.00  0.00    +0.000 C 
ENDROOT
BRANCH   1   4
ATOM      4  C   UNL     1      45.505   6.267  11.972  0.00  0.00    +0.000 A 
ATOM      5  C   UNL     1      44.133   6.517  12.119  0.00  0.00    +0.000 A 
ATOM      6  C   UNL     1      43.192   5.854  11.336  0.00  0.00    +0.000 A 
ATOM      7  C   UNL     1      43.611   4.925  10.384  0.00  0.00    +0.000 A 
ATOM      8  C   UNL     1      44.970   4.607  10.227  0.00  0.00    +0.000 A 
ATOM      9  C   UNL     1      45.891   5.257  11.070  0.00  0.00    +0.000 A 
BRANCH   8  10
ATOM     10  C   UNL     1      45.434   3.706   9.151  0.00  0.00    +0.000 A 
ATOM     11  C   UNL     1      45.986   4.227   7.971  0.00  0.00    +0.000 A 
ATOM     12  C   UNL     1      46.457   3.353   6.999  0.00  0.00    +0.000 A 
ATOM     13  N   UNL     1      46.427   2.011   7.111  0.00  0.00    +0.000 NA
ATOM     14  C   UNL     1      45.905   1.523   8.254  0.00  0.00    +0.000 A 
ATOM     15  C   UNL     1      45.403   2.312   9.281  0.00  0.00    +0.000 A 
ENDBRANCH   8  10
ENDBRANCH   1   4
BRANCH   1  16
ATOM     16  N   UNL     1      47.714   6.477  13.191  0.00  0.00    +0.000 N 
ATOM     17  H   UNL     1      48.264   5.985  12.487  0.00  0.00    +0.000 HD
BRANCH  16  22
ATOM     18  C   UNL     1      47.676   3.106  17.696  0.00  0.00    +0.000 C 
ATOM     19  C   UNL     1      47.655   4.051  16.538  0.00  0.00    +0.000 A 
ATOM     20  C   UNL     1      48.412   5.220  16.518  0.00  0.00    +0.000 A 
ATOM     21  N   UNL     1      48.460   6.067  15.454  0.00  0.00    +0.000 NA
ATOM     22  C   UNL     1      47.702   5.733  14.388  0.00  0.00    +0.000 A 
ATOM     23  C   UNL     1      46.937   4.560  14.428  0.00  0.00    +0.000 A 
ATOM     24  N   UNL     1      46.887   3.708  15.481  0.00  0.00    +0.000 NA
ENDBRANCH  16  22
ENDBRANCH   1  16
TORSDOF 4
ENDMDL
MODEL 4
REMARK VINA RESULT:    -7.069      3.426      7.143
REMARK INTER + INTRA:          -8.950
REMARK INTER:                  -8.112
REMARK INTRA:                  -0.838
REMARK UNBOUND:                -0.227
REMARK  Name = 
REMARK  5 active torsions:
REMARK  status: ('A' for Active; 'I' for Inactive)
REMARK    1  A    between atoms: C_1  and  C_2
REMARK    2  A    between atoms: C_5  and  N_6
REMARK    3  A    between atoms: N_6  and  C_7
REMARK    4  A    between atoms: C_7  and  C_8
REMARK    5  A    between atoms: C_12  and  C_13
REMARK                            x       y       z     vdW  Elec       q    Type
REMARK                         _______ _______ _______ _____ _____    ______ ____
ROOT
ATOM      1  C   UNL     1      45.603   7.752  12.368  0.00  0.00    +0.000 C 
ATOM      2  C   UNL     1      46.748   7.699  13.378  0.00  0.00    +0.000 C 
ATOM      3  C   UNL     1      47.054   7.846  11.926  0.00  0.00    +0.000 C 
ENDROOT
BRANCH   1   4
ATOM      4  C   UNL     1      44.901   6.453  11.983  0.00  0.00    +0.000 A 
ATOM      5  C   UNL     1      43.607   6.176  12.448  0.00  0.00    +0.000 A 
ATOM      6  C   UNL     1      42.868   5.114  11.934  0.00  0.00    +0.000 A 
ATOM      7  C   UNL     1      43.415   4.306  10.938  0.00  0.00    +0.000 A 
ATOM      8  C   UNL     1      44.722   4.513  10.469  0.00  0.00    +0.000 A 
ATOM      9  C   UNL     1      45.460   5.564  11.046  0.00  0.00    +0.000 A 
BRANCH   8  10
ATOM     10  C   UNL     1      45.272   3.733   9.340  0.00  0.00    +0.000 A 
ATOM     11  C   UNL     1      45.851   4.380   8.238  0.00  0.00    +0.000 A 
ATOM     12  C   UNL     1      46.402   3.617   7.216  0.00  0.00    +0.000 A 
ATOM     13  N   UNL     1      46.426   2.270   7.207  0.00  0.00    +0.000 NA
ATOM     14  C   UNL     1      45.877   1.660   8.277  0.00  0.00    +0.000 A 
ATOM     15  C   UNL     1      45.297   2.333   9.345  0.00  0.00    +0.000 A 
ENDBRANCH   8  10
ENDBRANCH   1   4
BRANCH   1  16
ATOM     16  N   UNL     1      44.725   8.920  12.522  0.00  0.00    +0.000 N 
ATOM     17  H   UNL     1      43.874   8.732  13.052  0.00  0.00    +0.000 HD
BRANCH  16  22
ATOM     18  C   UNL     1      43.125  12.483   8.471  0.00  0.00    +0.000 C 
ATOM     19  C   UNL     1      43.608  11.522   9.510  0.00  0.00    +0.000 A 
ATOM     20  C   UNL     1      44.743  11.767  10.279  0.00  0.00    +0.000 A 
ATOM     21  N   UNL     1      45.171  10.941  11.272  0.00  0.00    +0.000 NA
ATOM     22  C   UNL     1      44.442   9.824  11.478  0.00  0.00    +0.000 A 
ATOM     23  C   UNL     1      43.309   9.587  10.689  0.00  0.00    +0.000 A 
ATOM     24  N   UNL     1      42.872  10.406   9.701  0.00  0.00    +0.000 NA
ENDBRANCH  16  22
ENDBRANCH   1  16
TORSDOF 4
ENDMDL
MODEL 5
REMARK VINA RESULT:    -6.657      2.187      7.584
REMARK INTER + INTRA:          -8.441
REMARK INTER:                  -7.625
REMARK INTRA:                  -0.816
REMARK UNBOUND:                -0.227
REMARK  Name = 
REMARK  5 active torsions:
REMARK  status: ('A' for Active; 'I' for Inactive)
REMARK    1  A    between atoms: C_1  and  C_2
REMARK    2  A    between atoms: C_5  and  N_6
REMARK    3  A    between atoms: N_6  and  C_7
REMARK    4  A    between atoms: C_7  and  C_8
REMARK    5  A    between atoms: C_12  and  C_13
REMARK                            x       y       z     vdW  Elec       q    Type
REMARK                         _______ _______ _______ _____ _____    ______ ____
ROOT
ATOM      1  C   UNL     1      49.000   7.910  12.645  0.00  0.00    +0.000 C 
ATOM      2  C   UNL     1      49.828   8.233  11.402  0.00  0.00    +0.000 C 
ATOM      3  C   UNL     1      49.453   9.328  12.342  0.00  0.00    +0.000 C 
ENDROOT
BRANCH   1   4
ATOM      4  C   UNL     1      47.501   7.672  12.487  0.00  0.00    +0.000 A 
ATOM      5  C   UNL     1      46.583   8.692  12.772  0.00  0.00    +0.000 A 
ATOM      6  C   UNL     1      45.240   8.573  12.425  0.00  0.00    +0.000 A 
ATOM      7  C   UNL     1      44.790   7.421  11.779  0.00  0.00    +0.000 A 
ATOM      8  C   UNL     1      45.660   6.352  11.509  0.00  0.00    +0.000 A 
ATOM      9  C   UNL     1      46.999   6.485  11.919  0.00  0.00    +0.000 A 
BRANCH   8  10
ATOM     10  C   UNL     1      45.220   5.175  10.731  0.00  0.00    +0.000 A 
ATOM     11  C   UNL     1      45.552   5.050   9.374  0.00  0.00    +0.000 A 
ATOM     12  C   UNL     1      45.164   3.909   8.682  0.00  0.00    +0.000 A 
ATOM     13  N   UNL     1      44.481   2.887   9.233  0.00  0.00    +0.000 NA
ATOM     14  C   UNL     1      44.177   3.014  10.541  0.00  0.00    +0.000 A 
ATOM     15  C   UNL     1      44.514   4.116  11.316  0.00  0.00    +0.000 A 
ENDBRANCH   8  10
ENDBRANCH   1   4
BRANCH   1  16
ATOM     16  N   UNL     1      49.680   7.028  13.603  0.00  0.00    +0.000 N 
ATOM     17  H   UNL     1      49.881   6.097  13.239  0.00  0.00    +0.000 HD
BRANCH  16  22
ATOM     18  C   UNL     1      48.028   7.085  18.981  0.00  0.00    +0.000 C 
ATOM     19  C   UNL     1      48.523   7.031  17.571  0.00  0.00    +0.000 A 
ATOM     20  C   UNL     1      48.544   5.848  16.836  0.00  0.00    +0.000 A 
ATOM     21  N   UNL     1      48.930   5.780  15.533  0.00  0.00    +0.000 NA
ATOM     22  C   UNL     1      49.328   6.938  14.964  0.00  0.00    +0.000 A 
ATOM     23  C   UNL     1      49.311   8.117  15.721  0.00  0.00    +0.000 A 
ATOM     24  N   UNL     1      48.923   8.196  17.018  0.00  0.00    +0.000 NA
ENDBRANCH  16  22
ENDBRANCH   1  16
TORSDOF 4
ENDMDL
MODEL 6
REMARK VINA RESULT:    -6.272      2.893      4.670
REMARK INTER + INTRA:          -7.966
REMARK INTER:                  -7.331
REMARK INTRA:                  -0.635
REMARK UNBOUND:                -0.227
REMARK  Name = 
REMARK  5 active torsions:
REMARK  status: ('A' for Active; 'I' for Inactive)
REMARK    1  A    between atoms: C_1  and  C_2
REMARK    2  A    between atoms: C_5  and  N_6
REMARK    3  A    between atoms: N_6  and  C_7
REMARK    4  A    between atoms: C_7  and  C_8
REMARK    5  A    between atoms: C_12  and  C_13
REMARK                            x       y       z     vdW  Elec       q    Type
REMARK                         _______ _______ _______ _____ _____    ______ ____
ROOT
ATOM      1  C   UNL     1      47.333   8.018  13.048  0.00  0.00    +0.000 C 
ATOM      2  C   UNL     1      47.741   9.125  12.079  0.00  0.00    +0.000 C 
ATOM      3  C   UNL     1      48.209   7.729  11.840  0.00  0.00    +0.000 C 
ENDROOT
BRANCH   1   4
ATOM      4  C   UNL     1      48.049   7.919  14.393  0.00  0.00    +0.000 A 
ATOM      5  C   UNL     1      48.161   9.042  15.226  0.00  0.00    +0.000 A 
ATOM      6  C   UNL     1      48.606   8.924  16.539  0.00  0.00    +0.000 A 
ATOM      7  C   UNL     1      48.948   7.670  17.047  0.00  0.00    +0.000 A 
ATOM      8  C   UNL     1      48.894   6.520  16.241  0.00  0.00    +0.000 A 
ATOM      9  C   UNL     1      48.489   6.683  14.904  0.00  0.00    +0.000 A 
BRANCH   8  10
ATOM     10  C   UNL     1      49.150   5.175  16.798  0.00  0.00    +0.000 A 
ATOM     11  C   UNL     1      48.163   4.179  16.739  0.00  0.00    +0.000 A 
ATOM     12  C   UNL     1      48.451   2.910  17.227  0.00  0.00    +0.000 A 
ATOM     13  N   UNL     1      49.637   2.556  17.760  0.00  0.00    +0.000 NA
ATOM     14  C   UNL     1      50.580   3.519  17.800  0.00  0.00    +0.000 A 
ATOM     15  C   UNL     1      50.388   4.817  17.344  0.00  0.00    +0.000 A 
ENDBRANCH   8  10
ENDBRANCH   1   4
BRANCH   1  16
ATOM     16  N   UNL     1      45.889   7.757  13.084  0.00  0.00    +0.000 N 
ATOM     17  H   UNL     1      45.435   8.055  13.947  0.00  0.00    +0.000 HD
BRANCH  16  22
ATOM     18  C   UNL     1      43.427   2.880  11.735  0.00  0.00    +0.000 C 
ATOM     19  C   UNL     1      44.121   4.170  12.035  0.00  0.00    +0.000 A 
ATOM     20  C   UNL     1      43.975   5.297  11.232  0.00  0.00    +0.000 A 
ATOM     21  N   UNL     1      44.545   6.501  11.514  0.00  0.00    +0.000 NA
ATOM     22  C   UNL     1      45.302   6.558  12.630  0.00  0.00    +0.000 A 
ATOM     23  C   UNL     1      45.448   5.411  13.422  0.00  0.00    +0.000 A 
ATOM     24  N   UNL     1      44.880   4.210  13.151  0.00  0.00    +0.000 NA
ENDBRANCH  16  22
ENDBRANCH   1  16
TORSDOF 4
ENDMDL
MODEL 7
REMARK VINA RESULT:    -6.131      1.835      7.858
REMARK INTER + INTRA:          -7.792
REMARK INTER:                  -7.538
REMARK INTRA:                  -0.254
REMARK UNBOUND:                -0.227
REMARK  Name = 
REMARK  5 active torsions:
REMARK  status: ('A' for Active; 'I' for Inactive)
REMARK    1  A    between atoms: C_1  and  C_2
REMARK    2  A    between atoms: C_5  and  N_6
REMARK    3  A    between atoms: N_6  and  C_7
REMARK    4  A    between atoms: C_7  and  C_8
REMARK    5  A    between atoms: C_12  and  C_13
REMARK                            x       y       z     vdW  Elec       q    Type
REMARK                         _______ _______ _______ _____ _____    ______ ____
ROOT
ATOM      1  C   UNL     1      48.014   6.855  14.396  0.00  0.00    +0.000 C 
ATOM      2  C   UNL     1      49.403   7.281  13.925  0.00  0.00    +0.000 C 
ATOM      3  C   UNL     1      48.637   8.164  14.850  0.00  0.00    +0.000 C 
ENDROOT
BRANCH   1   4
ATOM      4  C   UNL     1      46.835   7.008  13.438  0.00  0.00    +0.000 A 
ATOM      5  C   UNL     1      46.256   8.265  13.215  0.00  0.00    +0.000 A 
ATOM      6  C   UNL     1      45.338   8.464  12.188  0.00  0.00    +0.000 A 
ATOM      7  C   UNL     1      44.980   7.400  11.361  0.00  0.00    +0.000 A 
ATOM      8  C   UNL     1      45.498   6.111  11.569  0.00  0.00    +0.000 A 
ATOM      9  C   UNL     1      46.384   5.934  12.647  0.00  0.00    +0.000 A 
BRANCH   8  10
ATOM     10  C   UNL     1      45.210   5.002  10.635  0.00  0.00    +0.000 A 
ATOM     11  C   UNL     1      44.482   3.880  11.059  0.00  0.00    +0.000 A 
ATOM     12  C   UNL     1      44.187   2.877  10.144  0.00  0.00    +0.000 A 
ATOM     13  N   UNL     1      44.553   2.905   8.848  0.00  0.00    +0.000 NA
ATOM     14  C   UNL     1      45.243   3.993   8.450  0.00  0.00    +0.000 A 
ATOM     15  C   UNL     1      45.591   5.045   9.288  0.00  0.00    +0.000 A 
ENDBRANCH   8  10
ENDBRANCH   1   4
BRANCH   1  16
ATOM     16  N   UNL     1      48.008   5.633  15.211  0.00  0.00    +0.000 N 
ATOM     17  H   UNL     1      47.117   5.138  15.209  0.00  0.00    +0.000 HD
BRANCH  16  22
ATOM     18  C   UNL     1      49.970   5.014  20.449  0.00  0.00    +0.000 C 
ATOM     19  C   UNL     1      49.484   5.239  19.053  0.00  0.00    +0.000 A 
ATOM     20  C   UNL     1      50.340   5.212  17.955  0.00  0.00    +0.000 A 
ATOM     21  N   UNL     1      49.917   5.352  16.668  0.00  0.00    +0.000 NA
ATOM     22  C   UNL     1      48.593   5.549  16.491  0.00  0.00    +0.000 A 
ATOM     23  C   UNL     1      47.747   5.585  17.607  0.00  0.00    +0.000 A 
ATOM     24  N   UNL     1      48.159   5.441  18.891  0.00  0.00    +0.000 NA
ENDBRANCH  16  22
ENDBRANCH   1  16
TORSDOF 4
ENDMDL
MODEL 8
REMARK VINA RESULT:    -5.774      4.111      6.964
REMARK INTER + INTRA:          -7.352
REMARK INTER:                  -7.230
REMARK INTRA:                  -0.122
REMARK UNBOUND:                -0.227
REMARK  Name = 
REMARK  5 active torsions:
REMARK  status: ('A' for Active; 'I' for Inactive)
REMARK    1  A    between atoms: C_1  and  C_2
REMARK    2  A    between atoms: C_5  and  N_6
REMARK    3  A    between atoms: N_6  and  C_7
REMARK    4  A    between atoms: C_7  and  C_8
REMARK    5  A    between atoms: C_12  and  C_13
REMARK                            x       y       z     vdW  Elec       q    Type
REMARK                         _______ _______ _______ _____ _____    ______ ____
ROOT
ATOM      1  C   UNL     1      47.376   8.103  12.704  0.00  0.00    +0.000 C 
ATOM      2  C   UNL     1      48.213   7.254  11.750  0.00  0.00    +0.000 C 
ATOM      3  C   UNL     1      48.880   7.967  12.877  0.00  0.00    +0.000 C 
ENDROOT
BRANCH   1   4
ATOM      4  C   UNL     1      46.910   9.482  12.243  0.00  0.00    +0.000 A 
ATOM      5  C   UNL     1      47.839  10.448  11.831  0.00  0.00    +0.000 A 
ATOM      6  C   UNL     1      47.429  11.619  11.201  0.00  0.00    +0.000 A 
ATOM      7  C   UNL     1      46.073  11.846  10.970  0.00  0.00    +0.000 A 
ATOM      8  C   UNL     1      45.099  10.930  11.401  0.00  0.00    +0.000 A 
ATOM      9  C   UNL     1      45.544   9.781  12.080  0.00  0.00    +0.000 A 
BRANCH   8  10
ATOM     10  C   UNL     1      43.670  11.107  11.067  0.00  0.00    +0.000 A 
ATOM     11  C   UNL     1      43.114  12.390  10.963  0.00  0.00    +0.000 A 
ATOM     12  C   UNL     1      41.779  12.524  10.600  0.00  0.00    +0.000 A 
ATOM     13  N   UNL     1      40.962  11.488  10.330  0.00  0.00    +0.000 NA
ATOM     14  C   UNL     1      41.511  10.260  10.423  0.00  0.00    +0.000 A 
ATOM     15  C   UNL     1      42.831  10.022  10.783  0.00  0.00    +0.000 A 
ENDBRANCH   8  10
ENDBRANCH   1   4
BRANCH   1  16
ATOM     16  N   UNL     1      46.397   7.336  13.484  0.00  0.00    +0.000 N 
ATOM     17  H   UNL     1      46.707   7.107  14.428  0.00  0.00    +0.000 HD
BRANCH  16  22
ATOM     18  C   UNL     1      43.389   2.874  11.836  0.00  0.00    +0.000 C 
ATOM     19  C   UNL     1      44.215   4.063  12.209  0.00  0.00    +0.000 A 
ATOM     20  C   UNL     1      43.985   5.327  11.671  0.00  0.00    +0.000 A 
ATOM     21  N   UNL     1      44.680   6.439  12.036  0.00  0.00    +0.000 NA
ATOM     22  C   UNL     1      45.651   6.261  12.958  0.00  0.00    +0.000 A 
ATOM     23  C   UNL     1      45.878   4.981  13.482  0.00  0.00    +0.000 A 
ATOM     24  N   UNL     1      45.187   3.870  13.127  0.00  0.00    +0.000 NA
ENDBRANCH  16  22
ENDBRANCH   1  16
TORSDOF 4
ENDMDL
MODEL 9
REMARK VINA RESULT:    -5.467      3.309      7.587
REMARK INTER + INTRA:          -6.973
REMARK INTER:                  -6.177
REMARK INTRA:                  -0.796
REMARK UNBOUND:                -0.227
REMARK  Name = 
REMARK  5 active torsions:
REMARK  status: ('A' for Active; 'I' for Inactive)
REMARK    1  A    between atoms: C_1  and  C_2
REMARK    2  A    between atoms: C_5  and  N_6
REMARK    3  A    between atoms: N_6  and  C_7
REMARK    4  A    between atoms: C_7  and  C_8
REMARK    5  A    between atoms: C_12  and  C_13
REMARK                            x       y       z     vdW  Elec       q    Type
REMARK                         _______ _______ _______ _____ _____    ______ ____
ROOT
ATOM      1  C   UNL     1      49.120   8.151  15.199  0.00  0.00    +0.000 C 
ATOM      2  C   UNL     1      49.522   9.575  15.578  0.00  0.00    +0.000 C 
ATOM      3  C   UNL     1      48.253   9.004  16.111  0.00  0.00    +0.000 C 
ENDROOT
BRANCH   1   4
ATOM      4  C   UNL     1      48.532   7.899  13.813  0.00  0.00    +0.000 A 
ATOM      5  C   UNL     1      49.332   8.012  12.668  0.00  0.00    +0.000 A 
ATOM      6  C   UNL     1      48.881   7.572  11.427  0.00  0.00    +0.000 A 
ATOM      7  C   UNL     1      47.612   7.006  11.310  0.00  0.00    +0.000 A 
ATOM      8  C   UNL     1      46.754   6.908  12.418  0.00  0.00    +0.000 A 
ATOM      9  C   UNL     1      47.222   7.409  13.647  0.00  0.00    +0.000 A 
BRANCH   8  10
ATOM     10  C   UNL     1      45.452   6.214  12.330  0.00  0.00    +0.000 A 
ATOM     11  C   UNL     1      45.137   5.172  13.215  0.00  0.00    +0.000 A 
ATOM     12  C   UNL     1      43.887   4.571  13.137  0.00  0.00    +0.000 A 
ATOM     13  N   UNL     1      42.930   4.927  12.258  0.00  0.00    +0.000 NA
ATOM     14  C   UNL     1      43.241   5.938  11.421  0.00  0.00    +0.000 A 
ATOM     15  C   UNL     1      44.463   6.597  11.416  0.00  0.00    +0.000 A 
ENDBRANCH   8  10
ENDBRANCH   1   4
BRANCH   1  16
ATOM     16  N   UNL     1      50.042   7.119  15.690  0.00  0.00    +0.000 N 
ATOM     17  H   UNL     1      50.686   6.768  14.981  0.00  0.00    +0.000 HD
BRANCH  16  22
ATOM     18  C   UNL     1      48.446   3.226  19.426  0.00  0.00    +0.000 C 
ATOM     19  C   UNL     1      48.901   4.209  18.396  0.00  0.00    +0.000 A 
ATOM     20  C   UNL     1      48.407   4.204  17.094  0.00  0.00    +0.000 A 
ATOM     21  N   UNL     1      48.756   5.124  16.154  0.00  0.00    +0.000 NA
ATOM     22  C   UNL     1      49.649   6.062  16.536  0.00  0.00    +0.000 A 
ATOM     23  C   UNL     1      50.146   6.046  17.846  0.00  0.00    +0.000 A 
ATOM     24  N   UNL     1      49.799   5.137  18.791  0.00  0.00    +0.000 NA
ENDBRANCH  16  22
ENDBRANCH   1  16
TORSDOF 4
ENDMDL
