MODEL 1
REMARK VINA RESULT:    -7.188      0.000      0.000
REMARK INTER + INTRA:         -11.088
REMARK INTER:                 -10.130
REMARK INTRA:                  -0.958
REMARK UNBOUND:                -0.958
REMARK  Name = 
REMARK  9 active torsions:
REMARK  status: ('A' for Active; 'I' for Inactive)
REMARK    1  A    between atoms: C_1  and  C_2
REMARK    2  A    between atoms: C_2  and  N_3
REMARK    3  A    between atoms: N_3  and  C_4
REMARK    4  A    between atoms: C_7  and  C_8
REMARK    5  A    between atoms: C_12  and  C_13
REMARK    6  A    between atoms: C_14  and  C_15
REMARK    7  A    between atoms: C_15  and  O_16
REMARK    8  A    between atoms: O_16  and  C_17
REMARK    9  A    between atoms: C_21  and  C_22
REMARK                            x       y       z     vdW  Elec       q    Type
REMARK                         _______ _______ _______ _____ _____    ______ ____
ROOT
ATOM      1  C   UNL     1      47.519   6.347  13.332  0.00  0.00    +0.000 A 
ATOM      2  N   UNL     1      48.267   6.554  14.441  0.00  0.00    +0.000 NA
ATOM      3  C   UNL     1      48.223   5.629  15.433  0.00  0.00    +0.000 A 
ATOM      4  C   UNL     1      47.454   4.482  15.395  0.00  0.00    +0.000 A 
ATOM      5  C   UNL     1      46.665   4.286  14.265  0.00  0.00    +0.000 A 
ATOM      6  C   UNL     1      46.687   5.212  13.211  0.00  0.00    +0.000 A 
ENDROOT
BRANCH   4   7
ATOM      7  C   UNL     1      47.434   3.454  16.469  0.00  0.00    +0.000 C 
ATOM      8  N   UNL     1      48.460   2.565  16.563  0.00  0.00    +0.000 N 
ATOM      9  O   UNL     1      46.499   3.388  17.260  0.00  0.00    +0.000 OA
ATOM     10  H   UNL     1      49.271   2.520  15.962  0.00  0.00    +0.000 HD
ATOM     11  H   UNL     1      48.392   1.878  17.302  0.00  0.00    +0.000 HD
ENDBRANCH   4   7
BRANCH   1  12
ATOM     12  N   UNL     1      47.528   7.329  12.315  0.00  0.00    +0.000 N 
ATOM     13  H   UNL     1      48.465   7.399  11.930  0.00  0.00    +0.000 HD
BRANCH  12  15
ATOM     14  C   UNL     1      45.556   8.647  12.865  0.00  0.00    +0.000 C 
ATOM     15  C   UNL     1      47.075   8.641  12.772  0.00  0.00    +0.000 C 
ENDBRANCH  12  15
ENDBRANCH   1  12
BRANCH   6  16
ATOM     16  C   UNL     1      45.846   4.981  12.025  0.00  0.00    +0.000 C 
ATOM     17  C   UNL     1      44.557   4.607  12.068  0.00  0.00    +0.000 C 
BRANCH  17  18
ATOM     18  C   UNL     1      43.740   4.410  10.831  0.00  0.00    +0.000 C 
BRANCH  18  19
ATOM     19  O   UNL     1      44.016   3.113  10.309  0.00  0.00    +0.000 OA
BRANCH  19  20
ATOM     20  C   UNL     1      44.914   3.076   9.274  0.00  0.00    +0.000 A 
ATOM     21  C   UNL     1      45.344   4.183   8.540  0.00  0.00    +0.000 A 
ATOM     22  C   UNL     1      46.266   4.029   7.507  0.00  0.00    +0.000 A 
ATOM     23  C   UNL     1      46.764   2.766   7.197  0.00  0.00    +0.000 A 
ATOM     24  C   UNL     1      46.344   1.646   7.920  0.00  0.00    +0.000 A 
ATOM     25  C   UNL     1      46.872   0.281   7.593  0.00  0.00    +0.000 C 
ATOM     26  C   UNL     1      45.415   1.810   8.958  0.00  0.00    +0.000 A 
ENDBRANCH  19  20
ENDBRANCH  18  19
ENDBRANCH  17  18
ENDBRANCH   6  16
TORSDOF 7
ENDMDL
MODEL 2
REMARK VINA RESULT:    -7.079      1.912      3.778
REMARK INTER + INTRA:         -10.934
REMARK INTER:                  -9.991
REMARK INTRA:                  -0.942
REMARK UNBOUND:                -0.958
REMARK  Name = 
REMARK  9 active torsions:
REMARK  status: ('A' for Active; 'I' for Inactive)
REMARK    1  A    between atoms: C_1  and  C_2
REMARK    2  A    between atoms: C_2  and  N_3
REMARK    3  A    between atoms: N_3  and  C_4
REMARK    4  A    between atoms: C_7  and  C_8
REMARK    5  A    between atoms: C_12  and  C_13
REMARK    6  A    between atoms: C_14  and  C_15
REMARK    7  A    between atoms: C_15  and  O_16
REMARK    8  A    between atoms: O_16  and  C_17
REMARK    9  A    between atoms: C_21  and  C_22
REMARK                            x       y       z     vdW  Elec       q    Type
REMARK                         _______ _______ _______ _____ _____    ______ ____
ROOT
ATOM      1  C   UNL     1      47.332   4.699  14.627  0.00  0.00    +0.000 A 
ATOM      2  N   UNL     1      48.096   5.703  15.118  0.00  0.00    +0.000 NA
ATOM      3  C   UNL     1      48.107   6.890  14.459  0.00  0.00    +0.000 A 
ATOM      4  C   UNL     1      47.392   7.146  13.305  0.00  0.00    +0.000 A 
ATOM      5  C   UNL     1      46.629   6.103  12.789  0.00  0.00    +0.000 A 
ATOM      6  C   UNL     1      46.581   4.863  13.443  0.00  0.00    +0.000 A 
ENDROOT
BRANCH   4   7
ATOM      7  C   UNL     1      47.379   8.457  12.606  0.00  0.00    +0.000 C 
ATOM      8  N   UNL     1      46.420   9.372  12.914  0.00  0.00    +0.000 N 
ATOM      9  O   UNL     1      48.212   8.719  11.744  0.00  0.00    +0.000 OA
ATOM     10  H   UNL     1      45.682   9.259  13.595  0.00  0.00    +0.000 HD
ATOM     11  H   UNL     1      46.448  10.242  12.399  0.00  0.00    +0.000 HD
ENDBRANCH   4   7
BRANCH   1  12
ATOM     12  N   UNL     1      47.352   3.448  15.286  0.00  0.00    +0.000 N 
ATOM     13  H   UNL     1      46.546   2.906  14.992  0.00  0.00    +0.000 HD
BRANCH  12  15
ATOM     14  C   UNL     1      48.615   2.860  17.282  0.00  0.00    +0.000 C 
ATOM     15  C   UNL     1      47.376   3.560  16.743  0.00  0.00    +0.000 C 
ENDBRANCH  12  15
ENDBRANCH   1  12
BRANCH   6  16
ATOM     16  C   UNL     1      45.764   3.776  12.878  0.00  0.00    +0.000 C 
ATOM     17  C   UNL     1      44.531   3.936  12.370  0.00  0.00    +0.000 C 
BRANCH  17  18
ATOM     18  C   UNL     1      43.755   2.800  11.785  0.00  0.00    +0.000 C 
BRANCH  18  19
ATOM     19  O   UNL     1      43.355   3.158  10.465  0.00  0.00    +0.000 OA
BRANCH  19  20
ATOM     20  C   UNL     1      44.366   3.224   9.543  0.00  0.00    +0.000 A 
ATOM     21  C   UNL     1      44.859   4.399   8.970  0.00  0.00    +0.000 A 
ATOM     22  C   UNL     1      45.896   4.348   8.041  0.00  0.00    +0.000 A 
ATOM     23  C   UNL     1      46.448   3.123   7.675  0.00  0.00    +0.000 A 
ATOM     24  C   UNL     1      45.967   1.937   8.237  0.00  0.00    +0.000 A 
ATOM     25  C   UNL     1      46.553   0.612   7.848  0.00  0.00    +0.000 C 
ATOM     26  C   UNL     1      44.922   1.996   9.170  0.00  0.00    +0.000 A 
ENDBRANCH  19  20
ENDBRANCH  18  19
ENDBRANCH  17  18
ENDBRANCH   6  16
TORSDOF 7
ENDMDL
MODEL 3
REMARK VINA RESULT:    -6.684      1.478      1.995
REMARK INTER + INTRA:         -10.377
REMARK INTER:                  -9.614
REMARK INTRA:                  -0.764
REMARK UNBOUND:                -0.958
REMARK  Name = 
REMARK  9 active torsions:
REMARK  status: ('A' for Active; 'I' for Inactive)
REMARK    1  A    between atoms: C_1  and  C_2
REMARK    2  A    between atoms: C_2  and  N_3
REMARK    3  A    between atoms: N_3  and  C_4
REMARK    4  A    between atoms: C_7  and  C_8
REMARK    5  A    between atoms: C_12  and  C_13
REMARK    6  A    between atoms: C_14  and  C_15
REMARK    7  A    between atoms: C_15  and  O_16
REMARK    8  A    between atoms: O_16  and  C_17
REMARK    9  A    between atoms: C_21  and  C_22
REMARK                            x       y       z     vdW  Elec       q    Type
REMARK                         _______ _______ _______ _____ _____    ______ ____
ROOT
ATOM      1  C   UNL     1      48.122   6.457  14.243  0.00  0.00    +0.000 A 
ATOM      2  N   UNL     1      48.914   6.460  15.340  0.00  0.00    +0.000 NA
ATOM      3  C   UNL     1      48.730   5.492  16.275  0.00  0.00    +0.000 A 
ATOM      4  C   UNL     1      47.775   4.498  16.188  0.00  0.00    +0.000 A 
ATOM      5  C   UNL     1      46.944   4.514  15.071  0.00  0.00    +0.000 A 
ATOM      6  C   UNL     1      47.106   5.490  14.076  0.00  0.00    +0.000 A 
ENDROOT
BRANCH   4   7
ATOM      7  C   UNL     1      47.598   3.420  17.195  0.00  0.00    +0.000 C 
ATOM      8  N   UNL     1      48.684   2.944  17.864  0.00  0.00    +0.000 N 
ATOM      9  O   UNL     1      46.490   2.944  17.421  0.00  0.00    +0.000 OA
ATOM     10  H   UNL     1      49.639   3.252  17.751  0.00  0.00    +0.000 HD
ATOM     11  H   UNL     1      48.512   2.201  18.528  0.00  0.00    +0.000 HD
ENDBRANCH   4   7
BRANCH   1  12
ATOM     12  N   UNL     1      48.282   7.488  13.289  0.00  0.00    +0.000 N 
ATOM     13  H   UNL     1      47.435   7.559  12.733  0.00  0.00    +0.000 HD
BRANCH  12  15
ATOM     14  C   UNL     1      49.646   8.548  11.574  0.00  0.00    +0.000 C 
ATOM     15  C   UNL     1      49.439   7.298  12.417  0.00  0.00    +0.000 C 
ENDBRANCH  12  15
ENDBRANCH   1  12
BRANCH   6  16
ATOM     16  C   UNL     1      46.217   5.484  12.903  0.00  0.00    +0.000 C 
ATOM     17  C   UNL     1      44.878   5.559  12.962  0.00  0.00    +0.000 C 
BRANCH  17  18
ATOM     18  C   UNL     1      44.023   5.574  11.736  0.00  0.00    +0.000 C 
BRANCH  18  19
ATOM     19  O   UNL     1      44.872   5.622  10.593  0.00  0.00    +0.000 OA
BRANCH  19  20
ATOM     20  C   UNL     1      44.959   4.457   9.876  0.00  0.00    +0.000 A 
ATOM     21  C   UNL     1      44.363   3.245  10.233  0.00  0.00    +0.000 A 
ATOM     22  C   UNL     1      44.516   2.121   9.425  0.00  0.00    +0.000 A 
ATOM     23  C   UNL     1      45.268   2.197   8.255  0.00  0.00    +0.000 A 
ATOM     24  C   UNL     1      45.873   3.401   7.883  0.00  0.00    +0.000 A 
ATOM     25  C   UNL     1      46.686   3.493   6.627  0.00  0.00    +0.000 C 
ATOM     26  C   UNL     1      45.715   4.528   8.702  0.00  0.00    +0.000 A 
ENDBRANCH  19  20
ENDBRANCH  18  19
ENDBRANCH  17  18
ENDBRANCH   6  16
TORSDOF 7
ENDMDL
MODEL 4
REMARK VINA RESULT:    -6.618      2.695      4.576
REMARK INTER + INTRA:         -10.284
REMARK INTER:                  -9.308
REMARK INTRA:                  -0.976
REMARK UNBOUND:                -0.958
REMARK  Name = 
REMARK  9 active torsions:
REMARK  status: ('A' for Active; 'I' for Inactive)
REMARK    1  A    between atoms: C_1  and  C_2
REMARK    2  A    between atoms: C_2  and  N_3
REMARK    3  A    between atoms: N_3  and  C_4
REMARK    4  A    between atoms: C_7  and  C_8
REMARK    5  A    between atoms: C_12  and  C_13
REMARK    6  A    between atoms: C_14  and  C_15
REMARK    7  A    between atoms: C_15  and  O_16
REMARK    8  A    between atoms: O_16  and  C_17
REMARK    9  A    between atoms: C_21  and  C_22
REMARK                            x       y       z     vdW  Elec       q    Type
REMARK                         _______ _______ _______ _____ _____    ______ ____
ROOT
ATOM      1  C   UNL     1      46.456   7.570  12.686  0.00  0.00    +0.000 A 
ATOM      2  N   UNL     1      46.437   8.897  12.956  0.00  0.00    +0.000 NA
ATOM      3  C   UNL     1      45.484   9.664  12.368  0.00  0.00    +0.000 A 
ATOM      4  C   UNL     1      44.527   9.182  11.496  0.00  0.00    +0.000 A 
ATOM      5  C   UNL     1      44.567   7.823  11.200  0.00  0.00    +0.000 A 
ATOM      6  C   UNL     1      45.529   6.991  11.793  0.00  0.00    +0.000 A 
ENDROOT
BRANCH   4   7
ATOM      7  C   UNL     1      43.464  10.018  10.880  0.00  0.00    +0.000 C 
ATOM      8  N   UNL     1      42.387  10.389  11.625  0.00  0.00    +0.000 N 
ATOM      9  O   UNL     1      43.537  10.365   9.705  0.00  0.00    +0.000 OA
ATOM     10  H   UNL     1      42.218  10.153  12.593  0.00  0.00    +0.000 HD
ATOM     11  H   UNL     1      41.686  10.946  11.155  0.00  0.00    +0.000 HD
ENDBRANCH   4   7
BRANCH   1  12
ATOM     12  N   UNL     1      47.474   6.776  13.263  0.00  0.00    +0.000 N 
ATOM     13  H   UNL     1      47.155   6.431  14.163  0.00  0.00    +0.000 HD
BRANCH  12  15
ATOM     14  C   UNL     1      49.577   7.308  12.157  0.00  0.00    +0.000 C 
ATOM     15  C   UNL     1      48.744   7.483  13.418  0.00  0.00    +0.000 C 
ENDBRANCH  12  15
ENDBRANCH   1  12
BRANCH   6  16
ATOM     16  C   UNL     1      45.548   5.556  11.465  0.00  0.00    +0.000 C 
ATOM     17  C   UNL     1      44.494   4.733  11.588  0.00  0.00    +0.000 C 
BRANCH  17  18
ATOM     18  C   UNL     1      44.562   3.287  11.216  0.00  0.00    +0.000 C 
BRANCH  18  19
ATOM     19  O   UNL     1      44.069   3.137   9.888  0.00  0.00    +0.000 OA
BRANCH  19  20
ATOM     20  C   UNL     1      45.027   2.984   8.920  0.00  0.00    +0.000 A 
ATOM     21  C   UNL     1      45.557   4.015   8.140  0.00  0.00    +0.000 A 
ATOM     22  C   UNL     1      46.532   3.745   7.183  0.00  0.00    +0.000 A 
ATOM     23  C   UNL     1      46.985   2.441   6.995  0.00  0.00    +0.000 A 
ATOM     24  C   UNL     1      46.465   1.396   7.765  0.00  0.00    +0.000 A 
ATOM     25  C   UNL     1      46.943  -0.011   7.568  0.00  0.00    +0.000 C 
ATOM     26  C   UNL     1      45.482   1.677   8.725  0.00  0.00    +0.000 A 
ENDBRANCH  19  20
ENDBRANCH  18  19
ENDBRANCH  17  18
ENDBRANCH   6  16
TORSDOF 7
ENDMDL
MODEL 5
REMARK VINA RESULT:    -6.569      2.353      4.002
REMARK INTER + INTRA:         -10.216
REMARK INTER:                  -9.502
REMARK INTRA:                  -0.714
REMARK UNBOUND:                -0.958
REMARK  Name = 
REMARK  9 active torsions:
REMARK  status: ('A' for Active; 'I' for Inactive)
REMARK    1  A    between atoms: C_1  and  C_2
REMARK    2  A    between atoms: C_2  and  N_3
REMARK    3  A    between atoms: N_3  and  C_4
REMARK    4  A    between atoms: C_7  and  C_8
REMARK    5  A    between atoms: C_12  and  C_13
REMARK    6  A    between atoms: C_14  and  C_15
REMARK    7  A    between atoms: C_15  and  O_16
REMARK    8  A    between atoms: O_16  and  C_17
REMARK    9  A    between atoms: C_21  and  C_22
REMARK                            x       y       z     vdW  Elec       q    Type
REMARK                         _______ _______ _______ _____ _____    ______ ____
ROOT
ATOM      1  C   UNL     1      47.228   5.474  13.962  0.00  0.00    +0.000 A 
ATOM      2  N   UNL     1      48.198   6.144  14.628  0.00  0.00    +0.000 NA
ATOM      3  C   UNL     1      48.803   7.190  14.009  0.00  0.00    +0.000 A 
ATOM      4  C   UNL     1      48.503   7.618  12.731  0.00  0.00    +0.000 A 
ATOM      5  C   UNL     1      47.524   6.910  12.040  0.00  0.00    +0.000 A 
ATOM      6  C   UNL     1      46.866   5.828  12.644  0.00  0.00    +0.000 A 
ENDROOT
BRANCH   4   7
ATOM      7  C   UNL     1      49.143   8.785  12.070  0.00  0.00    +0.000 C 
ATOM      8  N   UNL     1      50.481   8.988  12.217  0.00  0.00    +0.000 N 
ATOM      9  O   UNL     1      48.479   9.576  11.407  0.00  0.00    +0.000 OA
ATOM     10  H   UNL     1      51.119   8.411  12.747  0.00  0.00    +0.000 HD
ATOM     11  H   UNL     1      50.865   9.804  11.759  0.00  0.00    +0.000 HD
ENDBRANCH   4   7
BRANCH   1  12
ATOM     12  N   UNL     1      46.626   4.357  14.586  0.00  0.00    +0.000 N 
ATOM     13  H   UNL     1      45.793   4.663  15.081  0.00  0.00    +0.000 HD
BRANCH  12  15
ATOM     14  C   UNL     1      47.061   3.876  16.932  0.00  0.00    +0.000 C 
ATOM     15  C   UNL     1      47.521   3.650  15.499  0.00  0.00    +0.000 C 
ENDBRANCH  12  15
ENDBRANCH   1  12
BRANCH   6  16
ATOM     16  C   UNL     1      45.833   5.097  11.893  0.00  0.00    +0.000 C 
ATOM     17  C   UNL     1      45.472   5.373  10.629  0.00  0.00    +0.000 C 
BRANCH  17  18
ATOM     18  C   UNL     1      44.432   4.580   9.904  0.00  0.00    +0.000 C 
BRANCH  18  19
ATOM     19  O   UNL     1      44.785   4.525   8.525  0.00  0.00    +0.000 OA
BRANCH  19  20
ATOM     20  C   UNL     1      45.446   3.390   8.133  0.00  0.00    +0.000 A 
ATOM     21  C   UNL     1      45.425   2.171   8.813  0.00  0.00    +0.000 A 
ATOM     22  C   UNL     1      46.134   1.077   8.320  0.00  0.00    +0.000 A 
ATOM     23  C   UNL     1      46.871   1.194   7.144  0.00  0.00    +0.000 A 
ATOM     24  C   UNL     1      46.904   2.408   6.450  0.00  0.00    +0.000 A 
ATOM     25  C   UNL     1      47.697   2.545   5.185  0.00  0.00    +0.000 C 
ATOM     26  C   UNL     1      46.189   3.504   6.954  0.00  0.00    +0.000 A 
ENDBRANCH  19  20
ENDBRANCH  18  19
ENDBRANCH  17  18
ENDBRANCH   6  16
TORSDOF 7
ENDMDL
MODEL 6
REMARK VINA RESULT:    -6.562      2.231      3.196
REMARK INTER + INTRA:         -10.205
REMARK INTER:                  -9.534
REMARK INTRA:                  -0.672
REMARK UNBOUND:                -0.958
REMARK  Name = 
REMARK  9 active torsions:
REMARK  status: ('A' for Active; 'I' for Inactive)
REMARK    1  A    between atoms: C_1  and  C_2
REMARK    2  A    between atoms: C_2  and  N_3
REMARK    3  A    between atoms: N_3  and  C_4
REMARK    4  A    between atoms: C_7  and  C_8
REMARK    5  A    between atoms: C_12  and  C_13
REMARK    6  A    between atoms: C_14  and  C_15
REMARK    7  A    between atoms: C_15  and  O_16
REMARK    8  A    between atoms: O_16  and  C_17
REMARK    9  A    between atoms: C_21  and  C_22
REMARK                            x       y       z     vdW  Elec       q    Type
REMARK                         _______ _______ _______ _____ _____    ______ ____
ROOT
ATOM      1  C   UNL     1      45.085   8.238  11.877  0.00  0.00    +0.000 A 
ATOM      2  N   UNL     1      45.776   9.054  12.707  0.00  0.00    +0.000 NA
ATOM      3  C   UNL     1      46.766   8.517  13.465  0.00  0.00    +0.000 A 
ATOM      4  C   UNL     1      47.116   7.180  13.455  0.00  0.00    +0.000 A 
ATOM      5  C   UNL     1      46.384   6.340  12.621  0.00  0.00    +0.000 A 
ATOM      6  C   UNL     1      45.359   6.855  11.812  0.00  0.00    +0.000 A 
ENDROOT
BRANCH   4   7
ATOM      7  C   UNL     1      48.223   6.602  14.261  0.00  0.00    +0.000 C 
ATOM      8  N   UNL     1      47.933   5.764  15.293  0.00  0.00    +0.000 N 
ATOM      9  O   UNL     1      49.392   6.883  14.017  0.00  0.00    +0.000 OA
ATOM     10  H   UNL     1      47.012   5.474  15.590  0.00  0.00    +0.000 HD
ATOM     11  H   UNL     1      48.722   5.409  15.818  0.00  0.00    +0.000 HD
ENDBRANCH   4   7
BRANCH   1  12
ATOM     12  N   UNL     1      44.024   8.785  11.118  0.00  0.00    +0.000 N 
ATOM     13  H   UNL     1      44.126   8.497  10.150  0.00  0.00    +0.000 HD
BRANCH  12  15
ATOM     14  C   UNL     1      43.975  10.830   9.798  0.00  0.00    +0.000 C 
ATOM     15  C   UNL     1      43.943  10.242  11.201  0.00  0.00    +0.000 C 
ENDBRANCH  12  15
ENDBRANCH   1  12
BRANCH   6  16
ATOM     16  C   UNL     1      44.602   5.946  10.936  0.00  0.00    +0.000 C 
ATOM     17  C   UNL     1      45.085   4.801  10.427  0.00  0.00    +0.000 C 
BRANCH  17  18
ATOM     18  C   UNL     1      44.263   3.902   9.562  0.00  0.00    +0.000 C 
BRANCH  18  19
ATOM     19  O   UNL     1      44.744   3.998   8.224  0.00  0.00    +0.000 OA
BRANCH  19  20
ATOM     20  C   UNL     1      45.544   2.965   7.812  0.00  0.00    +0.000 A 
ATOM     21  C   UNL     1      45.749   1.775   8.514  0.00  0.00    +0.000 A 
ATOM     22  C   UNL     1      46.584   0.787   7.998  0.00  0.00    +0.000 A 
ATOM     23  C   UNL     1      47.225   0.981   6.776  0.00  0.00    +0.000 A 
ATOM     24  C   UNL     1      47.032   2.167   6.060  0.00  0.00    +0.000 A 
ATOM     25  C   UNL     1      47.719   2.386   4.745  0.00  0.00    +0.000 C 
ATOM     26  C   UNL     1      46.191   3.156   6.587  0.00  0.00    +0.000 A 
ENDBRANCH  19  20
ENDBRANCH  18  19
ENDBRANCH  17  18
ENDBRANCH   6  16
TORSDOF 7
ENDMDL
MODEL 7
REMARK VINA RESULT:    -6.286      3.160      7.358
REMARK INTER + INTRA:          -9.816
REMARK INTER:                  -9.025
REMARK INTRA:                  -0.791
REMARK UNBOUND:                -0.958
REMARK  Name = 
REMARK  9 active torsions:
REMARK  status: ('A' for Active; 'I' for Inactive)
REMARK    1  A    between atoms: C_1  and  C_2
REMARK    2  A    between atoms: C_2  and  N_3
REMARK    3  A    between atoms: N_3  and  C_4
REMARK    4  A    between atoms: C_7  and  C_8
REMARK    5  A    between atoms: C_12  and  C_13
REMARK    6  A    between atoms: C_14  and  C_15
REMARK    7  A    between atoms: C_15  and  O_16
REMARK    8  A    between atoms: O_16  and  C_17
REMARK    9  A    between atoms: C_21  and  C_22
REMARK                            x       y       z     vdW  Elec       q    Type
REMARK                         _______ _______ _______ _____ _____    ______ ____
ROOT
ATOM      1  C   UNL     1      46.201   6.297  12.934  0.00  0.00    +0.000 A 
ATOM      2  N   UNL     1      45.575   6.494  11.750  0.00  0.00    +0.000 NA
ATOM      3  C   UNL     1      44.955   5.438  11.163  0.00  0.00    +0.000 A 
ATOM      4  C   UNL     1      44.924   4.162  11.690  0.00  0.00    +0.000 A 
ATOM      5  C   UNL     1      45.592   3.958  12.894  0.00  0.00    +0.000 A 
ATOM      6  C   UNL     1      46.238   5.023  13.540  0.00  0.00    +0.000 A 
ENDROOT
BRANCH   4   7
ATOM      7  C   UNL     1      44.215   3.016  11.062  0.00  0.00    +0.000 C 
ATOM      8  N   UNL     1      44.792   2.362  10.018  0.00  0.00    +0.000 N 
ATOM      9  O   UNL     1      43.110   2.665  11.462  0.00  0.00    +0.000 OA
ATOM     10  H   UNL     1      45.688   2.572   9.601  0.00  0.00    +0.000 HD
ATOM     11  H   UNL     1      44.262   1.599   9.618  0.00  0.00    +0.000 HD
ENDBRANCH   4   7
BRANCH   1  12
ATOM     12  N   UNL     1      46.885   7.383  13.527  0.00  0.00    +0.000 N 
ATOM     13  H   UNL     1      46.212   8.101  13.780  0.00  0.00    +0.000 HD
BRANCH  12  15
ATOM     14  C   UNL     1      49.077   6.965  12.553  0.00  0.00    +0.000 C 
ATOM     15  C   UNL     1      47.924   7.951  12.670  0.00  0.00    +0.000 C 
ENDBRANCH  12  15
ENDBRANCH   1  12
BRANCH   6  16
ATOM     16  C   UNL     1      46.935   4.782  14.814  0.00  0.00    +0.000 C 
ATOM     17  C   UNL     1      47.211   3.566  15.313  0.00  0.00    +0.000 C 
BRANCH  17  18
ATOM     18  C   UNL     1      47.945   3.379  16.602  0.00  0.00    +0.000 C 
BRANCH  18  19
ATOM     19  O   UNL     1      48.952   2.389  16.410  0.00  0.00    +0.000 OA
BRANCH  19  20
ATOM     20  C   UNL     1      50.142   2.630  17.045  0.00  0.00    +0.000 A 
ATOM     21  C   UNL     1      50.523   3.852  17.606  0.00  0.00    +0.000 A 
ATOM     22  C   UNL     1      51.759   3.984  18.233  0.00  0.00    +0.000 A 
ATOM     23  C   UNL     1      52.627   2.897  18.303  0.00  0.00    +0.000 A 
ATOM     24  C   UNL     1      52.264   1.667  17.746  0.00  0.00    +0.000 A 
ATOM     25  C   UNL     1      53.193   0.492  17.814  0.00  0.00    +0.000 C 
ATOM     26  C   UNL     1      51.018   1.543  17.116  0.00  0.00    +0.000 A 
ENDBRANCH  19  20
ENDBRANCH  18  19
ENDBRANCH  17  18
ENDBRANCH   6  16
TORSDOF 7
ENDMDL
MODEL 8
REMARK VINA RESULT:    -6.241      3.661      6.496
REMARK INTER + INTRA:          -9.752
REMARK INTER:                  -8.889
REMARK INTRA:                  -0.863
REMARK UNBOUND:                -0.958
REMARK  Name = 
REMARK  9 active torsions:
REMARK  status: ('A' for Active; 'I' for Inactive)
REMARK    1  A    between atoms: C_1  and  C_2
REMARK    2  A    between atoms: C_2  and  N_3
REMARK    3  A    between atoms: N_3  and  C_4
REMARK    4  A    between atoms: C_7  and  C_8
REMARK    5  A    between atoms: C_12  and  C_13
REMARK    6  A    between atoms: C_14  and  C_15
REMARK    7  A    between atoms: C_15  and  O_16
REMARK    8  A    between atoms: O_16  and  C_17
REMARK    9  A    between atoms: C_21  and  C_22
REMARK                            x       y       z     vdW  Elec       q    Type
REMARK                         _______ _______ _______ _____ _____    ______ ____
ROOT
ATOM      1  C   UNL     1      45.001   4.945  11.328  0.00  0.00    +0.000 A 
ATOM      2  N   UNL     1      45.118   3.649  11.701  0.00  0.00    +0.000 NA
ATOM      3  C   UNL     1      45.829   3.359  12.821  0.00  0.00    +0.000 A 
ATOM      4  C   UNL     1      46.455   4.304  13.611  0.00  0.00    +0.000 A 
ATOM      5  C   UNL     1      46.354   5.633  13.210  0.00  0.00    +0.000 A 
ATOM      6  C   UNL     1      45.622   5.978  12.064  0.00  0.00    +0.000 A 
ENDROOT
BRANCH   4   7
ATOM      7  C   UNL     1      47.203   3.986  14.856  0.00  0.00    +0.000 C 
ATOM      8  N   UNL     1      47.292   4.921  15.841  0.00  0.00    +0.000 N 
ATOM      9  O   UNL     1      47.754   2.899  14.999  0.00  0.00    +0.000 OA
ATOM     10  H   UNL     1      46.890   5.848  15.825  0.00  0.00    +0.000 HD
ATOM     11  H   UNL     1      47.824   4.660  16.661  0.00  0.00    +0.000 HD
ENDBRANCH   4   7
BRANCH   1  12
ATOM     12  N   UNL     1      44.299   5.247  10.139  0.00  0.00    +0.000 N 
ATOM     13  H   UNL     1      43.332   5.457  10.368  0.00  0.00    +0.000 HD
BRANCH  12  15
ATOM     14  C   UNL     1      45.600   4.356   8.284  0.00  0.00    +0.000 C 
ATOM     15  C   UNL     1      44.357   4.178   9.144  0.00  0.00    +0.000 C 
ENDBRANCH  12  15
ENDBRANCH   1  12
BRANCH   6  16
ATOM     16  C   UNL     1      45.528   7.391  11.662  0.00  0.00    +0.000 C 
ATOM     17  C   UNL     1      45.677   8.432  12.498  0.00  0.00    +0.000 C 
BRANCH  17  18
ATOM     18  C   UNL     1      45.597   9.849  12.030  0.00  0.00    +0.000 C 
BRANCH  18  19
ATOM     19  O   UNL     1      44.272  10.325  12.253  0.00  0.00    +0.000 OA
BRANCH  19  20
ATOM     20  C   UNL     1      43.613  10.770  11.136  0.00  0.00    +0.000 A 
ATOM     21  C   UNL     1      44.226  11.255   9.979  0.00  0.00    +0.000 A 
ATOM     22  C   UNL     1      43.455  11.680   8.899  0.00  0.00    +0.000 A 
ATOM     23  C   UNL     1      42.065  11.626   8.968  0.00  0.00    +0.000 A 
ATOM     24  C   UNL     1      41.435  11.144  10.119  0.00  0.00    +0.000 A 
ATOM     25  C   UNL     1      39.938  11.085  10.204  0.00  0.00    +0.000 C 
ATOM     26  C   UNL     1      42.218  10.720  11.202  0.00  0.00    +0.000 A 
ENDBRANCH  19  20
ENDBRANCH  18  19
ENDBRANCH  17  18
ENDBRANCH   6  16
TORSDOF 7
ENDMDL
MODEL 9
REMARK VINA RESULT:    -6.119      3.294      3.967
REMARK INTER + INTRA:          -9.581
REMARK INTER:                  -8.676
REMARK INTRA:                  -0.905
REMARK UNBOUND:                -0.958
REMARK  Name = 
REMARK  9 active torsions:
REMARK  status: ('A' for Active; 'I' for Inactive)
REMARK    1  A    between atoms: C_1  and  C_2
REMARK    2  A    between atoms: C_2  and  N_3
REMARK    3  A    between atoms: N_3  and  C_4
REMARK    4  A    between atoms: C_7  and  C_8
REMARK    5  A    between atoms: C_12  and  C_13
REMARK    6  A    between atoms: C_14  and  C_15
REMARK    7  A    between atoms: C_15  and  O_16
REMARK    8  A    between atoms: O_16  and  C_17
REMARK    9  A    between atoms: C_21  and  C_22
REMARK                            x       y       z     vdW  Elec       q    Type
REMARK                         _______ _______ _______ _____ _____    ______ ____
ROOT
ATOM      1  C   UNL     1      46.455   8.938  12.528  0.00  0.00    +0.000 A 
ATOM      2  N   UNL     1      47.367   9.919  12.722  0.00  0.00    +0.000 NA
ATOM      3  C   UNL     1      48.680   9.628  12.537  0.00  0.00    +0.000 A 
ATOM      4  C   UNL     1      49.157   8.385  12.168  0.00  0.00    +0.000 A 
ATOM      5  C   UNL     1      48.218   7.372  11.996  0.00  0.00    +0.000 A 
ATOM      6  C   UNL     1      46.850   7.631  12.168  0.00  0.00    +0.000 A 
ENDROOT
BRANCH   4   7
ATOM      7  C   UNL     1      50.592   8.079  11.933  0.00  0.00    +0.000 C 
ATOM      8  N   UNL     1      50.949   7.329  10.855  0.00  0.00    +0.000 N 
ATOM      9  O   UNL     1      51.457   8.482  12.705  0.00  0.00    +0.000 OA
ATOM     10  H   UNL     1      50.325   6.937  10.165  0.00  0.00    +0.000 HD
ATOM     11  H   UNL     1      51.937   7.138  10.749  0.00  0.00    +0.000 HD
ENDBRANCH   4   7
BRANCH   1  12
ATOM     12  N   UNL     1      45.090   9.225  12.763  0.00  0.00    +0.000 N 
ATOM     13  H   UNL     1      44.549   8.372  12.660  0.00  0.00    +0.000 HD
BRANCH  12  15
ATOM     14  C   UNL     1      43.736   9.620  10.778  0.00  0.00    +0.000 C 
ATOM     15  C   UNL     1      44.557  10.265  11.885  0.00  0.00    +0.000 C 
ENDBRANCH  12  15
ENDBRANCH   1  12
BRANCH   6  16
ATOM     16  C   UNL     1      45.877   6.543  11.978  0.00  0.00    +0.000 C 
ATOM     17  C   UNL     1      45.715   5.858  10.834  0.00  0.00    +0.000 C 
BRANCH  17  18
ATOM     18  C   UNL     1      44.727   4.744  10.703  0.00  0.00    +0.000 C 
BRANCH  18  19
ATOM     19  O   UNL     1      44.449   4.546   9.320  0.00  0.00    +0.000 OA
BRANCH  19  20
ATOM     20  C   UNL     1      45.127   3.514   8.726  0.00  0.00    +0.000 A 
ATOM     21  C   UNL     1      45.187   2.205   9.209  0.00  0.00    +0.000 A 
ATOM     22  C   UNL     1      45.906   1.231   8.520  0.00  0.00    +0.000 A 
ATOM     23  C   UNL     1      46.575   1.558   7.343  0.00  0.00    +0.000 A 
ATOM     24  C   UNL     1      46.528   2.864   6.845  0.00  0.00    +0.000 A 
ATOM     25  C   UNL     1      47.247   3.227   5.579  0.00  0.00    +0.000 C 
ATOM     26  C   UNL     1      45.802   3.838   7.545  0.00  0.00    +0.000 A 
ENDBRANCH  19  20
ENDBRANCH  18  19
ENDBRANCH  17  18
ENDBRANCH   6  16
TORSDOF 7
ENDMDL
