MODEL 1
REMARK VINA RESULT:    -8.145      0.000      0.000
REMARK INTER + INTRA:         -12.554
REMARK INTER:                 -11.477
REMARK INTRA:                  -1.076
REMARK UNBOUND:                -1.076
REMARK  Name = 
REMARK  9 active torsions:
REMARK  status: ('A' for Active; 'I' for Inactive)
REMARK    1  A    between atoms: C_1  and  C_2
REMARK    2  A    between atoms: C_4  and  C_5
REMARK    3  A    between atoms: C_5  and  C_6
REMARK    4  A    between atoms: C_5  and  C_7
REMARK    5  A    between atoms: C_7  and  O_8
REMARK    6  A    between atoms: O_8  and  C_9
REMARK    7  A    between atoms: C_13  and  O_14
REMARK    8  A    between atoms: O_14  and  C_15
REMARK    9  A    between atoms: C_23  and  C_24
REMARK                            x       y       z     vdW  Elec       q    Type
REMARK                         _______ _______ _______ _____ _____    ______ ____
ROOT
ATOM      1  C   UNL     1      43.752   3.686  10.548  0.00  0.00    +0.000 C 
ATOM      2  C   UNL     1      43.560   2.483  11.471  0.00  0.00    +0.000 C 
ENDROOT
BRANCH   1   6
ATOM      3  C   UNL     1      46.459   0.325   7.886  0.00  0.00    +0.000 C 
ATOM      4  C   UNL     1      46.053   1.761   8.097  0.00  0.00    +0.000 A 
ATOM      5  C   UNL     1      45.157   2.057   9.146  0.00  0.00    +0.000 A 
ATOM      6  C   UNL     1      44.721   3.371   9.405  0.00  0.00    +0.000 A 
ATOM      7  C   UNL     1      45.225   4.398   8.599  0.00  0.00    +0.000 A 
ATOM      8  C   UNL     1      46.117   4.122   7.556  0.00  0.00    +0.000 A 
ATOM      9  C   UNL     1      46.530   2.808   7.283  0.00  0.00    +0.000 A 
BRANCH   9  10
ATOM     10  C   UNL     1      47.481   2.553   6.155  0.00  0.00    +0.000 C 
ATOM     11  N   UNL     1      48.814   2.498   6.461  0.00  0.00    +0.000 N 
ATOM     12  O   UNL     1      47.123   2.414   4.992  0.00  0.00    +0.000 OA
ATOM     13  H   UNL     1      49.190   2.802   7.347  0.00  0.00    +0.000 HD
ATOM     14  H   UNL     1      49.450   2.420   5.679  0.00  0.00    +0.000 HD
ENDBRANCH   9  10
ENDBRANCH   1   6
BRANCH   1  15
ATOM     15  C   UNL     1      44.207   4.948  11.312  0.00  0.00    +0.000 C 
BRANCH  15  16
ATOM     16  O   UNL     1      44.655   4.673  12.657  0.00  0.00    +0.000 OA
BRANCH  16  17
ATOM     17  C   UNL     1      45.833   5.318  12.986  0.00  0.00    +0.000 A 
ATOM     18  C   UNL     1      46.372   6.350  12.214  0.00  0.00    +0.000 A 
ATOM     19  C   UNL     1      47.608   6.900  12.523  0.00  0.00    +0.000 A 
ATOM     20  C   UNL     1      48.289   6.471  13.649  0.00  0.00    +0.000 A 
ATOM     21  C   UNL     1      47.717   5.537  14.517  0.00  0.00    +0.000 A 
ATOM     22  C   UNL     1      46.502   4.929  14.165  0.00  0.00    +0.000 A 
BRANCH  21  23
ATOM     23  O   UNL     1      48.312   5.191  15.717  0.00  0.00    +0.000 OA
BRANCH  23  24
ATOM     24  C   UNL     1      47.504   4.303  16.524  0.00  0.00    +0.000 C 
ATOM     25  C   UNL     1      47.327   4.825  17.936  0.00  0.00    +0.000 C 
ATOM     26  C   UNL     1      48.401   4.138  18.747  0.00  0.00    +0.000 C 
ATOM     27  O   UNL     1      48.845   2.991  18.024  0.00  0.00    +0.000 OA
ATOM     28  C   UNL     1      48.195   2.965  16.747  0.00  0.00    +0.000 C 
ENDBRANCH  23  24
ENDBRANCH  21  23
ENDBRANCH  16  17
ENDBRANCH  15  16
ENDBRANCH   1  15
TORSDOF 7
ENDMDL
MODEL 2
REMARK VINA RESULT:    -7.315      1.726      2.012
REMARK INTER + INTRA:         -11.385
REMARK INTER:                 -10.422
REMARK INTRA:                  -0.962
REMARK UNBOUND:                -1.076
REMARK  Name = 
REMARK  9 active torsions:
REMARK  status: ('A' for Active; 'I' for Inactive)
REMARK    1  A    between atoms: C_1  and  C_2
REMARK    2  A    between atoms: C_4  and  C_5
REMARK    3  A    between atoms: C_5  and  C_6
REMARK    4  A    between atoms: C_5  and  C_7
REMARK    5  A    between atoms: C_7  and  O_8
REMARK    6  A    between atoms: O_8  and  C_9
REMARK    7  A    between atoms: C_13  and  O_14
REMARK    8  A    between atoms: O_14  and  C_15
REMARK    9  A    between atoms: C_23  and  C_24
REMARK                            x       y       z     vdW  Elec       q    Type
REMARK                         _______ _______ _______ _____ _____    ______ ____
ROOT
ATOM      1  C   UNL     1      43.806   3.728  10.464  0.00  0.00    +0.000 C 
ATOM      2  C   UNL     1      43.439   2.512  11.314  0.00  0.00    +0.000 C 
ENDROOT
BRANCH   1   6
ATOM      3  C   UNL     1      46.468   0.233   7.932  0.00  0.00    +0.000 C 
ATOM      4  C   UNL     1      46.072   1.679   8.081  0.00  0.00    +0.000 A 
ATOM      5  C   UNL     1      45.187   2.029   9.124  0.00  0.00    +0.000 A 
ATOM      6  C   UNL     1      44.761   3.356   9.327  0.00  0.00    +0.000 A 
ATOM      7  C   UNL     1      45.262   4.341   8.470  0.00  0.00    +0.000 A 
ATOM      8  C   UNL     1      46.142   4.013   7.431  0.00  0.00    +0.000 A 
ATOM      9  C   UNL     1      46.545   2.685   7.215  0.00  0.00    +0.000 A 
BRANCH   9  10
ATOM     10  C   UNL     1      47.483   2.373   6.090  0.00  0.00    +0.000 C 
ATOM     11  N   UNL     1      48.818   2.575   6.315  0.00  0.00    +0.000 N 
ATOM     12  O   UNL     1      47.109   1.973   4.995  0.00  0.00    +0.000 OA
ATOM     13  H   UNL     1      49.173   3.090   7.108  0.00  0.00    +0.000 HD
ATOM     14  H   UNL     1      49.430   2.452   5.519  0.00  0.00    +0.000 HD
ENDBRANCH   9  10
ENDBRANCH   1   6
BRANCH   1  15
ATOM     15  C   UNL     1      44.391   4.880  11.307  0.00  0.00    +0.000 C 
BRANCH  15  16
ATOM     16  O   UNL     1      45.578   4.509  12.041  0.00  0.00    +0.000 OA
BRANCH  16  17
ATOM     17  C   UNL     1      46.217   5.584  12.632  0.00  0.00    +0.000 A 
ATOM     18  C   UNL     1      45.811   6.906  12.437  0.00  0.00    +0.000 A 
ATOM     19  C   UNL     1      46.541   7.960  12.965  0.00  0.00    +0.000 A 
ATOM     20  C   UNL     1      47.650   7.702  13.754  0.00  0.00    +0.000 A 
ATOM     21  C   UNL     1      48.004   6.390  14.080  0.00  0.00    +0.000 A 
ATOM     22  C   UNL     1      47.309   5.325  13.486  0.00  0.00    +0.000 A 
BRANCH  21  23
ATOM     23  O   UNL     1      49.021   6.106  14.973  0.00  0.00    +0.000 OA
BRANCH  23  24
ATOM     24  C   UNL     1      49.564   7.281  15.619  0.00  0.00    +0.000 C 
ATOM     25  C   UNL     1      51.077   7.236  15.699  0.00  0.00    +0.000 C 
ATOM     26  C   UNL     1      51.381   6.680  17.071  0.00  0.00    +0.000 C 
ATOM     27  O   UNL     1      50.220   6.833  17.886  0.00  0.00    +0.000 OA
ATOM     28  C   UNL     1      49.153   7.356  17.083  0.00  0.00    +0.000 C 
ENDBRANCH  23  24
ENDBRANCH  21  23
ENDBRANCH  16  17
ENDBRANCH  15  16
ENDBRANCH   1  15
TORSDOF 7
ENDMDL
MODEL 3
REMARK VINA RESULT:    -7.203      2.454      4.354
REMARK INTER + INTRA:         -11.227
REMARK INTER:                 -10.063
REMARK INTRA:                  -1.164
REMARK UNBOUND:                -1.076
REMARK  Name = 
REMARK  9 active torsions:
REMARK  status: ('A' for Active; 'I' for Inactive)
REMARK    1  A    between atoms: C_1  and  C_2
REMARK    2  A    between atoms: C_4  and  C_5
REMARK    3  A    between atoms: C_5  and  C_6
REMARK    4  A    between atoms: C_5  and  C_7
REMARK    5  A    between atoms: C_7  and  O_8
REMARK    6  A    between atoms: O_8  and  C_9
REMARK    7  A    between atoms: C_13  and  O_14
REMARK    8  A    between atoms: O_14  and  C_15
REMARK    9  A    between atoms: C_23  and  C_24
REMARK                            x       y       z     vdW  Elec       q    Type
REMARK                         _______ _______ _______ _____ _____    ______ ____
ROOT
ATOM      1  C   UNL     1      43.932   3.886  10.705  0.00  0.00    +0.000 C 
ATOM      2  C   UNL     1      43.452   2.635  11.440  0.00  0.00    +0.000 C 
ENDROOT
BRANCH   1   6
ATOM      3  C   UNL     1      46.331   0.414   7.894  0.00  0.00    +0.000 C 
ATOM      4  C   UNL     1      46.027   1.868   8.146  0.00  0.00    +0.000 A 
ATOM      5  C   UNL     1      45.184   2.200   9.228  0.00  0.00    +0.000 A 
ATOM      6  C   UNL     1      44.844   3.534   9.527  0.00  0.00    +0.000 A 
ATOM      7  C   UNL     1      45.391   4.543   8.727  0.00  0.00    +0.000 A 
ATOM      8  C   UNL     1      46.232   4.232   7.651  0.00  0.00    +0.000 A 
ATOM      9  C   UNL     1      46.548   2.900   7.340  0.00  0.00    +0.000 A 
BRANCH   9  10
ATOM     10  C   UNL     1      47.447   2.608   6.177  0.00  0.00    +0.000 C 
ATOM     11  N   UNL     1      48.790   2.534   6.430  0.00  0.00    +0.000 N 
ATOM     12  O   UNL     1      47.038   2.456   5.034  0.00  0.00    +0.000 OA
ATOM     13  H   UNL     1      49.208   2.847   7.293  0.00  0.00    +0.000 HD
ATOM     14  H   UNL     1      49.392   2.431   5.623  0.00  0.00    +0.000 HD
ENDBRANCH   9  10
ENDBRANCH   1   6
BRANCH   1  15
ATOM     15  C   UNL     1      44.628   4.892  11.647  0.00  0.00    +0.000 C 
BRANCH  15  16
ATOM     16  O   UNL     1      45.736   4.322  12.376  0.00  0.00    +0.000 OA
BRANCH  16  17
ATOM     17  C   UNL     1      46.618   5.269  12.863  0.00  0.00    +0.000 A 
ATOM     18  C   UNL     1      47.200   5.181  14.130  0.00  0.00    +0.000 A 
ATOM     19  C   UNL     1      47.998   6.203  14.620  0.00  0.00    +0.000 A 
ATOM     20  C   UNL     1      48.281   7.298  13.821  0.00  0.00    +0.000 A 
ATOM     21  C   UNL     1      47.826   7.355  12.501  0.00  0.00    +0.000 A 
ATOM     22  C   UNL     1      46.959   6.355  12.031  0.00  0.00    +0.000 A 
BRANCH  21  23
ATOM     23  O   UNL     1      48.206   8.367  11.638  0.00  0.00    +0.000 OA
BRANCH  23  24
ATOM     24  C   UNL     1      48.294   9.662  12.275  0.00  0.00    +0.000 C 
ATOM     25  C   UNL     1      47.268  10.634  11.726  0.00  0.00    +0.000 C 
ATOM     26  C   UNL     1      47.999  11.416  10.659  0.00  0.00    +0.000 C 
ATOM     27  O   UNL     1      49.401  11.272  10.878  0.00  0.00    +0.000 OA
ATOM     28  C   UNL     1      49.613  10.354  11.958  0.00  0.00    +0.000 C 
ENDBRANCH  23  24
ENDBRANCH  21  23
ENDBRANCH  16  17
ENDBRANCH  15  16
ENDBRANCH   1  15
TORSDOF 7
ENDMDL
MODEL 4
REMARK VINA RESULT:    -6.934      2.578      7.978
REMARK INTER + INTRA:         -10.848
REMARK INTER:                  -9.942
REMARK INTRA:                  -0.907
REMARK UNBOUND:                -1.076
REMARK  Name = 
REMARK  9 active torsions:
REMARK  status: ('A' for Active; 'I' for Inactive)
REMARK    1  A    between atoms: C_1  and  C_2
REMARK    2  A    between atoms: C_4  and  C_5
REMARK    3  A    between atoms: C_5  and  C_6
REMARK    4  A    between atoms: C_5  and  C_7
REMARK    5  A    between atoms: C_7  and  O_8
REMARK    6  A    between atoms: O_8  and  C_9
REMARK    7  A    between atoms: C_13  and  O_14
REMARK    8  A    between atoms: O_14  and  C_15
REMARK    9  A    between atoms: C_23  and  C_24
REMARK                            x       y       z     vdW  Elec       q    Type
REMARK                         _______ _______ _______ _____ _____    ______ ____
ROOT
ATOM      1  C   UNL     1      47.557   7.634  13.231  0.00  0.00    +0.000 C 
ATOM      2  C   UNL     1      48.462   7.396  12.021  0.00  0.00    +0.000 C 
ENDROOT
BRANCH   1   6
ATOM      3  C   UNL     1      49.229   5.619  17.574  0.00  0.00    +0.000 C 
ATOM      4  C   UNL     1      48.414   5.454  16.317  0.00  0.00    +0.000 A 
ATOM      5  C   UNL     1      48.357   6.532  15.408  0.00  0.00    +0.000 A 
ATOM      6  C   UNL     1      47.611   6.462  14.215  0.00  0.00    +0.000 A 
ATOM      7  C   UNL     1      46.935   5.270  13.935  0.00  0.00    +0.000 A 
ATOM      8  C   UNL     1      46.983   4.190  14.825  0.00  0.00    +0.000 A 
ATOM      9  C   UNL     1      47.706   4.271  16.026  0.00  0.00    +0.000 A 
BRANCH   9  10
ATOM     10  C   UNL     1      47.728   3.096  16.954  0.00  0.00    +0.000 C 
ATOM     11  N   UNL     1      48.785   2.232  16.843  0.00  0.00    +0.000 N 
ATOM     12  O   UNL     1      46.849   2.872  17.775  0.00  0.00    +0.000 OA
ATOM     13  H   UNL     1      49.427   2.242  16.065  0.00  0.00    +0.000 HD
ATOM     14  H   UNL     1      48.739   1.395  17.409  0.00  0.00    +0.000 HD
ENDBRANCH   9  10
ENDBRANCH   1   6
BRANCH   1  15
ATOM     15  C   UNL     1      46.099   7.935  12.825  0.00  0.00    +0.000 C 
BRANCH  15  16
ATOM     16  O   UNL     1      45.803   7.593  11.454  0.00  0.00    +0.000 OA
BRANCH  16  17
ATOM     17  C   UNL     1      44.958   6.505  11.330  0.00  0.00    +0.000 A 
ATOM     18  C   UNL     1      43.579   6.590  11.536  0.00  0.00    +0.000 A 
ATOM     19  C   UNL     1      42.783   5.455  11.502  0.00  0.00    +0.000 A 
ATOM     20  C   UNL     1      43.346   4.228  11.195  0.00  0.00    +0.000 A 
ATOM     21  C   UNL     1      44.697   4.129  10.852  0.00  0.00    +0.000 A 
ATOM     22  C   UNL     1      45.516   5.265  10.957  0.00  0.00    +0.000 A 
BRANCH  21  23
ATOM     23  O   UNL     1      45.256   2.944  10.409  0.00  0.00    +0.000 OA
BRANCH  23  24
ATOM     24  C   UNL     1      44.823   2.565   9.082  0.00  0.00    +0.000 C 
ATOM     25  C   UNL     1      45.826   1.660   8.395  0.00  0.00    +0.000 C 
ATOM     26  C   UNL     1      46.678   2.583   7.555  0.00  0.00    +0.000 C 
ATOM     27  O   UNL     1      45.972   3.810   7.378  0.00  0.00    +0.000 OA
ATOM     28  C   UNL     1      44.763   3.767   8.148  0.00  0.00    +0.000 C 
ENDBRANCH  23  24
ENDBRANCH  21  23
ENDBRANCH  16  17
ENDBRANCH  15  16
ENDBRANCH   1  15
TORSDOF 7
ENDMDL
MODEL 5
REMARK VINA RESULT:    -6.616      2.974      4.992
REMARK INTER + INTRA:         -10.400
REMARK INTER:                  -9.062
REMARK INTRA:                  -1.338
REMARK UNBOUND:                -1.076
REMARK  Name = 
REMARK  9 active torsions:
REMARK  status: ('A' for Active; 'I' for Inactive)
REMARK    1  A    between atoms: C_1  and  C_2
REMARK    2  A    between atoms: C_4  and  C_5
REMARK    3  A    between atoms: C_5  and  C_6
REMARK    4  A    between atoms: C_5  and  C_7
REMARK    5  A    between atoms: C_7  and  O_8
REMARK    6  A    between atoms: O_8  and  C_9
REMARK    7  A    between atoms: C_13  and  O_14
REMARK    8  A    between atoms: O_14  and  C_15
REMARK    9  A    between atoms: C_23  and  C_24
REMARK                            x       y       z     vdW  Elec       q    Type
REMARK                         _______ _______ _______ _____ _____    ______ ____
ROOT
ATOM      1  C   UNL     1      47.553   8.281  11.852  0.00  0.00    +0.000 C 
ATOM      2  C   UNL     1      46.783   9.566  12.156  0.00  0.00    +0.000 C 
ENDROOT
BRANCH   1   6
ATOM      3  C   UNL     1      45.168   4.599   9.309  0.00  0.00    +0.000 C 
ATOM      4  C   UNL     1      45.454   5.262  10.632  0.00  0.00    +0.000 A 
ATOM      5  C   UNL     1      46.307   6.387  10.648  0.00  0.00    +0.000 A 
ATOM      6  C   UNL     1      46.631   7.058  11.843  0.00  0.00    +0.000 A 
ATOM      7  C   UNL     1      46.060   6.592  13.031  0.00  0.00    +0.000 A 
ATOM      8  C   UNL     1      45.210   5.480  13.033  0.00  0.00    +0.000 A 
ATOM      9  C   UNL     1      44.908   4.796  11.844  0.00  0.00    +0.000 A 
BRANCH   9  10
ATOM     10  C   UNL     1      43.999   3.606  11.888  0.00  0.00    +0.000 C 
ATOM     11  N   UNL     1      44.472   2.481  12.508  0.00  0.00    +0.000 N 
ATOM     12  O   UNL     1      42.883   3.595  11.386  0.00  0.00    +0.000 OA
ATOM     13  H   UNL     1      45.441   2.354  12.758  0.00  0.00    +0.000 HD
ATOM     14  H   UNL     1      43.887   1.658  12.448  0.00  0.00    +0.000 HD
ENDBRANCH   9  10
ENDBRANCH   1   6
BRANCH   1  15
ATOM     15  C   UNL     1      48.735   8.061  12.819  0.00  0.00    +0.000 C 
BRANCH  15  16
ATOM     16  O   UNL     1      48.801   9.041  13.878  0.00  0.00    +0.000 OA
BRANCH  16  17
ATOM     17  C   UNL     1      48.755   8.487  15.144  0.00  0.00    +0.000 A 
ATOM     18  C   UNL     1      48.236   9.166  16.249  0.00  0.00    +0.000 A 
ATOM     19  C   UNL     1      48.302   8.615  17.520  0.00  0.00    +0.000 A 
ATOM     20  C   UNL     1      48.827   7.345  17.692  0.00  0.00    +0.000 A 
ATOM     21  C   UNL     1      49.231   6.584  16.591  0.00  0.00    +0.000 A 
ATOM     22  C   UNL     1      49.231   7.171  15.315  0.00  0.00    +0.000 A 
BRANCH  21  23
ATOM     23  O   UNL     1      49.630   5.266  16.718  0.00  0.00    +0.000 OA
BRANCH  23  24
ATOM     24  C   UNL     1      48.572   4.385  17.161  0.00  0.00    +0.000 C 
ATOM     25  C   UNL     1      49.116   3.100  17.754  0.00  0.00    +0.000 C 
ATOM     26  C   UNL     1      49.094   2.104  16.618  0.00  0.00    +0.000 C 
ATOM     27  O   UNL     1      48.201   2.585  15.615  0.00  0.00    +0.000 OA
ATOM     28  C   UNL     1      47.732   3.885  15.993  0.00  0.00    +0.000 C 
ENDBRANCH  23  24
ENDBRANCH  21  23
ENDBRANCH  16  17
ENDBRANCH  15  16
ENDBRANCH   1  15
TORSDOF 7
ENDMDL
MODEL 6
REMARK VINA RESULT:    -6.524      3.642      8.021
REMARK INTER + INTRA:         -10.271
REMARK INTER:                  -9.246
REMARK INTRA:                  -1.024
REMARK UNBOUND:                -1.076
REMARK  Name = 
REMARK  9 active torsions:
REMARK  status: ('A' for Active; 'I' for Inactive)
REMARK    1  A    between atoms: C_1  and  C_2
REMARK    2  A    between atoms: C_4  and  C_5
REMARK    3  A    between atoms: C_5  and  C_6
REMARK    4  A    between atoms: C_5  and  C_7
REMARK    5  A    between atoms: C_7  and  O_8
REMARK    6  A    between atoms: O_8  and  C_9
REMARK    7  A    between atoms: C_13  and  O_14
REMARK    8  A    between atoms: O_14  and  C_15
REMARK    9  A    between atoms: C_23  and  C_24
REMARK                            x       y       z     vdW  Elec       q    Type
REMARK                         _______ _______ _______ _____ _____    ______ ____
ROOT
ATOM      1  C   UNL     1      46.043   5.886  12.397  0.00  0.00    +0.000 C 
ATOM      2  C   UNL     1      46.440   5.156  13.680  0.00  0.00    +0.000 C 
ENDROOT
BRANCH   1   6
ATOM      3  C   UNL     1      50.518   8.030  11.354  0.00  0.00    +0.000 C 
ATOM      4  C   UNL     1      49.057   8.211  11.677  0.00  0.00    +0.000 A 
ATOM      5  C   UNL     1      48.267   7.059  11.878  0.00  0.00    +0.000 A 
ATOM      6  C   UNL     1      46.893   7.140  12.175  0.00  0.00    +0.000 A 
ATOM      7  C   UNL     1      46.323   8.412  12.291  0.00  0.00    +0.000 A 
ATOM      8  C   UNL     1      47.092   9.566  12.098  0.00  0.00    +0.000 A 
ATOM      9  C   UNL     1      48.457   9.482  11.776  0.00  0.00    +0.000 A 
BRANCH   9  10
ATOM     10  C   UNL     1      49.245  10.739  11.571  0.00  0.00    +0.000 C 
ATOM     11  N   UNL     1      49.672  11.399  12.692  0.00  0.00    +0.000 N 
ATOM     12  O   UNL     1      49.499  11.199  10.466  0.00  0.00    +0.000 OA
ATOM     13  H   UNL     1      49.330  11.193  13.619  0.00  0.00    +0.000 HD
ATOM     14  H   UNL     1      50.120  12.293  12.541  0.00  0.00    +0.000 HD
ENDBRANCH   9  10
ENDBRANCH   1   6
BRANCH   1  15
ATOM     15  C   UNL     1      44.540   6.236  12.361  0.00  0.00    +0.000 C 
BRANCH  15  16
ATOM     16  O   UNL     1      43.939   6.045  11.062  0.00  0.00    +0.000 OA
BRANCH  16  17
ATOM     17  C   UNL     1      44.028   4.745  10.601  0.00  0.00    +0.000 A 
ATOM     18  C   UNL     1      43.617   3.644  11.356  0.00  0.00    +0.000 A 
ATOM     19  C   UNL     1      43.818   2.350  10.898  0.00  0.00    +0.000 A 
ATOM     20  C   UNL     1      44.374   2.142   9.647  0.00  0.00    +0.000 A 
ATOM     21  C   UNL     1      44.672   3.221   8.810  0.00  0.00    +0.000 A 
ATOM     22  C   UNL     1      44.535   4.529   9.303  0.00  0.00    +0.000 A 
BRANCH  21  23
ATOM     23  O   UNL     1      45.098   3.042   7.507  0.00  0.00    +0.000 OA
BRANCH  23  24
ATOM     24  C   UNL     1      46.535   2.934   7.382  0.00  0.00    +0.000 C 
ATOM     25  C   UNL     1      47.022   3.396   6.023  0.00  0.00    +0.000 C 
ATOM     26  C   UNL     1      47.131   2.136   5.195  0.00  0.00    +0.000 C 
ATOM     27  O   UNL     1      47.177   1.019   6.080  0.00  0.00    +0.000 OA
ATOM     28  C   UNL     1      46.994   1.482   7.425  0.00  0.00    +0.000 C 
ENDBRANCH  23  24
ENDBRANCH  21  23
ENDBRANCH  16  17
ENDBRANCH  15  16
ENDBRANCH   1  15
TORSDOF 7
ENDMDL
MODEL 7
REMARK VINA RESULT:    -6.449      3.442      5.025
REMARK INTER + INTRA:         -10.165
REMARK INTER:                  -8.772
REMARK INTRA:                  -1.393
REMARK UNBOUND:                -1.076
REMARK  Name = 
REMARK  9 active torsions:
REMARK  status: ('A' for Active; 'I' for Inactive)
REMARK    1  A    between atoms: C_1  and  C_2
REMARK    2  A    between atoms: C_4  and  C_5
REMARK    3  A    between atoms: C_5  and  C_6
REMARK    4  A    between atoms: C_5  and  C_7
REMARK    5  A    between atoms: C_7  and  O_8
REMARK    6  A    between atoms: O_8  and  C_9
REMARK    7  A    between atoms: C_13  and  O_14
REMARK    8  A    between atoms: O_14  and  C_15
REMARK    9  A    between atoms: C_23  and  C_24
REMARK                            x       y       z     vdW  Elec       q    Type
REMARK                         _______ _______ _______ _____ _____    ______ ____
ROOT
ATOM      1  C   UNL     1      46.927   8.448  12.146  0.00  0.00    +0.000 C 
ATOM      2  C   UNL     1      45.932   9.547  12.518  0.00  0.00    +0.000 C 
ENDROOT
BRANCH   1   6
ATOM      3  C   UNL     1      46.774   3.581  13.562  0.00  0.00    +0.000 C 
ATOM      4  C   UNL     1      46.159   4.700  12.762  0.00  0.00    +0.000 A 
ATOM      5  C   UNL     1      46.771   5.972  12.807  0.00  0.00    +0.000 A 
ATOM      6  C   UNL     1      46.255   7.072  12.096  0.00  0.00    +0.000 A 
ATOM      7  C   UNL     1      45.116   6.868  11.310  0.00  0.00    +0.000 A 
ATOM      8  C   UNL     1      44.498   5.612  11.251  0.00  0.00    +0.000 A 
ATOM      9  C   UNL     1      44.999   4.523  11.982  0.00  0.00    +0.000 A 
BRANCH   9  10
ATOM     10  C   UNL     1      44.307   3.198  11.897  0.00  0.00    +0.000 C 
ATOM     11  N   UNL     1      44.453   2.489  10.735  0.00  0.00    +0.000 N 
ATOM     12  O   UNL     1      43.615   2.742  12.799  0.00  0.00    +0.000 OA
ATOM     13  H   UNL     1      44.832   2.888   9.889  0.00  0.00    +0.000 HD
ATOM     14  H   UNL     1      43.905   1.643  10.655  0.00  0.00    +0.000 HD
ENDBRANCH   9  10
ENDBRANCH   1   6
BRANCH   1  15
ATOM     15  C   UNL     1      48.151   8.419  13.084  0.00  0.00    +0.000 C 
BRANCH  15  16
ATOM     16  O   UNL     1      47.990   9.237  14.263  0.00  0.00    +0.000 OA
BRANCH  16  17
ATOM     17  C   UNL     1      48.348   8.593  15.433  0.00  0.00    +0.000 A 
ATOM     18  C   UNL     1      48.103   9.130  16.699  0.00  0.00    +0.000 A 
ATOM     19  C   UNL     1      48.570   8.501  17.843  0.00  0.00    +0.000 A 
ATOM     20  C   UNL     1      49.230   7.288  17.739  0.00  0.00    +0.000 A 
ATOM     21  C   UNL     1      49.373   6.656  16.501  0.00  0.00    +0.000 A 
ATOM     22  C   UNL     1      48.965   7.329  15.338  0.00  0.00    +0.000 A 
BRANCH  21  23
ATOM     23  O   UNL     1      49.905   5.385  16.383  0.00  0.00    +0.000 OA
BRANCH  23  24
ATOM     24  C   UNL     1      49.450   4.475  17.412  0.00  0.00    +0.000 C 
ATOM     25  C   UNL     1      50.533   3.497  17.822  0.00  0.00    +0.000 C 
ATOM     26  C   UNL     1      50.277   2.257  16.997  0.00  0.00    +0.000 C 
ATOM     27  O   UNL     1      48.933   2.305  16.520  0.00  0.00    +0.000 OA
ATOM     28  C   UNL     1      48.348   3.557  16.900  0.00  0.00    +0.000 C 
ENDBRANCH  23  24
ENDBRANCH  21  23
ENDBRANCH  16  17
ENDBRANCH  15  16
ENDBRANCH   1  15
TORSDOF 7
ENDMDL
MODEL 8
REMARK VINA RESULT:    -6.209      3.496      8.492
REMARK INTER + INTRA:          -9.826
REMARK INTER:                  -9.277
REMARK INTRA:                  -0.549
REMARK UNBOUND:                -1.076
REMARK  Name = 
REMARK  9 active torsions:
REMARK  status: ('A' for Active; 'I' for Inactive)
REMARK    1  A    between atoms: C_1  and  C_2
REMARK    2  A    between atoms: C_4  and  C_5
REMARK    3  A    between atoms: C_5  and  C_6
REMARK    4  A    between atoms: C_5  and  C_7
REMARK    5  A    between atoms: C_7  and  O_8
REMARK    6  A    between atoms: O_8  and  C_9
REMARK    7  A    between atoms: C_13  and  O_14
REMARK    8  A    between atoms: O_14  and  C_15
REMARK    9  A    between atoms: C_23  and  C_24
REMARK                            x       y       z     vdW  Elec       q    Type
REMARK                         _______ _______ _______ _____ _____    ______ ____
ROOT
ATOM      1  C   UNL     1      46.723   5.761  12.362  0.00  0.00    +0.000 C 
ATOM      2  C   UNL     1      45.689   5.631  13.480  0.00  0.00    +0.000 C 
ENDROOT
BRANCH   1   6
ATOM      3  C   UNL     1      50.653   8.782  11.292  0.00  0.00    +0.000 C 
ATOM      4  C   UNL     1      49.877   8.011  12.328  0.00  0.00    +0.000 A 
ATOM      5  C   UNL     1      48.739   7.287  11.913  0.00  0.00    +0.000 A 
ATOM      6  C   UNL     1      47.955   6.547  12.820  0.00  0.00    +0.000 A 
ATOM      7  C   UNL     1      48.350   6.527  14.161  0.00  0.00    +0.000 A 
ATOM      8  C   UNL     1      49.479   7.236  14.590  0.00  0.00    +0.000 A 
ATOM      9  C   UNL     1      50.244   7.994  13.689  0.00  0.00    +0.000 A 
BRANCH   9  10
ATOM     10  C   UNL     1      51.441   8.744  14.187  0.00  0.00    +0.000 C 
ATOM     11  N   UNL     1      51.243  10.036  14.594  0.00  0.00    +0.000 N 
ATOM     12  O   UNL     1      52.566   8.265  14.225  0.00  0.00    +0.000 OA
ATOM     13  H   UNL     1      50.399  10.554  14.400  0.00  0.00    +0.000 HD
ATOM     14  H   UNL     1      52.073  10.560  14.838  0.00  0.00    +0.000 HD
ENDBRANCH   9  10
ENDBRANCH   1   6
BRANCH   1  15
ATOM     15  C   UNL     1      46.130   6.381  11.080  0.00  0.00    +0.000 C 
BRANCH  15  16
ATOM     16  O   UNL     1      44.778   5.953  10.807  0.00  0.00    +0.000 OA
BRANCH  16  17
ATOM     17  C   UNL     1      44.707   4.715  10.194  0.00  0.00    +0.000 A 
ATOM     18  C   UNL     1      44.132   3.599  10.807  0.00  0.00    +0.000 A 
ATOM     19  C   UNL     1      44.174   2.353  10.200  0.00  0.00    +0.000 A 
ATOM     20  C   UNL     1      44.732   2.220   8.939  0.00  0.00    +0.000 A 
ATOM     21  C   UNL     1      45.195   3.339   8.242  0.00  0.00    +0.000 A 
ATOM     22  C   UNL     1      45.218   4.586   8.886  0.00  0.00    +0.000 A 
BRANCH  21  23
ATOM     23  O   UNL     1      45.630   3.258   6.932  0.00  0.00    +0.000 OA
BRANCH  23  24
ATOM     24  C   UNL     1      47.012   2.850   6.810  0.00  0.00    +0.000 C 
ATOM     25  C   UNL     1      47.456   2.775   5.363  0.00  0.00    +0.000 C 
ATOM     26  C   UNL     1      47.281   1.326   4.972  0.00  0.00    +0.000 C 
ATOM     27  O   UNL     1      47.210   0.545   6.164  0.00  0.00    +0.000 OA
ATOM     28  C   UNL     1      47.221   1.422   7.298  0.00  0.00    +0.000 C 
ENDBRANCH  23  24
ENDBRANCH  21  23
ENDBRANCH  16  17
ENDBRANCH  15  16
ENDBRANCH   1  15
TORSDOF 7
ENDMDL
MODEL 9
REMARK VINA RESULT:    -6.040      3.943      8.671
REMARK INTER + INTRA:          -9.588
REMARK INTER:                  -8.660
REMARK INTRA:                  -0.928
REMARK UNBOUND:                -1.076
REMARK  Name = 
REMARK  9 active torsions:
REMARK  status: ('A' for Active; 'I' for Inactive)
REMARK    1  A    between atoms: C_1  and  C_2
REMARK    2  A    between atoms: C_4  and  C_5
REMARK    3  A    between atoms: C_5  and  C_6
REMARK    4  A    between atoms: C_5  and  C_7
REMARK    5  A    between atoms: C_7  and  O_8
REMARK    6  A    between atoms: O_8  and  C_9
REMARK    7  A    between atoms: C_13  and  O_14
REMARK    8  A    between atoms: O_14  and  C_15
REMARK    9  A    between atoms: C_23  and  C_24
REMARK                            x       y       z     vdW  Elec       q    Type
REMARK                         _______ _______ _______ _____ _____    ______ ____
ROOT
ATOM      1  C   UNL     1      48.349   4.731  17.557  0.00  0.00    +0.000 C 
ATOM      2  C   UNL     1      48.524   6.011  18.375  0.00  0.00    +0.000 C 
ENDROOT
BRANCH   1   6
ATOM      3  C   UNL     1      53.092   3.930  19.165  0.00  0.00    +0.000 C 
ATOM      4  C   UNL     1      51.893   3.416  18.410  0.00  0.00    +0.000 A 
ATOM      5  C   UNL     1      50.749   4.240  18.327  0.00  0.00    +0.000 A 
ATOM      6  C   UNL     1      49.585   3.831  17.648  0.00  0.00    +0.000 A 
ATOM      7  C   UNL     1      49.596   2.578  17.026  0.00  0.00    +0.000 A 
ATOM      8  C   UNL     1      50.723   1.750  17.096  0.00  0.00    +0.000 A 
ATOM      9  C   UNL     1      51.873   2.148  17.796  0.00  0.00    +0.000 A 
BRANCH   9  10
ATOM     10  C   UNL     1      53.056   1.232  17.853  0.00  0.00    +0.000 C 
ATOM     11  N   UNL     1      54.125   1.541  17.056  0.00  0.00    +0.000 N 
ATOM     12  O   UNL     1      53.096   0.229  18.554  0.00  0.00    +0.000 OA
ATOM     13  H   UNL     1      54.082   2.223  16.314  0.00  0.00    +0.000 HD
ATOM     14  H   UNL     1      54.877   0.864  17.033  0.00  0.00    +0.000 HD
ENDBRANCH   9  10
ENDBRANCH   1   6
BRANCH   1  15
ATOM     15  C   UNL     1      47.995   5.018  16.083  0.00  0.00    +0.000 C 
BRANCH  15  16
ATOM     16  O   UNL     1      48.900   5.946  15.446  0.00  0.00    +0.000 OA
BRANCH  16  17
ATOM     17  C   UNL     1      48.450   6.395  14.218  0.00  0.00    +0.000 A 
ATOM     18  C   UNL     1      49.042   7.464  13.539  0.00  0.00    +0.000 A 
ATOM     19  C   UNL     1      48.497   7.949  12.360  0.00  0.00    +0.000 A 
ATOM     20  C   UNL     1      47.391   7.326  11.807  0.00  0.00    +0.000 A 
ATOM     21  C   UNL     1      46.855   6.173  12.387  0.00  0.00    +0.000 A 
ATOM     22  C   UNL     1      47.362   5.728  13.619  0.00  0.00    +0.000 A 
BRANCH  21  23
ATOM     23  O   UNL     1      45.839   5.454  11.785  0.00  0.00    +0.000 OA
BRANCH  23  24
ATOM     24  C   UNL     1      45.095   4.627  12.709  0.00  0.00    +0.000 C 
ATOM     25  C   UNL     1      44.906   3.218  12.183  0.00  0.00    +0.000 C 
ATOM     26  C   UNL     1      43.546   3.225  11.523  0.00  0.00    +0.000 C 
ATOM     27  O   UNL     1      42.812   4.344  12.017  0.00  0.00    +0.000 OA
ATOM     28  C   UNL     1      43.663   5.117  12.873  0.00  0.00    +0.000 C 
ENDBRANCH  23  24
ENDBRANCH  21  23
ENDBRANCH  16  17
ENDBRANCH  15  16
ENDBRANCH   1  15
TORSDOF 7
ENDMDL
