MODEL 1
REMARK VINA RESULT:    -7.824      0.000      0.000
REMARK INTER + INTRA:         -11.450
REMARK INTER:                 -10.568
REMARK INTRA:                  -0.882
REMARK UNBOUND:                -0.882
REMARK  Name = 
REMARK  7 active torsions:
REMARK  status: ('A' for Active; 'I' for Inactive)
REMARK    1  A    between atoms: C_1  and  N_2
REMARK    2  A    between atoms: N_2  and  C_3
REMARK    3  A    between atoms: C_3  and  C_4
REMARK    4  A    between atoms: C_7  and  C_8
REMARK    5  A    between atoms: C_8  and  N_9
REMARK    6  A    between atoms: C_10  and  C_12
REMARK    7  A    between atoms: C_24  and  C_26
REMARK                            x       y       z     vdW  Elec       q    Type
REMARK                         _______ _______ _______ _____ _____    ______ ____
ROOT
ATOM      1  C   UNL     1      46.407   4.327  13.328  0.00  0.00    +0.000 A 
ATOM      2  C   UNL     1      46.848   5.608  12.963  0.00  0.00    +0.000 A 
ATOM      3  C   UNL     1      47.632   6.373  13.836  0.00  0.00    +0.000 A 
ATOM      4  C   UNL     1      48.039   5.854  15.071  0.00  0.00    +0.000 A 
ATOM      5  C   UNL     1      47.649   4.550  15.409  0.00  0.00    +0.000 A 
ATOM      6  C   UNL     1      46.842   3.794  14.548  0.00  0.00    +0.000 A 
ENDROOT
BRANCH   1   7
ATOM      7  C   UNL     1      45.375   3.613  12.482  0.00  0.00    +0.000 C 
BRANCH   7   9
ATOM      8  C   UNL     1      43.219   4.728  13.208  0.00  0.00    +0.000 C 
ATOM      9  N   UNL     1      44.111   4.282  12.153  0.00  0.00    +0.000 N 
ATOM     10  C   UNL     1      43.799   4.700  10.843  0.00  0.00    +0.000 C 
ATOM     11  O   UNL     1      42.862   5.459  10.601  0.00  0.00    +0.000 OA
BRANCH  10  12
ATOM     12  C   UNL     1      44.631   4.247   9.684  0.00  0.00    +0.000 A 
ATOM     13  C   UNL     1      45.527   5.134   9.105  0.00  0.00    +0.000 A 
ATOM     14  N   UNL     1      46.337   4.783   8.071  0.00  0.00    +0.000 NA
ATOM     15  C   UNL     1      46.199   3.511   7.632  0.00  0.00    +0.000 A 
ATOM     16  C   UNL     1      45.293   2.627   8.197  0.00  0.00    +0.000 A 
ATOM     17  N   UNL     1      44.489   2.973   9.225  0.00  0.00    +0.000 NA
ENDBRANCH  10  12
ENDBRANCH   7   9
ENDBRANCH   1   7
BRANCH   4  18
ATOM     18  C   UNL     1      48.844   6.693  16.036  0.00  0.00    +0.000 C 
BRANCH  18  19
ATOM     19  N   UNL     1      49.968   5.962  16.573  0.00  0.00    +0.000 N 
ATOM     20  C   UNL     1      49.900   5.340  17.795  0.00  0.00    +0.000 C 
ATOM     21  O   UNL     1      48.884   5.356  18.482  0.00  0.00    +0.000 OA
ATOM     22  H   UNL     1      50.874   6.129  16.147  0.00  0.00    +0.000 HD
BRANCH  20  23
ATOM     23  C   UNL     1      51.091   4.583  18.215  0.00  0.00    +0.000 A 
ATOM     24  C   UNL     1      52.076   5.206  18.972  0.00  0.00    +0.000 A 
ATOM     25  S   UNL     1      53.361   4.175  19.410  0.00  0.00    +0.000 S 
ATOM     26  C   UNL     1      52.681   2.874  18.551  0.00  0.00    +0.000 A 
ATOM     27  N   UNL     1      53.314   1.670  18.487  0.00  0.00    +0.000 NA
ATOM     28  C   UNL     1      52.702   0.784  17.776  0.00  0.00    +0.000 A 
ATOM     29  N   UNL     1      51.509   0.986  17.131  0.00  0.00    +0.000 N 
ATOM     30  C   UNL     1      50.811   2.169  17.208  0.00  0.00    +0.000 A 
ATOM     31  O   UNL     1      49.709   2.291  16.684  0.00  0.00    +0.000 OA
ATOM     32  C   UNL     1      51.473   3.211  17.968  0.00  0.00    +0.000 A 
ATOM     33  H   UNL     1      51.072   0.244  16.606  0.00  0.00    +0.000 HD
ENDBRANCH  20  23
ENDBRANCH  18  19
ENDBRANCH   4  18
TORSDOF 6
ENDMDL
MODEL 2
REMARK VINA RESULT:    -7.511      3.585      8.452
REMARK INTER + INTRA:         -11.028
REMARK INTER:                  -9.693
REMARK INTRA:                  -1.335
REMARK UNBOUND:                -0.882
REMARK  Name = 
REMARK  7 active torsions:
REMARK  status: ('A' for Active; 'I' for Inactive)
REMARK    1  A    between atoms: C_1  and  N_2
REMARK    2  A    between atoms: N_2  and  C_3
REMARK    3  A    between atoms: C_3  and  C_4
REMARK    4  A    between atoms: C_7  and  C_8
REMARK    5  A    between atoms: C_8  and  N_9
REMARK    6  A    between atoms: C_10  and  C_12
REMARK    7  A    between atoms: C_24  and  C_26
REMARK                            x       y       z     vdW  Elec       q    Type
REMARK                         _______ _______ _______ _____ _____    ______ ____
ROOT
ATOM      1  C   UNL     1      49.096   7.574  16.304  0.00  0.00    +0.000 A 
ATOM      2  C   UNL     1      49.549   6.705  15.300  0.00  0.00    +0.000 A 
ATOM      3  C   UNL     1      49.219   6.926  13.957  0.00  0.00    +0.000 A 
ATOM      4  C   UNL     1      48.473   8.050  13.580  0.00  0.00    +0.000 A 
ATOM      5  C   UNL     1      48.073   8.951  14.579  0.00  0.00    +0.000 A 
ATOM      6  C   UNL     1      48.381   8.717  15.925  0.00  0.00    +0.000 A 
ENDROOT
BRANCH   1   7
ATOM      7  C   UNL     1      49.261   7.197  17.761  0.00  0.00    +0.000 C 
BRANCH   7   9
ATOM      8  C   UNL     1      47.482   8.059  19.347  0.00  0.00    +0.000 C 
ATOM      9  N   UNL     1      48.075   6.968  18.593  0.00  0.00    +0.000 N 
ATOM     10  C   UNL     1      47.345   5.761  18.549  0.00  0.00    +0.000 C 
ATOM     11  O   UNL     1      46.232   5.647  19.060  0.00  0.00    +0.000 OA
BRANCH  10  12
ATOM     12  C   UNL     1      47.901   4.565  17.842  0.00  0.00    +0.000 A 
ATOM     13  C   UNL     1      47.347   4.177  16.629  0.00  0.00    +0.000 A 
ATOM     14  N   UNL     1      47.820   3.121  15.916  0.00  0.00    +0.000 NA
ATOM     15  C   UNL     1      48.860   2.461  16.476  0.00  0.00    +0.000 A 
ATOM     16  C   UNL     1      49.404   2.835  17.694  0.00  0.00    +0.000 A 
ATOM     17  N   UNL     1      48.937   3.884  18.404  0.00  0.00    +0.000 NA
ENDBRANCH  10  12
ENDBRANCH   7   9
ENDBRANCH   1   7
BRANCH   4  18
ATOM     18  C   UNL     1      48.074   8.267  12.140  0.00  0.00    +0.000 C 
BRANCH  18  19
ATOM     19  N   UNL     1      47.450   7.095  11.573  0.00  0.00    +0.000 N 
ATOM     20  C   UNL     1      46.086   6.994  11.458  0.00  0.00    +0.000 C 
ATOM     21  O   UNL     1      45.331   7.894  11.812  0.00  0.00    +0.000 OA
ATOM     22  H   UNL     1      48.021   6.259  11.494  0.00  0.00    +0.000 HD
BRANCH  20  23
ATOM     23  C   UNL     1      45.568   5.774  10.817  0.00  0.00    +0.000 A 
ATOM     24  C   UNL     1      45.790   5.556   9.462  0.00  0.00    +0.000 A 
ATOM     25  S   UNL     1      45.164   4.076   8.893  0.00  0.00    +0.000 S 
ATOM     26  C   UNL     1      44.516   3.700  10.420  0.00  0.00    +0.000 A 
ATOM     27  N   UNL     1      43.805   2.555  10.617  0.00  0.00    +0.000 NA
ATOM     28  C   UNL     1      43.346   2.413  11.814  0.00  0.00    +0.000 A 
ATOM     29  N   UNL     1      43.543   3.303  12.839  0.00  0.00    +0.000 N 
ATOM     30  C   UNL     1      44.294   4.447  12.698  0.00  0.00    +0.000 A 
ATOM     31  O   UNL     1      44.516   5.183  13.655  0.00  0.00    +0.000 OA
ATOM     32  C   UNL     1      44.805   4.673  11.361  0.00  0.00    +0.000 A 
ATOM     33  H   UNL     1      43.173   3.123  13.759  0.00  0.00    +0.000 HD
ENDBRANCH  20  23
ENDBRANCH  18  19
ENDBRANCH   4  18
TORSDOF 6
ENDMDL
MODEL 3
REMARK VINA RESULT:    -7.414      2.516      3.012
REMARK INTER + INTRA:         -10.897
REMARK INTER:                 -10.523
REMARK INTRA:                  -0.375
REMARK UNBOUND:                -0.882
REMARK  Name = 
REMARK  7 active torsions:
REMARK  status: ('A' for Active; 'I' for Inactive)
REMARK    1  A    between atoms: C_1  and  N_2
REMARK    2  A    between atoms: N_2  and  C_3
REMARK    3  A    between atoms: C_3  and  C_4
REMARK    4  A    between atoms: C_7  and  C_8
REMARK    5  A    between atoms: C_8  and  N_9
REMARK    6  A    between atoms: C_10  and  C_12
REMARK    7  A    between atoms: C_24  and  C_26
REMARK                            x       y       z     vdW  Elec       q    Type
REMARK                         _______ _______ _______ _____ _____    ______ ____
ROOT
ATOM      1  C   UNL     1      45.330   6.758  11.566  0.00  0.00    +0.000 A 
ATOM      2  C   UNL     1      45.031   8.011  12.121  0.00  0.00    +0.000 A 
ATOM      3  C   UNL     1      45.940   8.658  12.967  0.00  0.00    +0.000 A 
ATOM      4  C   UNL     1      47.193   8.092  13.234  0.00  0.00    +0.000 A 
ATOM      5  C   UNL     1      47.516   6.868  12.629  0.00  0.00    +0.000 A 
ATOM      6  C   UNL     1      46.596   6.208  11.804  0.00  0.00    +0.000 A 
ENDROOT
BRANCH   1   7
ATOM      7  C   UNL     1      44.254   5.971  10.850  0.00  0.00    +0.000 C 
BRANCH   7   9
ATOM      8  C   UNL     1      42.855   4.913  12.679  0.00  0.00    +0.000 C 
ATOM      9  N   UNL     1      43.674   4.783  11.487  0.00  0.00    +0.000 N 
ATOM     10  C   UNL     1      43.708   3.510  10.879  0.00  0.00    +0.000 C 
ATOM     11  O   UNL     1      43.030   2.569  11.288  0.00  0.00    +0.000 OA
BRANCH  10  12
ATOM     12  C   UNL     1      44.566   3.267   9.678  0.00  0.00    +0.000 A 
ATOM     13  C   UNL     1      44.790   4.305   8.784  0.00  0.00    +0.000 A 
ATOM     14  N   UNL     1      45.583   4.166   7.688  0.00  0.00    +0.000 NA
ATOM     15  C   UNL     1      46.128   2.940   7.518  0.00  0.00    +0.000 A 
ATOM     16  C   UNL     1      45.893   1.896   8.399  0.00  0.00    +0.000 A 
ATOM     17  N   UNL     1      45.107   2.032   9.489  0.00  0.00    +0.000 NA
ENDBRANCH  10  12
ENDBRANCH   7   9
ENDBRANCH   1   7
BRANCH   4  18
ATOM     18  C   UNL     1      48.158   8.762  14.184  0.00  0.00    +0.000 C 
BRANCH  18  19
ATOM     19  N   UNL     1      48.398   7.959  15.360  0.00  0.00    +0.000 N 
ATOM     20  C   UNL     1      49.637   7.430  15.625  0.00  0.00    +0.000 C 
ATOM     21  O   UNL     1      50.602   7.624  14.893  0.00  0.00    +0.000 OA
ATOM     22  H   UNL     1      47.585   7.594  15.845  0.00  0.00    +0.000 HD
BRANCH  20  23
ATOM     23  C   UNL     1      49.774   6.673  16.881  0.00  0.00    +0.000 A 
ATOM     24  C   UNL     1      50.627   7.132  17.877  0.00  0.00    +0.000 A 
ATOM     25  S   UNL     1      50.631   6.162  19.279  0.00  0.00    +0.000 S 
ATOM     26  C   UNL     1      49.541   5.056  18.583  0.00  0.00    +0.000 A 
ATOM     27  N   UNL     1      49.146   3.942  19.259  0.00  0.00    +0.000 NA
ATOM     28  C   UNL     1      48.345   3.176  18.599  0.00  0.00    +0.000 A 
ATOM     29  N   UNL     1      47.890   3.426  17.330  0.00  0.00    +0.000 N 
ATOM     30  C   UNL     1      48.224   4.562  16.629  0.00  0.00    +0.000 A 
ATOM     31  O   UNL     1      47.739   4.793  15.526  0.00  0.00    +0.000 OA
ATOM     32  C   UNL     1      49.152   5.441  17.312  0.00  0.00    +0.000 A 
ATOM     33  H   UNL     1      47.248   2.795  16.877  0.00  0.00    +0.000 HD
ENDBRANCH  20  23
ENDBRANCH  18  19
ENDBRANCH   4  18
TORSDOF 6
ENDMDL
MODEL 4
REMARK VINA RESULT:    -7.216      3.182      8.968
REMARK INTER + INTRA:         -10.629
REMARK INTER:                  -9.376
REMARK INTRA:                  -1.253
REMARK UNBOUND:                -0.882
REMARK  Name = 
REMARK  7 active torsions:
REMARK  status: ('A' for Active; 'I' for Inactive)
REMARK    1  A    between atoms: C_1  and  N_2
REMARK    2  A    between atoms: N_2  and  C_3
REMARK    3  A    between atoms: C_3  and  C_4
REMARK    4  A    between atoms: C_7  and  C_8
REMARK    5  A    between atoms: C_8  and  N_9
REMARK    6  A    between atoms: C_10  and  C_12
REMARK    7  A    between atoms: C_24  and  C_26
REMARK                            x       y       z     vdW  Elec       q    Type
REMARK                         _______ _______ _______ _____ _____    ______ ____
ROOT
ATOM      1  C   UNL     1      49.066   8.042  15.923  0.00  0.00    +0.000 A 
ATOM      2  C   UNL     1      49.573   7.059  15.059  0.00  0.00    +0.000 A 
ATOM      3  C   UNL     1      49.116   6.959  13.739  0.00  0.00    +0.000 A 
ATOM      4  C   UNL     1      48.182   7.873  13.235  0.00  0.00    +0.000 A 
ATOM      5  C   UNL     1      47.723   8.893  14.082  0.00  0.00    +0.000 A 
ATOM      6  C   UNL     1      48.159   8.977  15.410  0.00  0.00    +0.000 A 
ENDROOT
BRANCH   1   7
ATOM      7  C   UNL     1      49.392   7.990  17.400  0.00  0.00    +0.000 C 
BRANCH   7   9
ATOM      8  C   UNL     1      47.453   8.676  18.880  0.00  0.00    +0.000 C 
ATOM      9  N   UNL     1      48.342   7.649  18.367  0.00  0.00    +0.000 N 
ATOM     10  C   UNL     1      48.016   6.314  18.685  0.00  0.00    +0.000 C 
ATOM     11  O   UNL     1      46.997   6.017  19.306  0.00  0.00    +0.000 OA
BRANCH  10  12
ATOM     12  C   UNL     1      48.903   5.192  18.245  0.00  0.00    +0.000 A 
ATOM     13  C   UNL     1      48.460   4.328  17.252  0.00  0.00    +0.000 A 
ATOM     14  N   UNL     1      49.223   3.306  16.781  0.00  0.00    +0.000 NA
ATOM     15  C   UNL     1      50.441   3.178  17.355  0.00  0.00    +0.000 A 
ATOM     16  C   UNL     1      50.879   4.028  18.358  0.00  0.00    +0.000 A 
ATOM     17  N   UNL     1      50.124   5.044  18.827  0.00  0.00    +0.000 NA
ENDBRANCH  10  12
ENDBRANCH   7   9
ENDBRANCH   1   7
BRANCH   4  18
ATOM     18  C   UNL     1      47.651   7.741  11.827  0.00  0.00    +0.000 C 
BRANCH  18  19
ATOM     19  N   UNL     1      46.942   6.498  11.636  0.00  0.00    +0.000 N 
ATOM     20  C   UNL     1      45.571   6.439  11.695  0.00  0.00    +0.000 C 
ATOM     21  O   UNL     1      44.881   7.434  11.894  0.00  0.00    +0.000 OA
ATOM     22  H   UNL     1      47.481   5.641  11.705  0.00  0.00    +0.000 HD
BRANCH  20  23
ATOM     23  C   UNL     1      44.957   5.127  11.432  0.00  0.00    +0.000 A 
ATOM     24  C   UNL     1      44.235   4.488  12.433  0.00  0.00    +0.000 A 
ATOM     25  S   UNL     1      43.554   3.002  11.948  0.00  0.00    +0.000 S 
ATOM     26  C   UNL     1      44.253   3.125  10.401  0.00  0.00    +0.000 A 
ATOM     27  N   UNL     1      44.088   2.139   9.478  0.00  0.00    +0.000 NA
ATOM     28  C   UNL     1      44.698   2.348   8.361  0.00  0.00    +0.000 A 
ATOM     29  N   UNL     1      45.450   3.459   8.076  0.00  0.00    +0.000 N 
ATOM     30  C   UNL     1      45.603   4.502   8.960  0.00  0.00    +0.000 A 
ATOM     31  O   UNL     1      46.218   5.516   8.646  0.00  0.00    +0.000 OA
ATOM     32  C   UNL     1      44.965   4.301  10.246  0.00  0.00    +0.000 A 
ATOM     33  H   UNL     1      45.886   3.572   7.174  0.00  0.00    +0.000 HD
ENDBRANCH  20  23
ENDBRANCH  18  19
ENDBRANCH   4  18
TORSDOF 6
ENDMDL
MODEL 5
REMARK VINA RESULT:    -7.206      3.675      4.358
REMARK INTER + INTRA:         -10.615
REMARK INTER:                 -10.579
REMARK INTRA:                  -0.037
REMARK UNBOUND:                -0.882
REMARK  Name = 
REMARK  7 active torsions:
REMARK  status: ('A' for Active; 'I' for Inactive)
REMARK    1  A    between atoms: C_1  and  N_2
REMARK    2  A    between atoms: N_2  and  C_3
REMARK    3  A    between atoms: C_3  and  C_4
REMARK    4  A    between atoms: C_7  and  C_8
REMARK    5  A    between atoms: C_8  and  N_9
REMARK    6  A    between atoms: C_10  and  C_12
REMARK    7  A    between atoms: C_24  and  C_26
REMARK                            x       y       z     vdW  Elec       q    Type
REMARK                         _______ _______ _______ _____ _____    ______ ____
ROOT
ATOM      1  C   UNL     1      45.454   6.560  12.022  0.00  0.00    +0.000 A 
ATOM      2  C   UNL     1      46.579   6.046  12.684  0.00  0.00    +0.000 A 
ATOM      3  C   UNL     1      47.424   6.886  13.420  0.00  0.00    +0.000 A 
ATOM      4  C   UNL     1      47.135   8.249  13.556  0.00  0.00    +0.000 A 
ATOM      5  C   UNL     1      45.976   8.750  12.945  0.00  0.00    +0.000 A 
ATOM      6  C   UNL     1      45.144   7.916  12.186  0.00  0.00    +0.000 A 
ENDROOT
BRANCH   1   7
ATOM      7  C   UNL     1      44.689   5.692  11.046  0.00  0.00    +0.000 C 
BRANCH   7   9
ATOM      8  C   UNL     1      43.203   4.500  12.718  0.00  0.00    +0.000 C 
ATOM      9  N   UNL     1      44.024   4.473  11.521  0.00  0.00    +0.000 N 
ATOM     10  C   UNL     1      43.979   3.291  10.751  0.00  0.00    +0.000 C 
ATOM     11  O   UNL     1      43.236   2.352  11.031  0.00  0.00    +0.000 OA
BRANCH  10  12
ATOM     12  C   UNL     1      44.831   3.150   9.528  0.00  0.00    +0.000 A 
ATOM     13  C   UNL     1      45.078   4.267   8.742  0.00  0.00    +0.000 A 
ATOM     14  N   UNL     1      45.867   4.220   7.636  0.00  0.00    +0.000 NA
ATOM     15  C   UNL     1      46.386   3.005   7.343  0.00  0.00    +0.000 A 
ATOM     16  C   UNL     1      46.127   1.885   8.116  0.00  0.00    +0.000 A 
ATOM     17  N   UNL     1      45.345   1.929   9.216  0.00  0.00    +0.000 NA
ENDBRANCH  10  12
ENDBRANCH   7   9
ENDBRANCH   1   7
BRANCH   4  18
ATOM     18  C   UNL     1      48.068   9.168  14.308  0.00  0.00    +0.000 C 
BRANCH  18  19
ATOM     19  N   UNL     1      47.799   9.163  15.727  0.00  0.00    +0.000 N 
ATOM     20  C   UNL     1      48.573   8.440  16.600  0.00  0.00    +0.000 C 
ATOM     21  O   UNL     1      49.537   7.779  16.228  0.00  0.00    +0.000 OA
ATOM     22  H   UNL     1      46.889   9.500  16.026  0.00  0.00    +0.000 HD
BRANCH  20  23
ATOM     23  C   UNL     1      48.234   8.553  18.029  0.00  0.00    +0.000 A 
ATOM     24  C   UNL     1      48.217   9.802  18.639  0.00  0.00    +0.000 A 
ATOM     25  S   UNL     1      47.760   9.758  20.281  0.00  0.00    +0.000 S 
ATOM     26  C   UNL     1      47.631   8.062  20.256  0.00  0.00    +0.000 A 
ATOM     27  N   UNL     1      47.301   7.367  21.380  0.00  0.00    +0.000 NA
ATOM     28  C   UNL     1      47.270   6.087  21.225  0.00  0.00    +0.000 A 
ATOM     29  N   UNL     1      47.526   5.435  20.046  0.00  0.00    +0.000 N 
ATOM     30  C   UNL     1      47.815   6.098  18.875  0.00  0.00    +0.000 A 
ATOM     31  O   UNL     1      47.962   5.489  17.820  0.00  0.00    +0.000 OA
ATOM     32  C   UNL     1      47.897   7.539  19.002  0.00  0.00    +0.000 A 
ATOM     33  H   UNL     1      47.467   4.431  19.986  0.00  0.00    +0.000 HD
ENDBRANCH  20  23
ENDBRANCH  18  19
ENDBRANCH   4  18
TORSDOF 6
ENDMDL
MODEL 6
REMARK VINA RESULT:    -7.179      2.256      3.150
REMARK INTER + INTRA:         -10.580
REMARK INTER:                  -9.713
REMARK INTRA:                  -0.866
REMARK UNBOUND:                -0.882
REMARK  Name = 
REMARK  7 active torsions:
REMARK  status: ('A' for Active; 'I' for Inactive)
REMARK    1  A    between atoms: C_1  and  N_2
REMARK    2  A    between atoms: N_2  and  C_3
REMARK    3  A    between atoms: C_3  and  C_4
REMARK    4  A    between atoms: C_7  and  C_8
REMARK    5  A    between atoms: C_8  and  N_9
REMARK    6  A    between atoms: C_10  and  C_12
REMARK    7  A    between atoms: C_24  and  C_26
REMARK                            x       y       z     vdW  Elec       q    Type
REMARK                         _______ _______ _______ _____ _____    ______ ____
ROOT
ATOM      1  C   UNL     1      46.374   4.717  13.422  0.00  0.00    +0.000 A 
ATOM      2  C   UNL     1      46.794   4.318  14.699  0.00  0.00    +0.000 A 
ATOM      3  C   UNL     1      47.782   5.033  15.387  0.00  0.00    +0.000 A 
ATOM      4  C   UNL     1      48.335   6.196  14.836  0.00  0.00    +0.000 A 
ATOM      5  C   UNL     1      47.870   6.629  13.586  0.00  0.00    +0.000 A 
ATOM      6  C   UNL     1      46.901   5.899  12.885  0.00  0.00    +0.000 A 
ENDROOT
BRANCH   1   7
ATOM      7  C   UNL     1      45.485   3.809  12.600  0.00  0.00    +0.000 C 
BRANCH   7   9
ATOM      8  C   UNL     1      43.223   4.774  13.212  0.00  0.00    +0.000 C 
ATOM      9  N   UNL     1      44.142   4.258  12.213  0.00  0.00    +0.000 N 
ATOM     10  C   UNL     1      43.756   4.401  10.864  0.00  0.00    +0.000 C 
ATOM     11  O   UNL     1      42.728   4.991  10.534  0.00  0.00    +0.000 OA
BRANCH  10  12
ATOM     12  C   UNL     1      44.613   3.853   9.767  0.00  0.00    +0.000 A 
ATOM     13  C   UNL     1      45.387   4.723   9.012  0.00  0.00    +0.000 A 
ATOM     14  N   UNL     1      46.213   4.294   8.022  0.00  0.00    +0.000 NA
ATOM     15  C   UNL     1      46.220   2.958   7.810  0.00  0.00    +0.000 A 
ATOM     16  C   UNL     1      45.437   2.087   8.551  0.00  0.00    +0.000 A 
ATOM     17  N   UNL     1      44.616   2.511   9.536  0.00  0.00    +0.000 NA
ENDBRANCH  10  12
ENDBRANCH   7   9
ENDBRANCH   1   7
BRANCH   4  18
ATOM     18  C   UNL     1      49.435   6.945  15.552  0.00  0.00    +0.000 C 
BRANCH  18  19
ATOM     19  N   UNL     1      49.463   6.639  16.962  0.00  0.00    +0.000 N 
ATOM     20  C   UNL     1      50.264   5.643  17.464  0.00  0.00    +0.000 C 
ATOM     21  O   UNL     1      51.005   4.977  16.749  0.00  0.00    +0.000 OA
ATOM     22  H   UNL     1      48.704   7.002  17.530  0.00  0.00    +0.000 HD
BRANCH  20  23
ATOM     23  C   UNL     1      50.246   5.457  18.924  0.00  0.00    +0.000 A 
ATOM     24  C   UNL     1      51.425   5.159  19.599  0.00  0.00    +0.000 A 
ATOM     25  S   UNL     1      51.235   5.022  21.287  0.00  0.00    +0.000 S 
ATOM     26  C   UNL     1      49.559   5.293  21.175  0.00  0.00    +0.000 A 
ATOM     27  N   UNL     1      48.770   5.271  22.285  0.00  0.00    +0.000 NA
ATOM     28  C   UNL     1      47.515   5.460  22.050  0.00  0.00    +0.000 A 
ATOM     29  N   UNL     1      46.977   5.682  20.808  0.00  0.00    +0.000 N 
ATOM     30  C   UNL     1      47.741   5.761  19.667  0.00  0.00    +0.000 A 
ATOM     31  O   UNL     1      47.237   6.038  18.583  0.00  0.00    +0.000 OA
ATOM     32  C   UNL     1      49.156   5.521  19.871  0.00  0.00    +0.000 A 
ATOM     33  H   UNL     1      45.988   5.842  20.694  0.00  0.00    +0.000 HD
ENDBRANCH  20  23
ENDBRANCH  18  19
ENDBRANCH   4  18
TORSDOF 6
ENDMDL
MODEL 7
REMARK VINA RESULT:    -7.062      3.258     10.298
REMARK INTER + INTRA:         -10.421
REMARK INTER:                  -9.404
REMARK INTRA:                  -1.017
REMARK UNBOUND:                -0.882
REMARK  Name = 
REMARK  7 active torsions:
REMARK  status: ('A' for Active; 'I' for Inactive)
REMARK    1  A    between atoms: C_1  and  N_2
REMARK    2  A    between atoms: N_2  and  C_3
REMARK    3  A    between atoms: C_3  and  C_4
REMARK    4  A    between atoms: C_7  and  C_8
REMARK    5  A    between atoms: C_8  and  N_9
REMARK    6  A    between atoms: C_10  and  C_12
REMARK    7  A    between atoms: C_24  and  C_26
REMARK                            x       y       z     vdW  Elec       q    Type
REMARK                         _______ _______ _______ _____ _____    ______ ____
ROOT
ATOM      1  C   UNL     1      51.484   3.124  17.725  0.00  0.00    +0.000 A 
ATOM      2  C   UNL     1      50.818   4.318  18.039  0.00  0.00    +0.000 A 
ATOM      3  C   UNL     1      49.450   4.467  17.781  0.00  0.00    +0.000 A 
ATOM      4  C   UNL     1      48.704   3.406  17.251  0.00  0.00    +0.000 A 
ATOM      5  C   UNL     1      49.359   2.192  16.995  0.00  0.00    +0.000 A 
ATOM      6  C   UNL     1      50.733   2.052  17.228  0.00  0.00    +0.000 A 
ENDROOT
BRANCH   1   7
ATOM      7  C   UNL     1      52.995   3.061  17.791  0.00  0.00    +0.000 C 
BRANCH   7   9
ATOM      8  C   UNL     1      54.040   0.845  18.435  0.00  0.00    +0.000 C 
ATOM      9  N   UNL     1      53.647   2.199  18.783  0.00  0.00    +0.000 N 
ATOM     10  C   UNL     1      54.098   2.689  20.026  0.00  0.00    +0.000 C 
ATOM     11  O   UNL     1      54.844   2.038  20.757  0.00  0.00    +0.000 OA
BRANCH  10  12
ATOM     12  C   UNL     1      53.700   4.053  20.493  0.00  0.00    +0.000 A 
ATOM     13  C   UNL     1      54.507   5.138  20.182  0.00  0.00    +0.000 A 
ATOM     14  N   UNL     1      54.192   6.410  20.546  0.00  0.00    +0.000 NA
ATOM     15  C   UNL     1      53.043   6.546  21.247  0.00  0.00    +0.000 A 
ATOM     16  C   UNL     1      52.244   5.462  21.575  0.00  0.00    +0.000 A 
ATOM     17  N   UNL     1      52.554   4.198  21.213  0.00  0.00    +0.000 NA
ENDBRANCH  10  12
ENDBRANCH   7   9
ENDBRANCH   1   7
BRANCH   4  18
ATOM     18  C   UNL     1      47.239   3.576  16.925  0.00  0.00    +0.000 C 
BRANCH  18  19
ATOM     19  N   UNL     1      47.028   4.584  15.913  0.00  0.00    +0.000 N 
ATOM     20  C   UNL     1      47.064   4.275  14.576  0.00  0.00    +0.000 C 
ATOM     21  O   UNL     1      47.259   3.132  14.173  0.00  0.00    +0.000 OA
ATOM     22  H   UNL     1      47.100   5.554  16.204  0.00  0.00    +0.000 HD
BRANCH  20  23
ATOM     23  C   UNL     1      46.783   5.375  13.639  0.00  0.00    +0.000 A 
ATOM     24  C   UNL     1      47.782   6.288  13.323  0.00  0.00    +0.000 A 
ATOM     25  S   UNL     1      47.302   7.468  12.189  0.00  0.00    +0.000 S 
ATOM     26  C   UNL     1      45.721   6.841  12.127  0.00  0.00    +0.000 A 
ATOM     27  N   UNL     1      44.766   7.427  11.352  0.00  0.00    +0.000 NA
ATOM     28  C   UNL     1      43.605   6.868  11.425  0.00  0.00    +0.000 A 
ATOM     29  N   UNL     1      43.313   5.769  12.191  0.00  0.00    +0.000 N 
ATOM     30  C   UNL     1      44.257   5.117  12.951  0.00  0.00    +0.000 A 
ATOM     31  O   UNL     1      43.980   4.091  13.564  0.00  0.00    +0.000 OA
ATOM     32  C   UNL     1      45.572   5.726  12.932  0.00  0.00    +0.000 A 
ATOM     33  H   UNL     1      42.388   5.368  12.189  0.00  0.00    +0.000 HD
ENDBRANCH  20  23
ENDBRANCH  18  19
ENDBRANCH   4  18
TORSDOF 6
ENDMDL
MODEL 8
REMARK VINA RESULT:    -6.989      3.334      8.837
REMARK INTER + INTRA:         -10.323
REMARK INTER:                  -9.235
REMARK INTRA:                  -1.088
REMARK UNBOUND:                -0.882
REMARK  Name = 
REMARK  7 active torsions:
REMARK  status: ('A' for Active; 'I' for Inactive)
REMARK    1  A    between atoms: C_1  and  N_2
REMARK    2  A    between atoms: N_2  and  C_3
REMARK    3  A    between atoms: C_3  and  C_4
REMARK    4  A    between atoms: C_7  and  C_8
REMARK    5  A    between atoms: C_8  and  N_9
REMARK    6  A    between atoms: C_10  and  C_12
REMARK    7  A    between atoms: C_24  and  C_26
REMARK                            x       y       z     vdW  Elec       q    Type
REMARK                         _______ _______ _______ _____ _____    ______ ____
ROOT
ATOM      1  C   UNL     1      50.055   7.055  15.945  0.00  0.00    +0.000 A 
ATOM      2  C   UNL     1      50.781   7.882  15.075  0.00  0.00    +0.000 A 
ATOM      3  C   UNL     1      50.300   8.172  13.792  0.00  0.00    +0.000 A 
ATOM      4  C   UNL     1      49.057   7.686  13.368  0.00  0.00    +0.000 A 
ATOM      5  C   UNL     1      48.304   6.909  14.261  0.00  0.00    +0.000 A 
ATOM      6  C   UNL     1      48.796   6.597  15.535  0.00  0.00    +0.000 A 
ENDROOT
BRANCH   1   7
ATOM      7  C   UNL     1      50.691   6.563  17.227  0.00  0.00    +0.000 C 
BRANCH   7   9
ATOM      8  C   UNL     1      53.101   5.804  17.043  0.00  0.00    +0.000 C 
ATOM      9  N   UNL     1      51.691   5.490  17.181  0.00  0.00    +0.000 N 
ATOM     10  C   UNL     1      51.367   4.147  17.466  0.00  0.00    +0.000 C 
ATOM     11  O   UNL     1      52.228   3.290  17.658  0.00  0.00    +0.000 OA
BRANCH  10  12
ATOM     12  C   UNL     1      49.937   3.718  17.574  0.00  0.00    +0.000 A 
ATOM     13  C   UNL     1      49.242   3.967  18.749  0.00  0.00    +0.000 A 
ATOM     14  N   UNL     1      47.933   3.634  18.908  0.00  0.00    +0.000 NA
ATOM     15  C   UNL     1      47.355   3.029  17.845  0.00  0.00    +0.000 A 
ATOM     16  C   UNL     1      48.052   2.763  16.676  0.00  0.00    +0.000 A 
ATOM     17  N   UNL     1      49.351   3.094  16.516  0.00  0.00    +0.000 NA
ENDBRANCH  10  12
ENDBRANCH   7   9
ENDBRANCH   1   7
BRANCH   4  18
ATOM     18  C   UNL     1      48.556   7.955  11.969  0.00  0.00    +0.000 C 
BRANCH  18  19
ATOM     19  N   UNL     1      47.788   6.848  11.451  0.00  0.00    +0.000 N 
ATOM     20  C   UNL     1      46.416   6.881  11.417  0.00  0.00    +0.000 C 
ATOM     21  O   UNL     1      45.775   7.853  11.805  0.00  0.00    +0.000 OA
ATOM     22  H   UNL     1      48.269   5.959  11.347  0.00  0.00    +0.000 HD
BRANCH  20  23
ATOM     23  C   UNL     1      45.744   5.716  10.819  0.00  0.00    +0.000 A 
ATOM     24  C   UNL     1      45.840   5.487   9.451  0.00  0.00    +0.000 A 
ATOM     25  S   UNL     1      45.043   4.071   8.934  0.00  0.00    +0.000 S 
ATOM     26  C   UNL     1      44.485   3.745  10.508  0.00  0.00    +0.000 A 
ATOM     27  N   UNL     1      43.692   2.668  10.760  0.00  0.00    +0.000 NA
ATOM     28  C   UNL     1      43.316   2.560  11.990  0.00  0.00    +0.000 A 
ATOM     29  N   UNL     1      43.669   3.424  12.995  0.00  0.00    +0.000 N 
ATOM     30  C   UNL     1      44.506   4.497  12.795  0.00  0.00    +0.000 A 
ATOM     31  O   UNL     1      44.866   5.205  13.730  0.00  0.00    +0.000 OA
ATOM     32  C   UNL     1      44.931   4.684  11.422  0.00  0.00    +0.000 A 
ATOM     33  H   UNL     1      43.357   3.272  13.941  0.00  0.00    +0.000 HD
ENDBRANCH  20  23
ENDBRANCH  18  19
ENDBRANCH   4  18
TORSDOF 6
ENDMDL
MODEL 9
REMARK VINA RESULT:    -6.749      3.625      8.399
REMARK INTER + INTRA:          -9.998
REMARK INTER:                  -8.682
REMARK INTRA:                  -1.316
REMARK UNBOUND:                -0.882
REMARK  Name = 
REMARK  7 active torsions:
REMARK  status: ('A' for Active; 'I' for Inactive)
REMARK    1  A    between atoms: C_1  and  N_2
REMARK    2  A    between atoms: N_2  and  C_3
REMARK    3  A    between atoms: C_3  and  C_4
REMARK    4  A    between atoms: C_7  and  C_8
REMARK    5  A    between atoms: C_8  and  N_9
REMARK    6  A    between atoms: C_10  and  C_12
REMARK    7  A    between atoms: C_24  and  C_26
REMARK                            x       y       z     vdW  Elec       q    Type
REMARK                         _______ _______ _______ _____ _____    ______ ____
ROOT
ATOM      1  C   UNL     1      50.496   6.818  17.610  0.00  0.00    +0.000 A 
ATOM      2  C   UNL     1      50.629   6.633  16.226  0.00  0.00    +0.000 A 
ATOM      3  C   UNL     1      49.853   7.373  15.326  0.00  0.00    +0.000 A 
ATOM      4  C   UNL     1      48.964   8.352  15.785  0.00  0.00    +0.000 A 
ATOM      5  C   UNL     1      48.877   8.579  17.167  0.00  0.00    +0.000 A 
ATOM      6  C   UNL     1      49.634   7.821  18.070  0.00  0.00    +0.000 A 
ENDROOT
BRANCH   1   7
ATOM      7  C   UNL     1      51.164   5.856  18.569  0.00  0.00    +0.000 C 
BRANCH   7   9
ATOM      8  C   UNL     1      50.859   5.991  21.081  0.00  0.00    +0.000 C 
ATOM      9  N   UNL     1      50.468   5.445  19.793  0.00  0.00    +0.000 N 
ATOM     10  C   UNL     1      49.284   4.678  19.765  0.00  0.00    +0.000 C 
ATOM     11  O   UNL     1      48.574   4.529  20.758  0.00  0.00    +0.000 OA
BRANCH  10  12
ATOM     12  C   UNL     1      48.831   4.030  18.495  0.00  0.00    +0.000 A 
ATOM     13  C   UNL     1      49.637   3.072  17.896  0.00  0.00    +0.000 A 
ATOM     14  N   UNL     1      49.276   2.421  16.759  0.00  0.00    +0.000 NA
ATOM     15  C   UNL     1      48.079   2.780  16.239  0.00  0.00    +0.000 A 
ATOM     16  C   UNL     1      47.279   3.749  16.825  0.00  0.00    +0.000 A 
ATOM     17  N   UNL     1      47.636   4.396  17.955  0.00  0.00    +0.000 NA
ENDBRANCH  10  12
ENDBRANCH   7   9
ENDBRANCH   1   7
BRANCH   4  18
ATOM     18  C   UNL     1      48.089   9.119  14.822  0.00  0.00    +0.000 C 
BRANCH  18  19
ATOM     19  N   UNL     1      47.069   8.279  14.238  0.00  0.00    +0.000 N 
ATOM     20  C   UNL     1      47.010   8.061  12.884  0.00  0.00    +0.000 C 
ATOM     21  O   UNL     1      47.824   8.548  12.106  0.00  0.00    +0.000 OA
ATOM     22  H   UNL     1      46.263   8.062  14.814  0.00  0.00    +0.000 HD
BRANCH  20  23
ATOM     23  C   UNL     1      45.958   7.146  12.410  0.00  0.00    +0.000 A 
ATOM     24  C   UNL     1      44.853   7.651  11.736  0.00  0.00    +0.000 A 
ATOM     25  S   UNL     1      43.757   6.453  11.218  0.00  0.00    +0.000 S 
ATOM     26  C   UNL     1      44.685   5.219  11.933  0.00  0.00    +0.000 A 
ATOM     27  N   UNL     1      44.277   3.920  11.887  0.00  0.00    +0.000 NA
ATOM     28  C   UNL     1      45.060   3.095  12.496  0.00  0.00    +0.000 A 
ATOM     29  N   UNL     1      46.220   3.445  13.138  0.00  0.00    +0.000 N 
ATOM     30  C   UNL     1      46.694   4.736  13.167  0.00  0.00    +0.000 A 
ATOM     31  O   UNL     1      47.775   5.004  13.683  0.00  0.00    +0.000 OA
ATOM     32  C   UNL     1      45.834   5.710  12.526  0.00  0.00    +0.000 A 
ATOM     33  H   UNL     1      46.798   2.748  13.579  0.00  0.00    +0.000 HD
ENDBRANCH  20  23
ENDBRANCH  18  19
ENDBRANCH   4  18
TORSDOF 6
ENDMDL
