MODEL 1
REMARK VINA RESULT:    -7.180      0.000      0.000
REMARK INTER + INTRA:          -8.736
REMARK INTER:                  -8.439
REMARK INTRA:                  -0.297
REMARK UNBOUND:                -0.297
REMARK  Name = 
REMARK  3 active torsions:
REMARK  status: ('A' for Active; 'I' for Inactive)
REMARK    1  A    between atoms: C_3  and  N_4
REMARK    2  A    between atoms: N_4  and  C_5
REMARK    3  A    between atoms: C_5  and  C_6
REMARK                            x       y       z     vdW  Elec       q    Type
REMARK                         _______ _______ _______ _____ _____    ______ ____
ROOT
ATOM      1  C   UNL     1      44.942   4.483  11.348  0.00  0.00    +0.000 A 
ATOM      2  C   UNL     1      45.097   3.338  12.089  0.00  0.00    +0.000 A 
ATOM      3  N   UNL     1      45.911   3.318  13.150  0.00  0.00    +0.000 NA
ATOM      4  N   UNL     1      46.591   4.463  13.456  0.00  0.00    +0.000 NA
ATOM      5  C   UNL     1      46.425   5.594  12.731  0.00  0.00    +0.000 A 
ATOM      6  N   UNL     1      47.193   6.707  12.998  0.00  0.00    +0.000 N 
ATOM      7  C   UNL     1      48.213   6.653  14.046  0.00  0.00    +0.000 C 
ATOM      8  C   UNL     1      49.474   7.404  13.596  0.00  0.00    +0.000 C 
ATOM      9  S   UNL     1      49.157   9.158  13.183  0.00  0.00    +0.000 S 
ATOM     10  C   UNL     1      47.740   8.903  12.052  0.00  0.00    +0.000 C 
ATOM     11  C   UNL     1      46.652   8.029  12.681  0.00  0.00    +0.000 C 
ATOM     12  N   UNL     1      45.588   5.630  11.676  0.00  0.00    +0.000 NA
ENDROOT
BRANCH   1  13
ATOM     13  C   UNL     1      44.082   4.464  10.104  0.00  0.00    +0.000 C 
BRANCH  13  14
ATOM     14  N   UNL     1      44.862   4.639   8.885  0.00  0.00    +0.000 N 
ATOM     15  H   UNL     1      44.519   5.328   8.222  0.00  0.00    +0.000 HD
BRANCH  14  18
ATOM     16  C   UNL     1      46.207   1.273   8.107  0.00  0.00    +0.000 A 
ATOM     17  C   UNL     1      45.394   2.244   8.677  0.00  0.00    +0.000 A 
ATOM     18  C   UNL     1      45.569   3.581   8.316  0.00  0.00    +0.000 A 
ATOM     19  C   UNL     1      46.606   3.870   7.426  0.00  0.00    +0.000 A 
ATOM     20  C   UNL     1      47.380   2.834   6.919  0.00  0.00    +0.000 A 
ATOM     21  N   UNL     1      47.195   1.536   7.231  0.00  0.00    +0.000 NA
ENDBRANCH  14  18
ENDBRANCH  13  14
ENDBRANCH   1  13
TORSDOF 3
ENDMDL
MODEL 2
REMARK VINA RESULT:    -6.773      1.248      1.493
REMARK INTER + INTRA:          -8.257
REMARK INTER:                  -7.778
REMARK INTRA:                  -0.479
REMARK UNBOUND:                -0.297
REMARK  Name = 
REMARK  3 active torsions:
REMARK  status: ('A' for Active; 'I' for Inactive)
REMARK    1  A    between atoms: C_3  and  N_4
REMARK    2  A    between atoms: N_4  and  C_5
REMARK    3  A    between atoms: C_5  and  C_6
REMARK                            x       y       z     vdW  Elec       q    Type
REMARK                         _______ _______ _______ _____ _____    ______ ____
ROOT
ATOM      1  C   UNL     1      45.259   3.951  12.506  0.00  0.00    +0.000 A 
ATOM      2  C   UNL     1      46.204   3.148  13.093  0.00  0.00    +0.000 A 
ATOM      3  N   UNL     1      47.292   3.681  13.661  0.00  0.00    +0.000 NA
ATOM      4  N   UNL     1      47.436   5.038  13.620  0.00  0.00    +0.000 NA
ATOM      5  C   UNL     1      46.494   5.827  13.052  0.00  0.00    +0.000 A 
ATOM      6  N   UNL     1      46.705   7.184  12.935  0.00  0.00    +0.000 N 
ATOM      7  C   UNL     1      47.966   7.767  13.397  0.00  0.00    +0.000 C 
ATOM      8  C   UNL     1      48.439   8.850  12.416  0.00  0.00    +0.000 C 
ATOM      9  S   UNL     1      47.222  10.199  12.195  0.00  0.00    +0.000 S 
ATOM     10  C   UNL     1      45.753   9.164  11.843  0.00  0.00    +0.000 C 
ATOM     11  C   UNL     1      45.547   8.078  12.902  0.00  0.00    +0.000 C 
ATOM     12  N   UNL     1      45.383   5.302  12.499  0.00  0.00    +0.000 NA
ENDROOT
BRANCH   1  13
ATOM     13  C   UNL     1      44.077   3.327  11.797  0.00  0.00    +0.000 C 
BRANCH  13  14
ATOM     14  N   UNL     1      43.923   3.817  10.433  0.00  0.00    +0.000 N 
ATOM     15  H   UNL     1      42.979   4.049  10.138  0.00  0.00    +0.000 HD
BRANCH  14  18
ATOM     16  C   UNL     1      46.046   1.759   8.196  0.00  0.00    +0.000 A 
ATOM     17  C   UNL     1      45.131   2.065   9.196  0.00  0.00    +0.000 A 
ATOM     18  C   UNL     1      44.769   3.396   9.409  0.00  0.00    +0.000 A 
ATOM     19  C   UNL     1      45.402   4.362   8.622  0.00  0.00    +0.000 A 
ATOM     20  C   UNL     1      46.319   3.964   7.657  0.00  0.00    +0.000 A 
ATOM     21  N   UNL     1      46.645   2.679   7.417  0.00  0.00    +0.000 NA
ENDBRANCH  14  18
ENDBRANCH  13  14
ENDBRANCH   1  13
TORSDOF 3
ENDMDL
MODEL 3
REMARK VINA RESULT:    -6.156      2.826      3.850
REMARK INTER + INTRA:          -7.532
REMARK INTER:                  -7.207
REMARK INTRA:                  -0.325
REMARK UNBOUND:                -0.297
REMARK  Name = 
REMARK  3 active torsions:
REMARK  status: ('A' for Active; 'I' for Inactive)
REMARK    1  A    between atoms: C_3  and  N_4
REMARK    2  A    between atoms: N_4  and  C_5
REMARK    3  A    between atoms: C_5  and  C_6
REMARK                            x       y       z     vdW  Elec       q    Type
REMARK                         _______ _______ _______ _____ _____    ______ ____
ROOT
ATOM      1  C   UNL     1      45.894   5.324  13.093  0.00  0.00    +0.000 A 
ATOM      2  C   UNL     1      46.504   6.409  12.514  0.00  0.00    +0.000 A 
ATOM      3  N   UNL     1      47.613   6.932  13.050  0.00  0.00    +0.000 NA
ATOM      4  N   UNL     1      48.100   6.365  14.193  0.00  0.00    +0.000 NA
ATOM      5  C   UNL     1      47.503   5.287  14.752  0.00  0.00    +0.000 A 
ATOM      6  N   UNL     1      47.955   4.792  15.957  0.00  0.00    +0.000 N 
ATOM      7  C   UNL     1      49.062   5.455  16.647  0.00  0.00    +0.000 C 
ATOM      8  C   UNL     1      48.797   5.491  18.159  0.00  0.00    +0.000 C 
ATOM      9  S   UNL     1      48.570   3.828  18.888  0.00  0.00    +0.000 S 
ATOM     10  C   UNL     1      47.316   3.200  17.711  0.00  0.00    +0.000 C 
ATOM     11  C   UNL     1      47.756   3.373  16.255  0.00  0.00    +0.000 C 
ATOM     12  N   UNL     1      46.400   4.738  14.207  0.00  0.00    +0.000 NA
ENDROOT
BRANCH   1  13
ATOM     13  C   UNL     1      44.595   4.798  12.522  0.00  0.00    +0.000 C 
BRANCH  13  14
ATOM     14  N   UNL     1      44.428   5.139  11.114  0.00  0.00    +0.000 N 
ATOM     15  H   UNL     1      43.685   5.794  10.891  0.00  0.00    +0.000 HD
BRANCH  14  18
ATOM     16  C   UNL     1      44.855   2.020   9.156  0.00  0.00    +0.000 A 
ATOM     17  C   UNL     1      44.446   2.860  10.184  0.00  0.00    +0.000 A 
ATOM     18  C   UNL     1      44.724   4.225  10.104  0.00  0.00    +0.000 A 
ATOM     19  C   UNL     1      45.458   4.662   8.998  0.00  0.00    +0.000 A 
ATOM     20  C   UNL     1      45.840   3.746   8.027  0.00  0.00    +0.000 A 
ATOM     21  N   UNL     1      45.542   2.433   8.075  0.00  0.00    +0.000 NA
ENDBRANCH  14  18
ENDBRANCH  13  14
ENDBRANCH   1  13
TORSDOF 3
ENDMDL
MODEL 4
REMARK VINA RESULT:    -6.116      1.518      1.997
REMARK INTER + INTRA:          -7.486
REMARK INTER:                  -7.066
REMARK INTRA:                  -0.420
REMARK UNBOUND:                -0.297
REMARK  Name = 
REMARK  3 active torsions:
REMARK  status: ('A' for Active; 'I' for Inactive)
REMARK    1  A    between atoms: C_3  and  N_4
REMARK    2  A    between atoms: N_4  and  C_5
REMARK    3  A    between atoms: C_5  and  C_6
REMARK                            x       y       z     vdW  Elec       q    Type
REMARK                         _______ _______ _______ _____ _____    ______ ____
ROOT
ATOM      1  C   UNL     1      45.566   5.669  12.653  0.00  0.00    +0.000 A 
ATOM      2  C   UNL     1      46.097   4.564  13.273  0.00  0.00    +0.000 A 
ATOM      3  N   UNL     1      47.357   4.576  13.721  0.00  0.00    +0.000 NA
ATOM      4  N   UNL     1      48.096   5.709  13.526  0.00  0.00    +0.000 NA
ATOM      5  C   UNL     1      47.563   6.800  12.927  0.00  0.00    +0.000 A 
ATOM      6  N   UNL     1      48.355   7.895  12.654  0.00  0.00    +0.000 N 
ATOM      7  C   UNL     1      49.781   7.863  12.982  0.00  0.00    +0.000 C 
ATOM      8  C   UNL     1      50.595   8.534  11.867  0.00  0.00    +0.000 C 
ATOM      9  S   UNL     1      50.107  10.271  11.566  0.00  0.00    +0.000 S 
ATOM     10  C   UNL     1      48.303  10.006  11.406  0.00  0.00    +0.000 C 
ATOM     11  C   UNL     1      47.730   9.216  12.586  0.00  0.00    +0.000 C 
ATOM     12  N   UNL     1      46.288   6.807  12.494  0.00  0.00    +0.000 NA
ENDROOT
BRANCH   1  13
ATOM     13  C   UNL     1      44.167   5.609  12.079  0.00  0.00    +0.000 C 
BRANCH  13  14
ATOM     14  N   UNL     1      44.163   5.608  10.621  0.00  0.00    +0.000 N 
ATOM     15  H   UNL     1      43.465   6.190  10.170  0.00  0.00    +0.000 HD
BRANCH  14  18
ATOM     16  C   UNL     1      44.758   2.116   9.525  0.00  0.00    +0.000 A 
ATOM     17  C   UNL     1      44.260   3.172  10.278  0.00  0.00    +0.000 A 
ATOM     18  C   UNL     1      44.547   4.483   9.894  0.00  0.00    +0.000 A 
ATOM     19  C   UNL     1      45.379   4.653   8.784  0.00  0.00    +0.000 A 
ATOM     20  C   UNL     1      45.845   3.537   8.102  0.00  0.00    +0.000 A 
ATOM     21  N   UNL     1      45.541   2.269   8.441  0.00  0.00    +0.000 NA
ENDBRANCH  14  18
ENDBRANCH  13  14
ENDBRANCH   1  13
TORSDOF 3
ENDMDL
MODEL 5
REMARK VINA RESULT:    -5.953      3.330      4.983
REMARK INTER + INTRA:          -7.294
REMARK INTER:                  -7.084
REMARK INTRA:                  -0.210
REMARK UNBOUND:                -0.297
REMARK  Name = 
REMARK  3 active torsions:
REMARK  status: ('A' for Active; 'I' for Inactive)
REMARK    1  A    between atoms: C_3  and  N_4
REMARK    2  A    between atoms: N_4  and  C_5
REMARK    3  A    between atoms: C_5  and  C_6
REMARK                            x       y       z     vdW  Elec       q    Type
REMARK                         _______ _______ _______ _____ _____    ______ ____
ROOT
ATOM      1  C   UNL     1      47.382   5.373  13.941  0.00  0.00    +0.000 A 
ATOM      2  C   UNL     1      47.111   4.054  13.673  0.00  0.00    +0.000 A 
ATOM      3  N   UNL     1      47.369   3.108  14.584  0.00  0.00    +0.000 NA
ATOM      4  N   UNL     1      47.924   3.496  15.770  0.00  0.00    +0.000 NA
ATOM      5  C   UNL     1      48.177   4.799  16.034  0.00  0.00    +0.000 A 
ATOM      6  N   UNL     1      48.827   5.156  17.196  0.00  0.00    +0.000 N 
ATOM      7  C   UNL     1      49.272   4.120  18.129  0.00  0.00    +0.000 C 
ATOM      8  C   UNL     1      50.654   4.478  18.697  0.00  0.00    +0.000 C 
ATOM      9  S   UNL     1      50.679   6.090  19.562  0.00  0.00    +0.000 S 
ATOM     10  C   UNL     1      49.893   7.098  18.252  0.00  0.00    +0.000 C 
ATOM     11  C   UNL     1      48.578   6.482  17.763  0.00  0.00    +0.000 C 
ATOM     12  N   UNL     1      47.898   5.761  15.134  0.00  0.00    +0.000 NA
ENDROOT
BRANCH   1  13
ATOM     13  C   UNL     1      47.161   6.418  12.870  0.00  0.00    +0.000 C 
BRANCH  13  14
ATOM     14  N   UNL     1      45.766   6.833  12.777  0.00  0.00    +0.000 N 
ATOM     15  H   UNL     1      45.430   7.458  13.503  0.00  0.00    +0.000 HD
BRANCH  14  18
ATOM     16  C   UNL     1      42.845   4.597  12.320  0.00  0.00    +0.000 A 
ATOM     17  C   UNL     1      43.714   5.484  12.942  0.00  0.00    +0.000 A 
ATOM     18  C   UNL     1      44.795   6.001  12.225  0.00  0.00    +0.000 A 
ATOM     19  C   UNL     1      44.968   5.543  10.917  0.00  0.00    +0.000 A 
ATOM     20  C   UNL     1      44.057   4.640  10.382  0.00  0.00    +0.000 A 
ATOM     21  N   UNL     1      42.989   4.166  11.052  0.00  0.00    +0.000 NA
ENDBRANCH  14  18
ENDBRANCH  13  14
ENDBRANCH   1  13
TORSDOF 3
ENDMDL
MODEL 6
REMARK VINA RESULT:    -5.838      4.622      8.861
REMARK INTER + INTRA:          -7.158
REMARK INTER:                  -6.857
REMARK INTRA:                  -0.301
REMARK UNBOUND:                -0.297
REMARK  Name = 
REMARK  3 active torsions:
REMARK  status: ('A' for Active; 'I' for Inactive)
REMARK    1  A    between atoms: C_3  and  N_4
REMARK    2  A    between atoms: N_4  and  C_5
REMARK    3  A    between atoms: C_5  and  C_6
REMARK                            x       y       z     vdW  Elec       q    Type
REMARK                         _______ _______ _______ _____ _____    ______ ____
ROOT
ATOM      1  C   UNL     1      48.446   4.981  16.422  0.00  0.00    +0.000 A 
ATOM      2  C   UNL     1      48.739   3.658  16.641  0.00  0.00    +0.000 A 
ATOM      3  N   UNL     1      48.271   2.713  15.818  0.00  0.00    +0.000 NA
ATOM      4  N   UNL     1      47.483   3.106  14.773  0.00  0.00    +0.000 NA
ATOM      5  C   UNL     1      47.208   4.413  14.554  0.00  0.00    +0.000 A 
ATOM      6  N   UNL     1      46.333   4.779  13.554  0.00  0.00    +0.000 N 
ATOM      7  C   UNL     1      45.675   3.749  12.750  0.00  0.00    +0.000 C 
ATOM      8  C   UNL     1      44.212   4.136  12.487  0.00  0.00    +0.000 C 
ATOM      9  S   UNL     1      44.038   5.743  11.629  0.00  0.00    +0.000 S 
ATOM     10  C   UNL     1      45.109   6.739  12.729  0.00  0.00    +0.000 C 
ATOM     11  C   UNL     1      46.484   6.095  12.933  0.00  0.00    +0.000 C 
ATOM     12  N   UNL     1      47.695   5.375  15.363  0.00  0.00    +0.000 NA
ENDROOT
BRANCH   1  13
ATOM     13  C   UNL     1      48.915   6.028  17.409  0.00  0.00    +0.000 C 
BRANCH  13  14
ATOM     14  N   UNL     1      47.831   6.893  17.861  0.00  0.00    +0.000 N 
ATOM     15  H   UNL     1      47.590   7.670  17.255  0.00  0.00    +0.000 HD
BRANCH  14  18
ATOM     16  C   UNL     1      47.345   8.485  21.173  0.00  0.00    +0.000 A 
ATOM     17  C   UNL     1      47.507   8.376  19.798  0.00  0.00    +0.000 A 
ATOM     18  C   UNL     1      47.592   7.110  19.216  0.00  0.00    +0.000 A 
ATOM     19  C   UNL     1      47.562   6.011  20.077  0.00  0.00    +0.000 A 
ATOM     20  C   UNL     1      47.415   6.216  21.443  0.00  0.00    +0.000 A 
ATOM     21  N   UNL     1      47.292   7.432  22.011  0.00  0.00    +0.000 NA
ENDBRANCH  14  18
ENDBRANCH  13  14
ENDBRANCH   1  13
TORSDOF 3
ENDMDL
MODEL 7
REMARK VINA RESULT:    -5.808      3.284      7.109
REMARK INTER + INTRA:          -7.123
REMARK INTER:                  -6.712
REMARK INTRA:                  -0.412
REMARK UNBOUND:                -0.297
REMARK  Name = 
REMARK  3 active torsions:
REMARK  status: ('A' for Active; 'I' for Inactive)
REMARK    1  A    between atoms: C_3  and  N_4
REMARK    2  A    between atoms: N_4  and  C_5
REMARK    3  A    between atoms: C_5  and  C_6
REMARK                            x       y       z     vdW  Elec       q    Type
REMARK                         _______ _______ _______ _____ _____    ______ ____
ROOT
ATOM      1  C   UNL     1      48.521   7.196  13.910  0.00  0.00    +0.000 A 
ATOM      2  C   UNL     1      49.308   7.742  12.926  0.00  0.00    +0.000 A 
ATOM      3  N   UNL     1      48.918   7.710  11.647  0.00  0.00    +0.000 NA
ATOM      4  N   UNL     1      47.729   7.105  11.355  0.00  0.00    +0.000 NA
ATOM      5  C   UNL     1      46.950   6.581  12.330  0.00  0.00    +0.000 A 
ATOM      6  N   UNL     1      45.802   5.890  12.003  0.00  0.00    +0.000 N 
ATOM      7  C   UNL     1      45.445   5.696  10.598  0.00  0.00    +0.000 C 
ATOM      8  C   UNL     1      44.890   4.280  10.384  0.00  0.00    +0.000 C 
ATOM      9  S   UNL     1      43.420   3.922  11.413  0.00  0.00    +0.000 S 
ATOM     10  C   UNL     1      44.102   4.448  13.028  0.00  0.00    +0.000 C 
ATOM     11  C   UNL     1      44.702   5.856  12.968  0.00  0.00    +0.000 C 
ATOM     12  N   UNL     1      47.322   6.630  13.624  0.00  0.00    +0.000 NA
ENDROOT
BRANCH   1  13
ATOM     13  C   UNL     1      49.016   7.167  15.339  0.00  0.00    +0.000 C 
BRANCH  13  14
ATOM     14  N   UNL     1      48.155   6.378  16.211  0.00  0.00    +0.000 N 
ATOM     15  H   UNL     1      47.515   6.896  16.805  0.00  0.00    +0.000 HD
BRANCH  14  18
ATOM     16  C   UNL     1      50.148   3.671  17.774  0.00  0.00    +0.000 A 
ATOM     17  C   UNL     1      49.794   4.951  17.367  0.00  0.00    +0.000 A 
ATOM     18  C   UNL     1      48.570   5.152  16.727  0.00  0.00    +0.000 A 
ATOM     19  C   UNL     1      47.785   4.022  16.484  0.00  0.00    +0.000 A 
ATOM     20  C   UNL     1      48.228   2.777  16.912  0.00  0.00    +0.000 A 
ATOM     21  N   UNL     1      49.389   2.578  17.566  0.00  0.00    +0.000 NA
ENDBRANCH  14  18
ENDBRANCH  13  14
ENDBRANCH   1  13
TORSDOF 3
ENDMDL
MODEL 8
REMARK VINA RESULT:    -5.558      3.112      5.151
REMARK INTER + INTRA:          -6.830
REMARK INTER:                  -6.527
REMARK INTRA:                  -0.303
REMARK UNBOUND:                -0.297
REMARK  Name = 
REMARK  3 active torsions:
REMARK  status: ('A' for Active; 'I' for Inactive)
REMARK    1  A    between atoms: C_3  and  N_4
REMARK    2  A    between atoms: N_4  and  C_5
REMARK    3  A    between atoms: C_5  and  C_6
REMARK                            x       y       z     vdW  Elec       q    Type
REMARK                         _______ _______ _______ _____ _____    ______ ____
ROOT
ATOM      1  C   UNL     1      48.173   6.790  13.103  0.00  0.00    +0.000 A 
ATOM      2  C   UNL     1      49.192   7.657  12.794  0.00  0.00    +0.000 A 
ATOM      3  N   UNL     1      50.126   7.959  13.703  0.00  0.00    +0.000 NA
ATOM      4  N   UNL     1      50.020   7.394  14.942  0.00  0.00    +0.000 NA
ATOM      5  C   UNL     1      49.022   6.530  15.237  0.00  0.00    +0.000 A 
ATOM      6  N   UNL     1      48.879   6.049  16.521  0.00  0.00    +0.000 N 
ATOM      7  C   UNL     1      49.790   6.500  17.573  0.00  0.00    +0.000 C 
ATOM      8  C   UNL     1      49.017   6.721  18.882  0.00  0.00    +0.000 C 
ATOM      9  S   UNL     1      48.152   5.219  19.468  0.00  0.00    +0.000 S 
ATOM     10  C   UNL     1      47.291   4.795  17.909  0.00  0.00    +0.000 C 
ATOM     11  C   UNL     1      48.251   4.741  16.717  0.00  0.00    +0.000 C 
ATOM     12  N   UNL     1      48.090   6.200  14.321  0.00  0.00    +0.000 NA
ENDROOT
BRANCH   1  13
ATOM     13  C   UNL     1      47.080   6.524  12.091  0.00  0.00    +0.000 C 
BRANCH  13  14
ATOM     14  N   UNL     1      45.860   6.018  12.708  0.00  0.00    +0.000 N 
ATOM     15  H   UNL     1      45.838   6.006  13.723  0.00  0.00    +0.000 HD
BRANCH  14  18
ATOM     16  C   UNL     1      43.971   4.019  10.222  0.00  0.00    +0.000 A 
ATOM     17  C   UNL     1      44.820   4.998  10.724  0.00  0.00    +0.000 A 
ATOM     18  C   UNL     1      45.088   5.034  12.094  0.00  0.00    +0.000 A 
ATOM     19  C   UNL     1      44.431   4.099  12.896  0.00  0.00    +0.000 A 
ATOM     20  C   UNL     1      43.585   3.168  12.308  0.00  0.00    +0.000 A 
ATOM     21  N   UNL     1      43.350   3.098  10.983  0.00  0.00    +0.000 NA
ENDBRANCH  14  18
ENDBRANCH  13  14
ENDBRANCH   1  13
TORSDOF 3
ENDMDL
MODEL 9
REMARK VINA RESULT:    -5.470      1.869      3.037
REMARK INTER + INTRA:          -6.726
REMARK INTER:                  -6.338
REMARK INTRA:                  -0.388
REMARK UNBOUND:                -0.297
REMARK  Name = 
REMARK  3 active torsions:
REMARK  status: ('A' for Active; 'I' for Inactive)
REMARK    1  A    between atoms: C_3  and  N_4
REMARK    2  A    between atoms: N_4  and  C_5
REMARK    3  A    between atoms: C_5  and  C_6
REMARK                            x       y       z     vdW  Elec       q    Type
REMARK                         _______ _______ _______ _____ _____    ______ ____
ROOT
ATOM      1  C   UNL     1      47.066   4.264  14.167  0.00  0.00    +0.000 A 
ATOM      2  C   UNL     1      47.341   3.976  15.481  0.00  0.00    +0.000 A 
ATOM      3  N   UNL     1      48.100   4.800  16.213  0.00  0.00    +0.000 NA
ATOM      4  N   UNL     1      48.601   5.916  15.606  0.00  0.00    +0.000 NA
ATOM      5  C   UNL     1      48.315   6.202  14.315  0.00  0.00    +0.000 A 
ATOM      6  N   UNL     1      48.911   7.281  13.696  0.00  0.00    +0.000 N 
ATOM      7  C   UNL     1      49.878   8.099  14.429  0.00  0.00    +0.000 C 
ATOM      8  C   UNL     1      51.044   8.490  13.510  0.00  0.00    +0.000 C 
ATOM      9  S   UNL     1      50.509   9.415  12.025  0.00  0.00    +0.000 S 
ATOM     10  C   UNL     1      49.195   8.269  11.468  0.00  0.00    +0.000 C 
ATOM     11  C   UNL     1      48.208   7.935  12.591  0.00  0.00    +0.000 C 
ATOM     12  N   UNL     1      47.532   5.392  13.576  0.00  0.00    +0.000 NA
ENDROOT
BRANCH   1  13
ATOM     13  C   UNL     1      46.275   3.280  13.332  0.00  0.00    +0.000 C 
BRANCH  13  14
ATOM     14  N   UNL     1      45.116   3.894  12.697  0.00  0.00    +0.000 N 
ATOM     15  H   UNL     1      44.240   3.846  13.208  0.00  0.00    +0.000 HD
BRANCH  14  18
ATOM     16  C   UNL     1      44.501   2.977   9.157  0.00  0.00    +0.000 A 
ATOM     17  C   UNL     1      44.521   2.864  10.542  0.00  0.00    +0.000 A 
ATOM     18  C   UNL     1      44.982   3.934  11.310  0.00  0.00    +0.000 A 
ATOM     19  C   UNL     1      45.455   5.054  10.622  0.00  0.00    +0.000 A 
ATOM     20  C   UNL     1      45.413   5.072   9.234  0.00  0.00    +0.000 A 
ATOM     21  N   UNL     1      44.933   4.061   8.485  0.00  0.00    +0.000 NA
ENDBRANCH  14  18
ENDBRANCH  13  14
ENDBRANCH   1  13
TORSDOF 3
ENDMDL
