MODEL 1
REMARK VINA RESULT:    -6.466      0.000      0.000
REMARK INTER + INTRA:          -9.832
REMARK INTER:                  -8.734
REMARK INTRA:                  -1.098
REMARK UNBOUND:                -1.098
REMARK  Name = 
REMARK  8 active torsions:
REMARK  status: ('A' for Active; 'I' for Inactive)
REMARK    1  A    between atoms: C_1  and  C_2
REMARK    2  A    between atoms: C_2  and  C_3
REMARK    3  A    between atoms: C_2  and  N_4
REMARK    4  A    between atoms: C_2  and  C_19
REMARK    5  A    between atoms: N_4  and  C_5
REMARK    6  A    between atoms: C_8  and  C_9
REMARK    7  A    between atoms: C_9  and  N_10
REMARK    8  A    between atoms: N_10  and  C_11
REMARK                            x       y       z     vdW  Elec       q    Type
REMARK                         _______ _______ _______ _____ _____    ______ ____
ROOT
ATOM      1  N   UNL     1      46.718   7.348  13.638  0.00  0.00    +0.000 N 
ATOM      2  H   UNL     1      45.991   7.980  13.971  0.00  0.00    +0.000 HD
ENDROOT
BRANCH   1   3
ATOM      3  C   UNL     1      46.164   6.311  12.909  0.00  0.00    +0.000 A 
ATOM      4  C   UNL     1      46.023   5.060  13.525  0.00  0.00    +0.000 A 
ATOM      5  C   UNL     1      45.477   3.978  12.828  0.00  0.00    +0.000 A 
ATOM      6  C   UNL     1      44.988   4.137  11.524  0.00  0.00    +0.000 A 
ATOM      7  C   UNL     1      45.113   5.384  10.915  0.00  0.00    +0.000 A 
ATOM      8  C   UNL     1      45.673   6.453  11.613  0.00  0.00    +0.000 A 
BRANCH   6   9
ATOM      9  C   UNL     1      44.367   2.995  10.755  0.00  0.00    +0.000 C 
BRANCH   9  10
ATOM     10  N   UNL     1      45.362   2.358   9.899  0.00  0.00    +0.000 NA
ATOM     11  H   UNL     1      45.580   1.445  10.298  0.00  0.00    +0.000 HD
BRANCH  10  12
ATOM     12  C   UNL     1      44.980   2.207   8.495  0.00  0.00    +0.000 C 
ATOM     13  C   UNL     1      45.990   1.244   7.845  0.00  0.00    +0.000 C 
ATOM     14  C   UNL     1      47.362   1.899   7.650  0.00  0.00    +0.000 C 
ATOM     15  N   UNL     1      47.268   3.128   6.857  0.00  0.00    +0.000 NA
ATOM     16  C   UNL     1      46.381   4.091   7.520  0.00  0.00    +0.000 C 
ATOM     17  C   UNL     1      44.974   3.523   7.699  0.00  0.00    +0.000 C 
ATOM     18  H   UNL     1      46.886   2.903   5.939  0.00  0.00    +0.000 HD
ENDBRANCH  10  12
ENDBRANCH   9  10
ENDBRANCH   6   9
ENDBRANCH   1   3
BRANCH   1  20
ATOM     19  C   UNL     1      49.012   7.119  12.663  0.00  0.00    +0.000 C 
ATOM     20  C   UNL     1      47.993   8.075  13.336  0.00  0.00    +0.000 C 
ATOM     21  C   UNL     1      47.629   9.246  12.399  0.00  0.00    +0.000 C 
BRANCH  20  22
ATOM     22  C   UNL     1      48.630   8.580  14.668  0.00  0.00    +0.000 A 
ATOM     23  C   UNL     1      48.890   9.929  14.889  0.00  0.00    +0.000 A 
ATOM     24  S   UNL     1      49.406  10.297  16.465  0.00  0.00    +0.000 S 
ATOM     25  C   UNL     1      49.319   8.666  16.930  0.00  0.00    +0.000 A 
ATOM     26  N   UNL     1      49.593   8.307  18.211  0.00  0.00    +0.000 NA
ATOM     27  C   UNL     1      49.469   7.046  18.450  0.00  0.00    +0.000 A 
ATOM     28  N   UNL     1      49.109   6.112  17.517  0.00  0.00    +0.000 N 
ATOM     29  C   UNL     1      48.857   6.419  16.200  0.00  0.00    +0.000 A 
ATOM     30  O   UNL     1      48.596   5.530  15.390  0.00  0.00    +0.000 OA
ATOM     31  C   UNL     1      48.933   7.839  15.883  0.00  0.00    +0.000 A 
ATOM     32  H   UNL     1      49.054   5.133  17.764  0.00  0.00    +0.000 HD
ENDBRANCH  20  22
ENDBRANCH   1  20
TORSDOF 6
ENDMDL
MODEL 2
REMARK VINA RESULT:    -6.418      2.614      3.904
REMARK INTER + INTRA:          -9.767
REMARK INTER:                  -8.636
REMARK INTRA:                  -1.132
REMARK UNBOUND:                -1.098
REMARK  Name = 
REMARK  8 active torsions:
REMARK  status: ('A' for Active; 'I' for Inactive)
REMARK    1  A    between atoms: C_1  and  C_2
REMARK    2  A    between atoms: C_2  and  C_3
REMARK    3  A    between atoms: C_2  and  N_4
REMARK    4  A    between atoms: C_2  and  C_19
REMARK    5  A    between atoms: N_4  and  C_5
REMARK    6  A    between atoms: C_8  and  C_9
REMARK    7  A    between atoms: C_9  and  N_10
REMARK    8  A    between atoms: N_10  and  C_11
REMARK                            x       y       z     vdW  Elec       q    Type
REMARK                         _______ _______ _______ _____ _____    ______ ____
ROOT
ATOM      1  N   UNL     1      49.771   7.273  14.787  0.00  0.00    +0.000 N 
ATOM      2  H   UNL     1      50.105   6.406  15.206  0.00  0.00    +0.000 HD
ENDROOT
BRANCH   1   3
ATOM      3  C   UNL     1      48.807   7.011  13.830  0.00  0.00    +0.000 A 
ATOM      4  C   UNL     1      49.000   7.505  12.533  0.00  0.00    +0.000 A 
ATOM      5  C   UNL     1      48.053   7.275  11.531  0.00  0.00    +0.000 A 
ATOM      6  C   UNL     1      46.924   6.480  11.780  0.00  0.00    +0.000 A 
ATOM      7  C   UNL     1      46.738   5.974  13.065  0.00  0.00    +0.000 A 
ATOM      8  C   UNL     1      47.682   6.223  14.061  0.00  0.00    +0.000 A 
BRANCH   6   9
ATOM      9  C   UNL     1      45.897   6.190  10.713  0.00  0.00    +0.000 C 
BRANCH   9  10
ATOM     10  N   UNL     1      44.549   6.380  11.238  0.00  0.00    +0.000 NA
ATOM     11  H   UNL     1      44.224   7.300  10.943  0.00  0.00    +0.000 HD
BRANCH  10  12
ATOM     12  C   UNL     1      43.573   5.362  10.852  0.00  0.00    +0.000 C 
ATOM     13  C   UNL     1      42.588   5.201  12.024  0.00  0.00    +0.000 C 
ATOM     14  C   UNL     1      43.227   4.479  13.215  0.00  0.00    +0.000 C 
ATOM     15  N   UNL     1      43.760   3.168  12.832  0.00  0.00    +0.000 NA
ATOM     16  C   UNL     1      44.771   3.321  11.780  0.00  0.00    +0.000 C 
ATOM     17  C   UNL     1      44.188   3.988  10.536  0.00  0.00    +0.000 C 
ATOM     18  H   UNL     1      42.998   2.591  12.477  0.00  0.00    +0.000 HD
ENDBRANCH  10  12
ENDBRANCH   9  10
ENDBRANCH   6   9
ENDBRANCH   1   3
BRANCH   1  20
ATOM     19  C   UNL     1      51.228   8.802  16.131  0.00  0.00    +0.000 C 
ATOM     20  C   UNL     1      49.773   8.403  15.770  0.00  0.00    +0.000 C 
ATOM     21  C   UNL     1      49.027   9.578  15.102  0.00  0.00    +0.000 C 
BRANCH  20  22
ATOM     22  C   UNL     1      49.069   7.948  17.086  0.00  0.00    +0.000 A 
ATOM     23  C   UNL     1      48.173   8.773  17.759  0.00  0.00    +0.000 A 
ATOM     24  S   UNL     1      47.373   8.028  19.060  0.00  0.00    +0.000 S 
ATOM     25  C   UNL     1      48.195   6.565  18.795  0.00  0.00    +0.000 A 
ATOM     26  N   UNL     1      47.917   5.479  19.562  0.00  0.00    +0.000 NA
ATOM     27  C   UNL     1      48.586   4.421  19.251  0.00  0.00    +0.000 A 
ATOM     28  N   UNL     1      49.518   4.359  18.251  0.00  0.00    +0.000 N 
ATOM     29  C   UNL     1      49.861   5.440  17.472  0.00  0.00    +0.000 A 
ATOM     30  O   UNL     1      50.750   5.342  16.626  0.00  0.00    +0.000 OA
ATOM     31  C   UNL     1      49.100   6.651  17.746  0.00  0.00    +0.000 A 
ATOM     32  H   UNL     1      50.026   3.503  18.074  0.00  0.00    +0.000 HD
ENDBRANCH  20  22
ENDBRANCH   1  20
TORSDOF 6
ENDMDL
MODEL 3
REMARK VINA RESULT:    -6.321      3.022      4.931
REMARK INTER + INTRA:          -9.636
REMARK INTER:                  -8.482
REMARK INTRA:                  -1.154
REMARK UNBOUND:                -1.098
REMARK  Name = 
REMARK  8 active torsions:
REMARK  status: ('A' for Active; 'I' for Inactive)
REMARK    1  A    between atoms: C_1  and  C_2
REMARK    2  A    between atoms: C_2  and  C_3
REMARK    3  A    between atoms: C_2  and  N_4
REMARK    4  A    between atoms: C_2  and  C_19
REMARK    5  A    between atoms: N_4  and  C_5
REMARK    6  A    between atoms: C_8  and  C_9
REMARK    7  A    between atoms: C_9  and  N_10
REMARK    8  A    between atoms: N_10  and  C_11
REMARK                            x       y       z     vdW  Elec       q    Type
REMARK                         _______ _______ _______ _____ _____    ______ ____
ROOT
ATOM      1  N   UNL     1      48.801   4.885  16.640  0.00  0.00    +0.000 N 
ATOM      2  H   UNL     1      49.531   4.232  16.360  0.00  0.00    +0.000 HD
ENDROOT
BRANCH   1   3
ATOM      3  C   UNL     1      48.002   5.213  15.560  0.00  0.00    +0.000 A 
ATOM      4  C   UNL     1      48.252   6.415  14.883  0.00  0.00    +0.000 A 
ATOM      5  C   UNL     1      47.469   6.796  13.789  0.00  0.00    +0.000 A 
ATOM      6  C   UNL     1      46.464   5.951  13.297  0.00  0.00    +0.000 A 
ATOM      7  C   UNL     1      46.223   4.748  13.959  0.00  0.00    +0.000 A 
ATOM      8  C   UNL     1      47.001   4.385  15.058  0.00  0.00    +0.000 A 
BRANCH   6   9
ATOM      9  C   UNL     1      45.619   6.321  12.102  0.00  0.00    +0.000 C 
BRANCH   9  10
ATOM     10  N   UNL     1      45.538   5.201  11.170  0.00  0.00    +0.000 NA
ATOM     11  H   UNL     1      45.817   4.357  11.670  0.00  0.00    +0.000 HD
BRANCH  10  12
ATOM     12  C   UNL     1      44.233   4.998  10.542  0.00  0.00    +0.000 C 
ATOM     13  C   UNL     1      43.280   4.462  11.626  0.00  0.00    +0.000 C 
ATOM     14  C   UNL     1      43.595   3.009  11.998  0.00  0.00    +0.000 C 
ATOM     15  N   UNL     1      43.558   2.129  10.826  0.00  0.00    +0.000 NA
ATOM     16  C   UNL     1      44.534   2.577   9.826  0.00  0.00    +0.000 C 
ATOM     17  C   UNL     1      44.248   4.006   9.367  0.00  0.00    +0.000 C 
ATOM     18  H   UNL     1      42.625   2.161  10.416  0.00  0.00    +0.000 HD
ENDBRANCH  10  12
ENDBRANCH   9  10
ENDBRANCH   6   9
ENDBRANCH   1   3
BRANCH   1  20
ATOM     19  C   UNL     1      47.183   5.601  18.411  0.00  0.00    +0.000 C 
ATOM     20  C   UNL     1      48.349   4.645  18.049  0.00  0.00    +0.000 C 
ATOM     21  C   UNL     1      47.901   3.170  18.129  0.00  0.00    +0.000 C 
BRANCH  20  22
ATOM     22  C   UNL     1      49.525   4.943  19.029  0.00  0.00    +0.000 A 
ATOM     23  C   UNL     1      49.368   5.784  20.127  0.00  0.00    +0.000 A 
ATOM     24  S   UNL     1      50.705   5.830  21.173  0.00  0.00    +0.000 S 
ATOM     25  C   UNL     1      51.568   4.734  20.205  0.00  0.00    +0.000 A 
ATOM     26  N   UNL     1      52.800   4.311  20.587  0.00  0.00    +0.000 NA
ATOM     27  C   UNL     1      53.346   3.461  19.785  0.00  0.00    +0.000 A 
ATOM     28  N   UNL     1      52.773   3.011  18.626  0.00  0.00    +0.000 N 
ATOM     29  C   UNL     1      51.544   3.437  18.177  0.00  0.00    +0.000 A 
ATOM     30  O   UNL     1      51.104   3.044  17.097  0.00  0.00    +0.000 OA
ATOM     31  C   UNL     1      50.859   4.361  19.071  0.00  0.00    +0.000 A 
ATOM     32  H   UNL     1      53.266   2.362  18.027  0.00  0.00    +0.000 HD
ENDBRANCH  20  22
ENDBRANCH   1  20
TORSDOF 6
ENDMDL
MODEL 4
REMARK VINA RESULT:    -6.239      3.023      8.994
REMARK INTER + INTRA:          -9.526
REMARK INTER:                  -8.601
REMARK INTRA:                  -0.925
REMARK UNBOUND:                -1.098
REMARK  Name = 
REMARK  8 active torsions:
REMARK  status: ('A' for Active; 'I' for Inactive)
REMARK    1  A    between atoms: C_1  and  C_2
REMARK    2  A    between atoms: C_2  and  C_3
REMARK    3  A    between atoms: C_2  and  N_4
REMARK    4  A    between atoms: C_2  and  C_19
REMARK    5  A    between atoms: N_4  and  C_5
REMARK    6  A    between atoms: C_8  and  C_9
REMARK    7  A    between atoms: C_9  and  N_10
REMARK    8  A    between atoms: N_10  and  C_11
REMARK                            x       y       z     vdW  Elec       q    Type
REMARK                         _______ _______ _______ _____ _____    ______ ____
ROOT
ATOM      1  N   UNL     1      47.444   5.684  13.225  0.00  0.00    +0.000 N 
ATOM      2  H   UNL     1      48.002   4.952  12.786  0.00  0.00    +0.000 HD
ENDROOT
BRANCH   1   3
ATOM      3  C   UNL     1      48.027   6.096  14.410  0.00  0.00    +0.000 A 
ATOM      4  C   UNL     1      47.870   5.293  15.547  0.00  0.00    +0.000 A 
ATOM      5  C   UNL     1      48.433   5.668  16.771  0.00  0.00    +0.000 A 
ATOM      6  C   UNL     1      49.230   6.817  16.871  0.00  0.00    +0.000 A 
ATOM      7  C   UNL     1      49.401   7.609  15.737  0.00  0.00    +0.000 A 
ATOM      8  C   UNL     1      48.823   7.233  14.526  0.00  0.00    +0.000 A 
BRANCH   6   9
ATOM      9  C   UNL     1      49.875   7.234  18.172  0.00  0.00    +0.000 C 
BRANCH   9  10
ATOM     10  N   UNL     1      48.883   7.273  19.242  0.00  0.00    +0.000 NA
ATOM     11  H   UNL     1      48.128   6.634  18.992  0.00  0.00    +0.000 HD
BRANCH  10  12
ATOM     12  C   UNL     1      49.384   6.951  20.576  0.00  0.00    +0.000 C 
ATOM     13  C   UNL     1      49.928   5.511  20.528  0.00  0.00    +0.000 C 
ATOM     14  C   UNL     1      48.802   4.476  20.440  0.00  0.00    +0.000 C 
ATOM     15  N   UNL     1      47.854   4.610  21.549  0.00  0.00    +0.000 NA
ATOM     16  C   UNL     1      47.257   5.951  21.545  0.00  0.00    +0.000 C 
ATOM     17  C   UNL     1      48.323   7.037  21.686  0.00  0.00    +0.000 C 
ATOM     18  H   UNL     1      48.350   4.471  22.429  0.00  0.00    +0.000 HD
ENDBRANCH  10  12
ENDBRANCH   9  10
ENDBRANCH   6   9
ENDBRANCH   1   3
BRANCH   1  20
ATOM     19  C   UNL     1      45.834   7.574  12.908  0.00  0.00    +0.000 C 
ATOM     20  C   UNL     1      46.769   6.554  12.209  0.00  0.00    +0.000 C 
ATOM     21  C   UNL     1      47.886   7.274  11.424  0.00  0.00    +0.000 C 
BRANCH  20  22
ATOM     22  C   UNL     1      45.887   5.670  11.273  0.00  0.00    +0.000 A 
ATOM     23  C   UNL     1      45.994   5.739   9.887  0.00  0.00    +0.000 A 
ATOM     24  S   UNL     1      45.087   4.568   9.054  0.00  0.00    +0.000 S 
ATOM     25  C   UNL     1      44.497   3.916  10.506  0.00  0.00    +0.000 A 
ATOM     26  N   UNL     1      43.687   2.825  10.484  0.00  0.00    +0.000 NA
ATOM     27  C   UNL     1      43.323   2.406  11.648  0.00  0.00    +0.000 A 
ATOM     28  N   UNL     1      43.686   2.992  12.830  0.00  0.00    +0.000 N 
ATOM     29  C   UNL     1      44.475   4.117  12.905  0.00  0.00    +0.000 A 
ATOM     30  O   UNL     1      44.721   4.636  13.993  0.00  0.00    +0.000 OA
ATOM     31  C   UNL     1      44.957   4.605  11.619  0.00  0.00    +0.000 A 
ATOM     32  H   UNL     1      43.346   2.627  13.710  0.00  0.00    +0.000 HD
ENDBRANCH  20  22
ENDBRANCH   1  20
TORSDOF 6
ENDMDL
MODEL 5
REMARK VINA RESULT:    -6.046      3.060      4.364
REMARK INTER + INTRA:          -9.265
REMARK INTER:                  -7.981
REMARK INTRA:                  -1.283
REMARK UNBOUND:                -1.098
REMARK  Name = 
REMARK  8 active torsions:
REMARK  status: ('A' for Active; 'I' for Inactive)
REMARK    1  A    between atoms: C_1  and  C_2
REMARK    2  A    between atoms: C_2  and  C_3
REMARK    3  A    between atoms: C_2  and  N_4
REMARK    4  A    between atoms: C_2  and  C_19
REMARK    5  A    between atoms: N_4  and  C_5
REMARK    6  A    between atoms: C_8  and  C_9
REMARK    7  A    between atoms: C_9  and  N_10
REMARK    8  A    between atoms: N_10  and  C_11
REMARK                            x       y       z     vdW  Elec       q    Type
REMARK                         _______ _______ _______ _____ _____    ______ ____
ROOT
ATOM      1  N   UNL     1      49.091   7.562  12.971  0.00  0.00    +0.000 N 
ATOM      2  H   UNL     1      49.877   7.030  13.340  0.00  0.00    +0.000 HD
ENDROOT
BRANCH   1   3
ATOM      3  C   UNL     1      48.024   6.726  12.694  0.00  0.00    +0.000 A 
ATOM      4  C   UNL     1      47.744   5.682  13.586  0.00  0.00    +0.000 A 
ATOM      5  C   UNL     1      46.682   4.804  13.348  0.00  0.00    +0.000 A 
ATOM      6  C   UNL     1      45.826   4.994  12.254  0.00  0.00    +0.000 A 
ATOM      7  C   UNL     1      46.093   6.042  11.375  0.00  0.00    +0.000 A 
ATOM      8  C   UNL     1      47.164   6.901  11.613  0.00  0.00    +0.000 A 
BRANCH   6   9
ATOM      9  C   UNL     1      44.654   4.080  11.986  0.00  0.00    +0.000 C 
BRANCH   9  10
ATOM     10  N   UNL     1      45.029   3.038  11.036  0.00  0.00    +0.000 NA
ATOM     11  H   UNL     1      45.004   2.143  11.527  0.00  0.00    +0.000 HD
BRANCH  10  12
ATOM     12  C   UNL     1      44.209   2.963   9.828  0.00  0.00    +0.000 C 
ATOM     13  C   UNL     1      44.640   1.701   9.058  0.00  0.00    +0.000 C 
ATOM     14  C   UNL     1      46.015   1.870   8.403  0.00  0.00    +0.000 C 
ATOM     15  N   UNL     1      46.051   3.032   7.510  0.00  0.00    +0.000 NA
ATOM     16  C   UNL     1      45.736   4.254   8.258  0.00  0.00    +0.000 C 
ATOM     17  C   UNL     1      44.350   4.177   8.895  0.00  0.00    +0.000 C 
ATOM     18  H   UNL     1      45.358   2.906   6.774  0.00  0.00    +0.000 HD
ENDBRANCH  10  12
ENDBRANCH   9  10
ENDBRANCH   6   9
ENDBRANCH   1   3
BRANCH   1  20
ATOM     19  C   UNL     1      47.724   9.100  14.396  0.00  0.00    +0.000 C 
ATOM     20  C   UNL     1      49.022   8.937  13.563  0.00  0.00    +0.000 C 
ATOM     21  C   UNL     1      50.274   9.105  14.450  0.00  0.00    +0.000 C 
BRANCH  20  22
ATOM     22  C   UNL     1      48.983   9.995  12.417  0.00  0.00    +0.000 A 
ATOM     23  C   UNL     1      47.986  10.964  12.350  0.00  0.00    +0.000 A 
ATOM     24  S   UNL     1      48.224  12.133  11.141  0.00  0.00    +0.000 S 
ATOM     25  C   UNL     1      49.669  11.396  10.639  0.00  0.00    +0.000 A 
ATOM     26  N   UNL     1      50.409  11.953   9.645  0.00  0.00    +0.000 NA
ATOM     27  C   UNL     1      51.497  11.317   9.369  0.00  0.00    +0.000 A 
ATOM     28  N   UNL     1      51.900  10.165   9.987  0.00  0.00    +0.000 N 
ATOM     29  C   UNL     1      51.168   9.542  10.973  0.00  0.00    +0.000 A 
ATOM     30  O   UNL     1      51.549   8.475  11.452  0.00  0.00    +0.000 OA
ATOM     31  C   UNL     1      49.952  10.245  11.361  0.00  0.00    +0.000 A 
ATOM     32  H   UNL     1      52.753   9.701   9.706  0.00  0.00    +0.000 HD
ENDBRANCH  20  22
ENDBRANCH   1  20
TORSDOF 6
ENDMDL
MODEL 6
REMARK VINA RESULT:    -5.951      3.460      5.573
REMARK INTER + INTRA:          -9.136
REMARK INTER:                  -8.876
REMARK INTRA:                  -0.260
REMARK UNBOUND:                -1.098
REMARK  Name = 
REMARK  8 active torsions:
REMARK  status: ('A' for Active; 'I' for Inactive)
REMARK    1  A    between atoms: C_1  and  C_2
REMARK    2  A    between atoms: C_2  and  C_3
REMARK    3  A    between atoms: C_2  and  N_4
REMARK    4  A    between atoms: C_2  and  C_19
REMARK    5  A    between atoms: N_4  and  C_5
REMARK    6  A    between atoms: C_8  and  C_9
REMARK    7  A    between atoms: C_9  and  N_10
REMARK    8  A    between atoms: N_10  and  C_11
REMARK                            x       y       z     vdW  Elec       q    Type
REMARK                         _______ _______ _______ _____ _____    ______ ____
ROOT
ATOM      1  N   UNL     1      48.518   4.340  17.358  0.00  0.00    +0.000 N 
ATOM      2  H   UNL     1      47.750   3.834  17.796  0.00  0.00    +0.000 HD
ENDROOT
BRANCH   1   3
ATOM      3  C   UNL     1      48.120   4.872  16.145  0.00  0.00    +0.000 A 
ATOM      4  C   UNL     1      47.104   4.223  15.430  0.00  0.00    +0.000 A 
ATOM      5  C   UNL     1      46.671   4.716  14.195  0.00  0.00    +0.000 A 
ATOM      6  C   UNL     1      47.189   5.912  13.679  0.00  0.00    +0.000 A 
ATOM      7  C   UNL     1      48.187   6.569  14.396  0.00  0.00    +0.000 A 
ATOM      8  C   UNL     1      48.622   6.060  15.619  0.00  0.00    +0.000 A 
BRANCH   6   9
ATOM      9  C   UNL     1      46.722   6.486  12.363  0.00  0.00    +0.000 C 
BRANCH   9  10
ATOM     10  N   UNL     1      45.266   6.439  12.275  0.00  0.00    +0.000 NA
ATOM     11  H   UNL     1      44.908   7.361  12.524  0.00  0.00    +0.000 HD
BRANCH  10  12
ATOM     12  C   UNL     1      44.726   6.031  10.979  0.00  0.00    +0.000 C 
ATOM     13  C   UNL     1      43.196   6.190  11.048  0.00  0.00    +0.000 C 
ATOM     14  C   UNL     1      42.547   5.115  11.926  0.00  0.00    +0.000 C 
ATOM     15  N   UNL     1      42.885   3.764  11.469  0.00  0.00    +0.000 NA
ATOM     16  C   UNL     1      44.339   3.571  11.492  0.00  0.00    +0.000 C 
ATOM     17  C   UNL     1      45.051   4.578  10.591  0.00  0.00    +0.000 C 
ATOM     18  H   UNL     1      42.550   3.644  10.513  0.00  0.00    +0.000 HD
ENDBRANCH  10  12
ENDBRANCH   9  10
ENDBRANCH   6   9
ENDBRANCH   1   3
BRANCH   1  20
ATOM     19  C   UNL     1      49.368   6.533  18.215  0.00  0.00    +0.000 C 
ATOM     20  C   UNL     1      49.407   4.991  18.373  0.00  0.00    +0.000 C 
ATOM     21  C   UNL     1      48.887   4.563  19.762  0.00  0.00    +0.000 C 
BRANCH  20  22
ATOM     22  C   UNL     1      50.880   4.531  18.144  0.00  0.00    +0.000 A 
ATOM     23  C   UNL     1      51.957   5.378  18.385  0.00  0.00    +0.000 A 
ATOM     24  S   UNL     1      53.479   4.634  18.256  0.00  0.00    +0.000 S 
ATOM     25  C   UNL     1      52.774   3.141  17.862  0.00  0.00    +0.000 A 
ATOM     26  N   UNL     1      53.556   2.046  17.674  0.00  0.00    +0.000 NA
ATOM     27  C   UNL     1      52.906   0.965  17.404  0.00  0.00    +0.000 A 
ATOM     28  N   UNL     1      51.544   0.888  17.290  0.00  0.00    +0.000 N 
ATOM     29  C   UNL     1      50.712   1.974  17.435  0.00  0.00    +0.000 A 
ATOM     30  O   UNL     1      49.499   1.857  17.263  0.00  0.00    +0.000 OA
ATOM     31  C   UNL     1      51.389   3.213  17.792  0.00  0.00    +0.000 A 
ATOM     32  H   UNL     1      51.097   0.013  17.051  0.00  0.00    +0.000 HD
ENDBRANCH  20  22
ENDBRANCH   1  20
TORSDOF 6
ENDMDL
MODEL 7
REMARK VINA RESULT:    -5.606      3.170      8.647
REMARK INTER + INTRA:          -8.671
REMARK INTER:                  -8.022
REMARK INTRA:                  -0.648
REMARK UNBOUND:                -1.098
REMARK  Name = 
REMARK  8 active torsions:
REMARK  status: ('A' for Active; 'I' for Inactive)
REMARK    1  A    between atoms: C_1  and  C_2
REMARK    2  A    between atoms: C_2  and  C_3
REMARK    3  A    between atoms: C_2  and  N_4
REMARK    4  A    between atoms: C_2  and  C_19
REMARK    5  A    between atoms: N_4  and  C_5
REMARK    6  A    between atoms: C_8  and  C_9
REMARK    7  A    between atoms: C_9  and  N_10
REMARK    8  A    between atoms: N_10  and  C_11
REMARK                            x       y       z     vdW  Elec       q    Type
REMARK                         _______ _______ _______ _____ _____    ______ ____
ROOT
ATOM      1  N   UNL     1      47.398   5.620  13.279  0.00  0.00    +0.000 N 
ATOM      2  H   UNL     1      47.821   4.792  12.860  0.00  0.00    +0.000 HD
ENDROOT
BRANCH   1   3
ATOM      3  C   UNL     1      48.109   6.016  14.397  0.00  0.00    +0.000 A 
ATOM      4  C   UNL     1      47.805   5.422  15.629  0.00  0.00    +0.000 A 
ATOM      5  C   UNL     1      48.489   5.793  16.790  0.00  0.00    +0.000 A 
ATOM      6  C   UNL     1      49.546   6.713  16.737  0.00  0.00    +0.000 A 
ATOM      7  C   UNL     1      49.861   7.294  15.510  0.00  0.00    +0.000 A 
ATOM      8  C   UNL     1      49.162   6.927  14.361  0.00  0.00    +0.000 A 
BRANCH   6   9
ATOM      9  C   UNL     1      50.323   7.114  17.969  0.00  0.00    +0.000 C 
BRANCH   9  10
ATOM     10  N   UNL     1      51.298   6.084  18.313  0.00  0.00    +0.000 NA
ATOM     11  H   UNL     1      52.015   6.515  18.897  0.00  0.00    +0.000 HD
BRANCH  10  12
ATOM     12  C   UNL     1      50.757   4.903  18.982  0.00  0.00    +0.000 C 
ATOM     13  C   UNL     1      51.523   4.733  20.307  0.00  0.00    +0.000 C 
ATOM     14  C   UNL     1      52.957   4.243  20.080  0.00  0.00    +0.000 C 
ATOM     15  N   UNL     1      52.988   2.986  19.326  0.00  0.00    +0.000 NA
ATOM     16  C   UNL     1      52.344   3.165  18.020  0.00  0.00    +0.000 C 
ATOM     17  C   UNL     1      50.888   3.603  18.170  0.00  0.00    +0.000 C 
ATOM     18  H   UNL     1      52.483   2.272  19.849  0.00  0.00    +0.000 HD
ENDBRANCH  10  12
ENDBRANCH   9  10
ENDBRANCH   6   9
ENDBRANCH   1   3
BRANCH   1  20
ATOM     19  C   UNL     1      45.883   7.580  12.923  0.00  0.00    +0.000 C 
ATOM     20  C   UNL     1      46.782   6.513  12.246  0.00  0.00    +0.000 C 
ATOM     21  C   UNL     1      47.945   7.175  11.476  0.00  0.00    +0.000 C 
BRANCH  20  22
ATOM     22  C   UNL     1      45.876   5.665  11.300  0.00  0.00    +0.000 A 
ATOM     23  C   UNL     1      45.961   5.771   9.915  0.00  0.00    +0.000 A 
ATOM     24  S   UNL     1      45.029   4.633   9.065  0.00  0.00    +0.000 S 
ATOM     25  C   UNL     1      44.455   3.947  10.508  0.00  0.00    +0.000 A 
ATOM     26  N   UNL     1      43.632   2.866  10.468  0.00  0.00    +0.000 NA
ATOM     27  C   UNL     1      43.283   2.418  11.626  0.00  0.00    +0.000 A 
ATOM     28  N   UNL     1      43.671   2.967  12.818  0.00  0.00    +0.000 N 
ATOM     29  C   UNL     1      44.473   4.082  12.911  0.00  0.00    +0.000 A 
ATOM     30  O   UNL     1      44.742   4.567  14.009  0.00  0.00    +0.000 OA
ATOM     31  C   UNL     1      44.940   4.600  11.632  0.00  0.00    +0.000 A 
ATOM     32  H   UNL     1      43.341   2.582  13.693  0.00  0.00    +0.000 HD
ENDBRANCH  20  22
ENDBRANCH   1  20
TORSDOF 6
ENDMDL
MODEL 8
REMARK VINA RESULT:    -5.562      2.833      4.914
REMARK INTER + INTRA:          -8.611
REMARK INTER:                  -7.583
REMARK INTRA:                  -1.027
REMARK UNBOUND:                -1.098
REMARK  Name = 
REMARK  8 active torsions:
REMARK  status: ('A' for Active; 'I' for Inactive)
REMARK    1  A    between atoms: C_1  and  C_2
REMARK    2  A    between atoms: C_2  and  C_3
REMARK    3  A    between atoms: C_2  and  N_4
REMARK    4  A    between atoms: C_2  and  C_19
REMARK    5  A    between atoms: N_4  and  C_5
REMARK    6  A    between atoms: C_8  and  C_9
REMARK    7  A    between atoms: C_9  and  N_10
REMARK    8  A    between atoms: N_10  and  C_11
REMARK                            x       y       z     vdW  Elec       q    Type
REMARK                         _______ _______ _______ _____ _____    ______ ____
ROOT
ATOM      1  N   UNL     1      50.266   8.265  16.479  0.00  0.00    +0.000 N 
ATOM      2  H   UNL     1      51.118   7.755  16.249  0.00  0.00    +0.000 HD
ENDROOT
BRANCH   1   3
ATOM      3  C   UNL     1      49.320   8.106  15.483  0.00  0.00    +0.000 A 
ATOM      4  C   UNL     1      49.386   6.964  14.673  0.00  0.00    +0.000 A 
ATOM      5  C   UNL     1      48.459   6.760  13.647  0.00  0.00    +0.000 A 
ATOM      6  C   UNL     1      47.396   7.653  13.452  0.00  0.00    +0.000 A 
ATOM      7  C   UNL     1      47.318   8.781  14.267  0.00  0.00    +0.000 A 
ATOM      8  C   UNL     1      48.258   8.983  15.277  0.00  0.00    +0.000 A 
BRANCH   6   9
ATOM      9  C   UNL     1      46.362   7.446  12.372  0.00  0.00    +0.000 C 
BRANCH   9  10
ATOM     10  N   UNL     1      45.080   7.069  12.959  0.00  0.00    +0.000 NA
ATOM     11  H   UNL     1      44.347   7.572  12.459  0.00  0.00    +0.000 HD
BRANCH  10  12
ATOM     12  C   UNL     1      44.787   5.637  12.962  0.00  0.00    +0.000 C 
ATOM     13  C   UNL     1      45.434   5.032  11.703  0.00  0.00    +0.000 C 
ATOM     14  C   UNL     1      44.683   5.427  10.427  0.00  0.00    +0.000 C 
ATOM     15  N   UNL     1      43.269   5.044  10.489  0.00  0.00    +0.000 NA
ATOM     16  C   UNL     1      42.620   5.695  11.633  0.00  0.00    +0.000 C 
ATOM     17  C   UNL     1      43.286   5.302  12.951  0.00  0.00    +0.000 C 
ATOM     18  H   UNL     1      43.203   4.033  10.602  0.00  0.00    +0.000 HD
ENDBRANCH  10  12
ENDBRANCH   9  10
ENDBRANCH   6   9
ENDBRANCH   1   3
BRANCH   1  20
ATOM     19  C   UNL     1      51.356   8.221  18.732  0.00  0.00    +0.000 C 
ATOM     20  C   UNL     1      50.015   8.295  17.956  0.00  0.00    +0.000 C 
ATOM     21  C   UNL     1      49.272   9.614  18.257  0.00  0.00    +0.000 C 
BRANCH  20  22
ATOM     22  C   UNL     1      49.166   7.051  18.363  0.00  0.00    +0.000 A 
ATOM     23  C   UNL     1      47.923   7.182  18.975  0.00  0.00    +0.000 A 
ATOM     24  S   UNL     1      47.076   5.721  19.166  0.00  0.00    +0.000 S 
ATOM     25  C   UNL     1      48.336   4.837  18.449  0.00  0.00    +0.000 A 
ATOM     26  N   UNL     1      48.207   3.497  18.262  0.00  0.00    +0.000 NA
ATOM     27  C   UNL     1      49.217   2.939  17.685  0.00  0.00    +0.000 A 
ATOM     28  N   UNL     1      50.349   3.601  17.294  0.00  0.00    +0.000 N 
ATOM     29  C   UNL     1      50.543   4.949  17.494  0.00  0.00    +0.000 A 
ATOM     30  O   UNL     1      51.606   5.480  17.176  0.00  0.00    +0.000 OA
ATOM     31  C   UNL     1      49.411   5.641  18.097  0.00  0.00    +0.000 A 
ATOM     32  H   UNL     1      51.117   3.099  16.869  0.00  0.00    +0.000 HD
ENDBRANCH  20  22
ENDBRANCH   1  20
TORSDOF 6
ENDMDL
MODEL 9
REMARK VINA RESULT:    -5.471      3.469      8.889
REMARK INTER + INTRA:          -8.487
REMARK INTER:                  -7.937
REMARK INTRA:                  -0.551
REMARK UNBOUND:                -1.098
REMARK  Name = 
REMARK  8 active torsions:
REMARK  status: ('A' for Active; 'I' for Inactive)
REMARK    1  A    between atoms: C_1  and  C_2
REMARK    2  A    between atoms: C_2  and  C_3
REMARK    3  A    between atoms: C_2  and  N_4
REMARK    4  A    between atoms: C_2  and  C_19
REMARK    5  A    between atoms: N_4  and  C_5
REMARK    6  A    between atoms: C_8  and  C_9
REMARK    7  A    between atoms: C_9  and  N_10
REMARK    8  A    between atoms: N_10  and  C_11
REMARK                            x       y       z     vdW  Elec       q    Type
REMARK                         _______ _______ _______ _____ _____    ______ ____
ROOT
ATOM      1  N   UNL     1      47.592   6.090  14.777  0.00  0.00    +0.000 N 
ATOM      2  H   UNL     1      47.366   5.103  14.664  0.00  0.00    +0.000 HD
ENDROOT
BRANCH   1   3
ATOM      3  C   UNL     1      48.605   6.254  15.704  0.00  0.00    +0.000 A 
ATOM      4  C   UNL     1      48.457   5.667  16.968  0.00  0.00    +0.000 A 
ATOM      5  C   UNL     1      49.449   5.809  17.943  0.00  0.00    +0.000 A 
ATOM      6  C   UNL     1      50.647   6.478  17.656  0.00  0.00    +0.000 A 
ATOM      7  C   UNL     1      50.803   7.049  16.394  0.00  0.00    +0.000 A 
ATOM      8  C   UNL     1      49.801   6.914  15.434  0.00  0.00    +0.000 A 
BRANCH   6   9
ATOM      9  C   UNL     1      51.749   6.625  18.678  0.00  0.00    +0.000 C 
BRANCH   9  10
ATOM     10  N   UNL     1      52.203   5.313  19.128  0.00  0.00    +0.000 NA
ATOM     11  H   UNL     1      51.587   4.611  18.719  0.00  0.00    +0.000 HD
BRANCH  10  12
ATOM     12  C   UNL     1      53.596   4.990  18.821  0.00  0.00    +0.000 C 
ATOM     13  C   UNL     1      53.587   3.792  17.854  0.00  0.00    +0.000 C 
ATOM     14  C   UNL     1      53.189   2.490  18.559  0.00  0.00    +0.000 C 
ATOM     15  N   UNL     1      54.065   2.201  19.698  0.00  0.00    +0.000 NA
ATOM     16  C   UNL     1      54.005   3.296  20.673  0.00  0.00    +0.000 C 
ATOM     17  C   UNL     1      54.442   4.621  20.051  0.00  0.00    +0.000 C 
ATOM     18  H   UNL     1      55.023   2.106  19.365  0.00  0.00    +0.000 HD
ENDBRANCH  10  12
ENDBRANCH   9  10
ENDBRANCH   6   9
ENDBRANCH   1   3
BRANCH   1  20
ATOM     19  C   UNL     1      47.409   8.377  13.776  0.00  0.00    +0.000 C 
ATOM     20  C   UNL     1      47.415   6.851  13.499  0.00  0.00    +0.000 C 
ATOM     21  C   UNL     1      48.593   6.461  12.580  0.00  0.00    +0.000 C 
BRANCH  20  22
ATOM     22  C   UNL     1      46.041   6.482  12.860  0.00  0.00    +0.000 A 
ATOM     23  C   UNL     1      45.216   7.447  12.290  0.00  0.00    +0.000 A 
ATOM     24  S   UNL     1      43.856   6.823  11.484  0.00  0.00    +0.000 S 
ATOM     25  C   UNL     1      44.298   5.228  11.867  0.00  0.00    +0.000 A 
ATOM     26  N   UNL     1      43.553   4.187  11.411  0.00  0.00    +0.000 NA
ATOM     27  C   UNL     1      44.000   3.024  11.744  0.00  0.00    +0.000 A 
ATOM     28  N   UNL     1      45.117   2.813  12.506  0.00  0.00    +0.000 N 
ATOM     29  C   UNL     1      45.884   3.833  13.021  0.00  0.00    +0.000 A 
ATOM     30  O   UNL     1      46.844   3.585  13.750  0.00  0.00    +0.000 OA
ATOM     31  C   UNL     1      45.453   5.170  12.634  0.00  0.00    +0.000 A 
ATOM     32  H   UNL     1      45.401   1.874  12.753  0.00  0.00    +0.000 HD
ENDBRANCH  20  22
ENDBRANCH   1  20
TORSDOF 6
ENDMDL
