MODEL 1
REMARK VINA RESULT:    -7.584      0.000      0.000
REMARK INTER + INTRA:         -13.455
REMARK INTER:                 -11.796
REMARK INTRA:                  -1.659
REMARK UNBOUND:                -1.659
REMARK  Name = 
REMARK  11 active torsions:
REMARK  status: ('A' for Active; 'I' for Inactive)
REMARK    1  A    between atoms: C_1  and  C_2
REMARK    2  A    between atoms: C_2  and  N_3
REMARK    3  A    between atoms: C_2  and  C_23
REMARK    4  A    between atoms: N_3  and  C_4
REMARK    5  A    between atoms: C_4  and  C_5
REMARK    6  A    between atoms: C_8  and  C_9
REMARK    7  A    between atoms: C_9  and  N_10
REMARK    8  A    between atoms: N_10  and  C_11
REMARK    9  A    between atoms: C_11  and  C_12
REMARK   10  A    between atoms: CA_16  and  C_17
REMARK   11  A    between atoms: C_17  and  OXT_19
REMARK                            x       y       z     vdW  Elec       q    Type
REMARK                         _______ _______ _______ _____ _____    ______ ____
ROOT
ATOM      1  C   UNL     1      46.952   6.550  12.906  0.00  0.00    +0.000 A 
ATOM      2  C   UNL     1      45.931   7.040  12.079  0.00  0.00    +0.000 A 
ATOM      3  C   UNL     1      44.727   6.346  11.946  0.00  0.00    +0.000 A 
ATOM      4  C   UNL     1      44.523   5.137  12.627  0.00  0.00    +0.000 A 
ATOM      5  C   UNL     1      45.538   4.653  13.463  0.00  0.00    +0.000 A 
ATOM      6  C   UNL     1      46.740   5.350  13.599  0.00  0.00    +0.000 A 
ENDROOT
BRANCH   1   7
ATOM      7  C   UNL     1      48.302   7.218  12.933  0.00  0.00    +0.000 C 
BRANCH   7   8
ATOM      8  N   UNL     1      49.304   6.534  13.762  0.00  0.00    +0.000 NA
ATOM      9  H   UNL     1      50.037   6.181  13.144  0.00  0.00    +0.000 HD
BRANCH   8  11
ATOM     10  C   UNL     1      50.288   8.814  14.019  0.00  0.00    +0.000 C 
ATOM     11  C   UNL     1      49.909   7.482  14.709  0.00  0.00    +0.000 C 
BRANCH  11  12
ATOM     12  C   UNL     1      48.959   7.839  15.835  0.00  0.00    +0.000 A 
ATOM     13  C   UNL     1      48.428   9.103  16.049  0.00  0.00    +0.000 A 
ATOM     14  S   UNL     1      48.060   9.373  17.700  0.00  0.00    +0.000 S 
ATOM     15  C   UNL     1      48.420   7.757  18.104  0.00  0.00    +0.000 A 
ATOM     16  N   UNL     1      48.427   7.320  19.392  0.00  0.00    +0.000 NA
ATOM     17  C   UNL     1      48.612   6.047  19.517  0.00  0.00    +0.000 A 
ATOM     18  N   UNL     1      48.757   5.169  18.473  0.00  0.00    +0.000 N 
ATOM     19  C   UNL     1      48.803   5.569  17.153  0.00  0.00    +0.000 A 
ATOM     20  O   UNL     1      48.893   4.767  16.237  0.00  0.00    +0.000 OA
ATOM     21  C   UNL     1      48.687   7.005  16.976  0.00  0.00    +0.000 A 
ATOM     22  H   UNL     1      48.801   4.174  18.638  0.00  0.00    +0.000 HD
ENDBRANCH  11  12
ENDBRANCH   8  11
ENDBRANCH   7   8
ENDBRANCH   1   7
BRANCH   4  23
ATOM     23  C   UNL     1      43.244   4.351  12.452  0.00  0.00    +0.000 C 
BRANCH  23  24
ATOM     24  N   UNL     1      43.047   3.805  11.111  0.00  0.00    +0.000 NA
ATOM     25  H   UNL     1      43.216   4.528  10.411  0.00  0.00    +0.000 HD
BRANCH  24  26
ATOM     26  C   UNL     1      43.947   2.679  10.814  0.00  0.00    +0.000 C 
BRANCH  26  27
ATOM     27  C   UNL     1      44.846   2.960   9.618  0.00  0.00    +0.000 A 
ATOM     28  N   UNL     1      44.916   4.236   9.172  0.00  0.00    +0.000 NA
ATOM     29  C   UNL     1      45.699   4.474   8.101  0.00  0.00    +0.000 A 
ATOM     30  C   UNL     1      46.418   3.499   7.463  0.00  0.00    +0.000 A 
ATOM     31  CA  UNL     1      46.288   2.238   8.001  0.00  0.00    +0.000 A 
ATOM     32  N   UNL     1      45.519   1.926   9.076  0.00  0.00    +0.000 NA
BRANCH  31  33
ATOM     33  C   UNL     1      47.026   1.091   7.397  0.00  0.00    +0.000 C 
ATOM     34  O   UNL     1      47.881   1.193   6.539  0.00  0.00    +0.000 OA
BRANCH  33  35
ATOM     35  OXT UNL     1      46.622  -0.082   7.946  0.00  0.00    +0.000 OA
ATOM     36  HXT UNL     1      45.859   0.094   8.546  0.00  0.00    +0.000 HD
ENDBRANCH  33  35
ENDBRANCH  31  33
ENDBRANCH  26  27
ENDBRANCH  24  26
ENDBRANCH  23  24
ENDBRANCH   4  23
TORSDOF 10
ENDMDL
MODEL 2
REMARK VINA RESULT:    -7.277      1.627      2.109
REMARK INTER + INTRA:         -12.978
REMARK INTER:                 -11.814
REMARK INTRA:                  -1.163
REMARK UNBOUND:                -1.659
REMARK  Name = 
REMARK  11 active torsions:
REMARK  status: ('A' for Active; 'I' for Inactive)
REMARK    1  A    between atoms: C_1  and  C_2
REMARK    2  A    between atoms: C_2  and  N_3
REMARK    3  A    between atoms: C_2  and  C_23
REMARK    4  A    between atoms: N_3  and  C_4
REMARK    5  A    between atoms: C_4  and  C_5
REMARK    6  A    between atoms: C_8  and  C_9
REMARK    7  A    between atoms: C_9  and  N_10
REMARK    8  A    between atoms: N_10  and  C_11
REMARK    9  A    between atoms: C_11  and  C_12
REMARK   10  A    between atoms: CA_16  and  C_17
REMARK   11  A    between atoms: C_17  and  OXT_19
REMARK                            x       y       z     vdW  Elec       q    Type
REMARK                         _______ _______ _______ _____ _____    ______ ____
ROOT
ATOM      1  C   UNL     1      47.020   6.440  13.223  0.00  0.00    +0.000 A 
ATOM      2  C   UNL     1      45.879   7.101  12.748  0.00  0.00    +0.000 A 
ATOM      3  C   UNL     1      44.689   6.402  12.532  0.00  0.00    +0.000 A 
ATOM      4  C   UNL     1      44.620   5.023  12.772  0.00  0.00    +0.000 A 
ATOM      5  C   UNL     1      45.757   4.364  13.259  0.00  0.00    +0.000 A 
ATOM      6  C   UNL     1      46.945   5.064  13.480  0.00  0.00    +0.000 A 
ENDROOT
BRANCH   1   7
ATOM      7  C   UNL     1      48.339   7.161  13.315  0.00  0.00    +0.000 C 
BRANCH   7   8
ATOM      8  N   UNL     1      49.312   6.539  14.224  0.00  0.00    +0.000 NA
ATOM      9  H   UNL     1      50.046   6.111  13.656  0.00  0.00    +0.000 HD
BRANCH   8  11
ATOM     10  C   UNL     1      48.861   8.468  15.744  0.00  0.00    +0.000 C 
ATOM     11  C   UNL     1      49.927   7.562  15.083  0.00  0.00    +0.000 C 
BRANCH  11  12
ATOM     12  C   UNL     1      50.723   6.943  16.216  0.00  0.00    +0.000 A 
ATOM     13  C   UNL     1      51.989   7.354  16.608  0.00  0.00    +0.000 A 
ATOM     14  S   UNL     1      52.887   6.078  17.314  0.00  0.00    +0.000 S 
ATOM     15  C   UNL     1      51.541   5.034  17.279  0.00  0.00    +0.000 A 
ATOM     16  N   UNL     1      51.635   3.724  17.635  0.00  0.00    +0.000 NA
ATOM     17  C   UNL     1      50.503   3.100  17.658  0.00  0.00    +0.000 A 
ATOM     18  N   UNL     1      49.286   3.674  17.390  0.00  0.00    +0.000 N 
ATOM     19  C   UNL     1      49.144   4.984  16.981  0.00  0.00    +0.000 A 
ATOM     20  O   UNL     1      48.048   5.486  16.786  0.00  0.00    +0.000 OA
ATOM     21  C   UNL     1      50.404   5.696  16.858  0.00  0.00    +0.000 A 
ATOM     22  H   UNL     1      48.430   3.154  17.520  0.00  0.00    +0.000 HD
ENDBRANCH  11  12
ENDBRANCH   8  11
ENDBRANCH   7   8
ENDBRANCH   1   7
BRANCH   4  23
ATOM     23  C   UNL     1      43.354   4.246  12.494  0.00  0.00    +0.000 C 
BRANCH  23  24
ATOM     24  N   UNL     1      43.166   3.876  11.093  0.00  0.00    +0.000 NA
ATOM     25  H   UNL     1      43.513   4.619  10.486  0.00  0.00    +0.000 HD
BRANCH  24  26
ATOM     26  C   UNL     1      43.872   2.637  10.728  0.00  0.00    +0.000 C 
BRANCH  26  27
ATOM     27  C   UNL     1      44.833   2.842   9.566  0.00  0.00    +0.000 A 
ATOM     28  N   UNL     1      44.995   4.103   9.100  0.00  0.00    +0.000 NA
ATOM     29  C   UNL     1      45.832   4.274   8.058  0.00  0.00    +0.000 A 
ATOM     30  C   UNL     1      46.518   3.247   7.467  0.00  0.00    +0.000 A 
ATOM     31  CA  UNL     1      46.294   2.006   8.022  0.00  0.00    +0.000 A 
ATOM     32  N   UNL     1      45.466   1.761   9.070  0.00  0.00    +0.000 NA
BRANCH  31  33
ATOM     33  C   UNL     1      46.988   0.808   7.470  0.00  0.00    +0.000 C 
ATOM     34  O   UNL     1      46.787  -0.336   7.829  0.00  0.00    +0.000 OA
BRANCH  33  35
ATOM     35  OXT UNL     1      47.867   1.167   6.501  0.00  0.00    +0.000 OA
ATOM     36  HXT UNL     1      48.252   0.352   6.103  0.00  0.00    +0.000 HD
ENDBRANCH  33  35
ENDBRANCH  31  33
ENDBRANCH  26  27
ENDBRANCH  24  26
ENDBRANCH  23  24
ENDBRANCH   4  23
TORSDOF 10
ENDMDL
MODEL 3
REMARK VINA RESULT:    -7.136      1.416      2.031
REMARK INTER + INTRA:         -12.757
REMARK INTER:                 -11.643
REMARK INTRA:                  -1.114
REMARK UNBOUND:                -1.659
REMARK  Name = 
REMARK  11 active torsions:
REMARK  status: ('A' for Active; 'I' for Inactive)
REMARK    1  A    between atoms: C_1  and  C_2
REMARK    2  A    between atoms: C_2  and  N_3
REMARK    3  A    between atoms: C_2  and  C_23
REMARK    4  A    between atoms: N_3  and  C_4
REMARK    5  A    between atoms: C_4  and  C_5
REMARK    6  A    between atoms: C_8  and  C_9
REMARK    7  A    between atoms: C_9  and  N_10
REMARK    8  A    between atoms: N_10  and  C_11
REMARK    9  A    between atoms: C_11  and  C_12
REMARK   10  A    between atoms: CA_16  and  C_17
REMARK   11  A    between atoms: C_17  and  OXT_19
REMARK                            x       y       z     vdW  Elec       q    Type
REMARK                         _______ _______ _______ _____ _____    ______ ____
ROOT
ATOM      1  C   UNL     1      47.129   6.506  13.058  0.00  0.00    +0.000 A 
ATOM      2  C   UNL     1      47.075   5.117  13.244  0.00  0.00    +0.000 A 
ATOM      3  C   UNL     1      45.877   4.422  13.070  0.00  0.00    +0.000 A 
ATOM      4  C   UNL     1      44.702   5.103  12.722  0.00  0.00    +0.000 A 
ATOM      5  C   UNL     1      44.758   6.489  12.524  0.00  0.00    +0.000 A 
ATOM      6  C   UNL     1      45.958   7.183  12.693  0.00  0.00    +0.000 A 
ENDROOT
BRANCH   1   7
ATOM      7  C   UNL     1      48.383   7.273  13.389  0.00  0.00    +0.000 C 
BRANCH   7   8
ATOM      8  N   UNL     1      49.325   6.556  14.259  0.00  0.00    +0.000 NA
ATOM      9  H   UNL     1      50.250   6.602  13.829  0.00  0.00    +0.000 HD
BRANCH   8  11
ATOM     10  C   UNL     1      48.454   8.435  15.655  0.00  0.00    +0.000 C 
ATOM     11  C   UNL     1      49.391   7.207  15.577  0.00  0.00    +0.000 C 
BRANCH  11  12
ATOM     12  C   UNL     1      48.963   6.270  16.690  0.00  0.00    +0.000 A 
ATOM     13  C   UNL     1      48.322   5.055  16.497  0.00  0.00    +0.000 A 
ATOM     14  S   UNL     1      47.335   4.632  17.832  0.00  0.00    +0.000 S 
ATOM     15  C   UNL     1      47.903   5.954  18.745  0.00  0.00    +0.000 A 
ATOM     16  N   UNL     1      47.385   6.264  19.964  0.00  0.00    +0.000 NA
ATOM     17  C   UNL     1      47.999   7.227  20.570  0.00  0.00    +0.000 A 
ATOM     18  N   UNL     1      49.102   7.883  20.084  0.00  0.00    +0.000 N 
ATOM     19  C   UNL     1      49.636   7.636  18.835  0.00  0.00    +0.000 A 
ATOM     20  O   UNL     1      50.642   8.203  18.438  0.00  0.00    +0.000 OA
ATOM     21  C   UNL     1      48.918   6.620  18.086  0.00  0.00    +0.000 A 
ATOM     22  H   UNL     1      49.592   8.559  20.651  0.00  0.00    +0.000 HD
ENDBRANCH  11  12
ENDBRANCH   8  11
ENDBRANCH   7   8
ENDBRANCH   1   7
BRANCH   4  23
ATOM     23  C   UNL     1      43.388   4.370  12.581  0.00  0.00    +0.000 C 
BRANCH  23  24
ATOM     24  N   UNL     1      43.105   3.888  11.231  0.00  0.00    +0.000 NA
ATOM     25  H   UNL     1      43.345   4.606  10.546  0.00  0.00    +0.000 HD
BRANCH  24  26
ATOM     26  C   UNL     1      43.864   2.674  10.886  0.00  0.00    +0.000 C 
BRANCH  26  27
ATOM     27  C   UNL     1      44.741   2.871   9.658  0.00  0.00    +0.000 A 
ATOM     28  N   UNL     1      44.757   4.100   9.089  0.00  0.00    +0.000 NA
ATOM     29  C   UNL     1      45.522   4.262   7.992  0.00  0.00    +0.000 A 
ATOM     30  C   UNL     1      46.273   3.257   7.442  0.00  0.00    +0.000 A 
ATOM     31  CA  UNL     1      46.197   2.050   8.102  0.00  0.00    +0.000 A 
ATOM     32  N   UNL     1      45.449   1.816   9.212  0.00  0.00    +0.000 NA
BRANCH  31  33
ATOM     33  C   UNL     1      46.975   0.880   7.604  0.00  0.00    +0.000 C 
ATOM     34  O   UNL     1      46.681  -0.283   7.803  0.00  0.00    +0.000 OA
BRANCH  33  35
ATOM     35  OXT UNL     1      48.050   1.290   6.886  0.00  0.00    +0.000 OA
ATOM     36  HXT UNL     1      48.808   1.431   7.501  0.00  0.00    +0.000 HD
ENDBRANCH  33  35
ENDBRANCH  31  33
ENDBRANCH  26  27
ENDBRANCH  24  26
ENDBRANCH  23  24
ENDBRANCH   4  23
TORSDOF 10
ENDMDL
MODEL 4
REMARK VINA RESULT:    -6.974      3.371      8.345
REMARK INTER + INTRA:         -12.506
REMARK INTER:                 -10.325
REMARK INTRA:                  -2.181
REMARK UNBOUND:                -1.659
REMARK  Name = 
REMARK  11 active torsions:
REMARK  status: ('A' for Active; 'I' for Inactive)
REMARK    1  A    between atoms: C_1  and  C_2
REMARK    2  A    between atoms: C_2  and  N_3
REMARK    3  A    between atoms: C_2  and  C_23
REMARK    4  A    between atoms: N_3  and  C_4
REMARK    5  A    between atoms: C_4  and  C_5
REMARK    6  A    between atoms: C_8  and  C_9
REMARK    7  A    between atoms: C_9  and  N_10
REMARK    8  A    between atoms: N_10  and  C_11
REMARK    9  A    between atoms: C_11  and  C_12
REMARK   10  A    between atoms: CA_16  and  C_17
REMARK   11  A    between atoms: C_17  and  OXT_19
REMARK                            x       y       z     vdW  Elec       q    Type
REMARK                         _______ _______ _______ _____ _____    ______ ____
ROOT
ATOM      1  C   UNL     1      48.630   8.153  14.844  0.00  0.00    +0.000 A 
ATOM      2  C   UNL     1      48.482   8.848  16.053  0.00  0.00    +0.000 A 
ATOM      3  C   UNL     1      49.430   8.718  17.070  0.00  0.00    +0.000 A 
ATOM      4  C   UNL     1      50.541   7.878  16.905  0.00  0.00    +0.000 A 
ATOM      5  C   UNL     1      50.696   7.194  15.693  0.00  0.00    +0.000 A 
ATOM      6  C   UNL     1      49.750   7.327  14.674  0.00  0.00    +0.000 A 
ENDROOT
BRANCH   1   7
ATOM      7  C   UNL     1      47.536   8.176  13.809  0.00  0.00    +0.000 C 
BRANCH   7   8
ATOM      8  N   UNL     1      46.835   6.897  13.634  0.00  0.00    +0.000 NA
ATOM      9  H   UNL     1      46.448   6.623  14.540  0.00  0.00    +0.000 HD
BRANCH   8  11
ATOM     10  C   UNL     1      45.821   8.392  11.910  0.00  0.00    +0.000 C 
ATOM     11  C   UNL     1      45.725   7.055  12.682  0.00  0.00    +0.000 C 
BRANCH  11  12
ATOM     12  C   UNL     1      45.719   5.956  11.636  0.00  0.00    +0.000 A 
ATOM     13  C   UNL     1      46.056   6.135  10.303  0.00  0.00    +0.000 A 
ATOM     14  S   UNL     1      45.261   5.009   9.285  0.00  0.00    +0.000 S 
ATOM     15  C   UNL     1      44.623   4.165  10.620  0.00  0.00    +0.000 A 
ATOM     16  N   UNL     1      43.742   3.139  10.469  0.00  0.00    +0.000 NA
ATOM     17  C   UNL     1      43.440   2.536  11.572  0.00  0.00    +0.000 A 
ATOM     18  N   UNL     1      43.963   2.843  12.803  0.00  0.00    +0.000 N 
ATOM     19  C   UNL     1      44.823   3.903  13.013  0.00  0.00    +0.000 A 
ATOM     20  O   UNL     1      45.308   4.134  14.109  0.00  0.00    +0.000 OA
ATOM     21  C   UNL     1      45.118   4.660  11.810  0.00  0.00    +0.000 A 
ATOM     22  H   UNL     1      43.759   2.270  13.608  0.00  0.00    +0.000 HD
ENDBRANCH  11  12
ENDBRANCH   8  11
ENDBRANCH   7   8
ENDBRANCH   1   7
BRANCH   4  23
ATOM     23  C   UNL     1      51.547   7.690  18.017  0.00  0.00    +0.000 C 
BRANCH  23  24
ATOM     24  N   UNL     1      52.167   6.368  18.056  0.00  0.00    +0.000 NA
ATOM     25  H   UNL     1      53.138   6.446  18.361  0.00  0.00    +0.000 HD
BRANCH  24  26
ATOM     26  C   UNL     1      51.485   5.443  18.976  0.00  0.00    +0.000 C 
BRANCH  26  27
ATOM     27  C   UNL     1      50.716   4.357  18.237  0.00  0.00    +0.000 A 
ATOM     28  N   UNL     1      51.377   3.215  17.935  0.00  0.00    +0.000 NA
ATOM     29  C   UNL     1      50.695   2.266  17.265  0.00  0.00    +0.000 A 
ATOM     30  C   UNL     1      49.385   2.403  16.890  0.00  0.00    +0.000 A 
ATOM     31  CA  UNL     1      48.800   3.596  17.255  0.00  0.00    +0.000 A 
ATOM     32  N   UNL     1      49.426   4.594  17.930  0.00  0.00    +0.000 NA
BRANCH  31  33
ATOM     33  C   UNL     1      47.375   3.862  16.909  0.00  0.00    +0.000 C 
ATOM     34  O   UNL     1      46.432   3.198  17.295  0.00  0.00    +0.000 OA
BRANCH  33  35
ATOM     35  OXT UNL     1      47.271   4.954  16.111  0.00  0.00    +0.000 OA
ATOM     36  HXT UNL     1      47.479   4.692  15.184  0.00  0.00    +0.000 HD
ENDBRANCH  33  35
ENDBRANCH  31  33
ENDBRANCH  26  27
ENDBRANCH  24  26
ENDBRANCH  23  24
ENDBRANCH   4  23
TORSDOF 10
ENDMDL
MODEL 5
REMARK VINA RESULT:    -6.960      2.780      8.600
REMARK INTER + INTRA:         -12.483
REMARK INTER:                 -11.019
REMARK INTRA:                  -1.464
REMARK UNBOUND:                -1.659
REMARK  Name = 
REMARK  11 active torsions:
REMARK  status: ('A' for Active; 'I' for Inactive)
REMARK    1  A    between atoms: C_1  and  C_2
REMARK    2  A    between atoms: C_2  and  N_3
REMARK    3  A    between atoms: C_2  and  C_23
REMARK    4  A    between atoms: N_3  and  C_4
REMARK    5  A    between atoms: C_4  and  C_5
REMARK    6  A    between atoms: C_8  and  C_9
REMARK    7  A    between atoms: C_9  and  N_10
REMARK    8  A    between atoms: N_10  and  C_11
REMARK    9  A    between atoms: C_11  and  C_12
REMARK   10  A    between atoms: CA_16  and  C_17
REMARK   11  A    between atoms: C_17  and  OXT_19
REMARK                            x       y       z     vdW  Elec       q    Type
REMARK                         _______ _______ _______ _____ _____    ______ ____
ROOT
ATOM      1  C   UNL     1      47.452   8.223  12.781  0.00  0.00    +0.000 A 
ATOM      2  C   UNL     1      47.516   8.509  14.152  0.00  0.00    +0.000 A 
ATOM      3  C   UNL     1      48.728   8.427  14.840  0.00  0.00    +0.000 A 
ATOM      4  C   UNL     1      49.901   8.042  14.175  0.00  0.00    +0.000 A 
ATOM      5  C   UNL     1      49.839   7.768  12.802  0.00  0.00    +0.000 A 
ATOM      6  C   UNL     1      48.627   7.855  12.113  0.00  0.00    +0.000 A 
ENDROOT
BRANCH   1   7
ATOM      7  C   UNL     1      46.123   8.167  12.073  0.00  0.00    +0.000 C 
BRANCH   7   8
ATOM      8  N   UNL     1      45.226   7.102  12.543  0.00  0.00    +0.000 NA
ATOM      9  H   UNL     1      44.346   7.181  12.030  0.00  0.00    +0.000 HD
BRANCH   8  11
ATOM     10  C   UNL     1      46.337   5.102  13.544  0.00  0.00    +0.000 C 
ATOM     11  C   UNL     1      45.813   5.784  12.258  0.00  0.00    +0.000 C 
BRANCH  11  12
ATOM     12  C   UNL     1      44.798   4.833  11.653  0.00  0.00    +0.000 A 
ATOM     13  C   UNL     1      43.772   4.221  12.358  0.00  0.00    +0.000 A 
ATOM     14  S   UNL     1      43.319   2.724  11.660  0.00  0.00    +0.000 S 
ATOM     15  C   UNL     1      44.342   2.973  10.321  0.00  0.00    +0.000 A 
ATOM     16  N   UNL     1      44.534   2.016   9.372  0.00  0.00    +0.000 NA
ATOM     17  C   UNL     1      45.252   2.403   8.369  0.00  0.00    +0.000 A 
ATOM     18  N   UNL     1      45.766   3.665   8.213  0.00  0.00    +0.000 N 
ATOM     19  C   UNL     1      45.638   4.655   9.167  0.00  0.00    +0.000 A 
ATOM     20  O   UNL     1      46.069   5.783   8.991  0.00  0.00    +0.000 OA
ATOM     21  C   UNL     1      44.911   4.231  10.351  0.00  0.00    +0.000 A 
ATOM     22  H   UNL     1      46.236   3.929   7.359  0.00  0.00    +0.000 HD
ENDBRANCH  11  12
ENDBRANCH   8  11
ENDBRANCH   7   8
ENDBRANCH   1   7
BRANCH   4  23
ATOM     23  C   UNL     1      51.208   7.900  14.918  0.00  0.00    +0.000 C 
BRANCH  23  24
ATOM     24  N   UNL     1      51.379   6.623  15.606  0.00  0.00    +0.000 NA
ATOM     25  H   UNL     1      52.294   6.227  15.386  0.00  0.00    +0.000 HD
BRANCH  24  26
ATOM     26  C   UNL     1      51.288   6.744  17.070  0.00  0.00    +0.000 C 
BRANCH  26  27
ATOM     27  C   UNL     1      50.334   5.725  17.676  0.00  0.00    +0.000 A 
ATOM     28  N   UNL     1      50.330   5.593  19.024  0.00  0.00    +0.000 NA
ATOM     29  C   UNL     1      49.497   4.675  19.552  0.00  0.00    +0.000 A 
ATOM     30  C   UNL     1      48.666   3.890  18.798  0.00  0.00    +0.000 A 
ATOM     31  CA  UNL     1      48.737   4.111  17.439  0.00  0.00    +0.000 A 
ATOM     32  N   UNL     1      49.551   5.017  16.840  0.00  0.00    +0.000 NA
BRANCH  31  33
ATOM     33  C   UNL     1      47.875   3.322  16.512  0.00  0.00    +0.000 C 
ATOM     34  O   UNL     1      48.272   2.752  15.514  0.00  0.00    +0.000 OA
BRANCH  33  35
ATOM     35  OXT UNL     1      46.589   3.316  16.942  0.00  0.00    +0.000 OA
ATOM     36  HXT UNL     1      46.509   2.691  17.700  0.00  0.00    +0.000 HD
ENDBRANCH  33  35
ENDBRANCH  31  33
ENDBRANCH  26  27
ENDBRANCH  24  26
ENDBRANCH  23  24
ENDBRANCH   4  23
TORSDOF 10
ENDMDL
MODEL 6
REMARK VINA RESULT:    -6.862      3.262      8.110
REMARK INTER + INTRA:         -12.331
REMARK INTER:                 -10.763
REMARK INTRA:                  -1.568
REMARK UNBOUND:                -1.659
REMARK  Name = 
REMARK  11 active torsions:
REMARK  status: ('A' for Active; 'I' for Inactive)
REMARK    1  A    between atoms: C_1  and  C_2
REMARK    2  A    between atoms: C_2  and  N_3
REMARK    3  A    between atoms: C_2  and  C_23
REMARK    4  A    between atoms: N_3  and  C_4
REMARK    5  A    between atoms: C_4  and  C_5
REMARK    6  A    between atoms: C_8  and  C_9
REMARK    7  A    between atoms: C_9  and  N_10
REMARK    8  A    between atoms: N_10  and  C_11
REMARK    9  A    between atoms: C_11  and  C_12
REMARK   10  A    between atoms: CA_16  and  C_17
REMARK   11  A    between atoms: C_17  and  OXT_19
REMARK                            x       y       z     vdW  Elec       q    Type
REMARK                         _______ _______ _______ _____ _____    ______ ____
ROOT
ATOM      1  C   UNL     1      48.284   8.187  14.180  0.00  0.00    +0.000 A 
ATOM      2  C   UNL     1      48.990   7.065  14.637  0.00  0.00    +0.000 A 
ATOM      3  C   UNL     1      49.420   6.986  15.964  0.00  0.00    +0.000 A 
ATOM      4  C   UNL     1      49.166   8.036  16.858  0.00  0.00    +0.000 A 
ATOM      5  C   UNL     1      48.449   9.151  16.405  0.00  0.00    +0.000 A 
ATOM      6  C   UNL     1      48.015   9.227  15.080  0.00  0.00    +0.000 A 
ENDROOT
BRANCH   1   7
ATOM      7  C   UNL     1      47.951   8.338  12.719  0.00  0.00    +0.000 C 
BRANCH   7   8
ATOM      8  N   UNL     1      47.715   7.070  12.013  0.00  0.00    +0.000 NA
ATOM      9  H   UNL     1      48.279   6.348  12.465  0.00  0.00    +0.000 HD
BRANCH   8  11
ATOM     10  C   UNL     1      45.362   7.871  11.772  0.00  0.00    +0.000 C 
ATOM     11  C   UNL     1      46.298   6.689  12.119  0.00  0.00    +0.000 C 
BRANCH  11  12
ATOM     12  C   UNL     1      45.943   5.567  11.164  0.00  0.00    +0.000 A 
ATOM     13  C   UNL     1      46.014   5.655   9.781  0.00  0.00    +0.000 A 
ATOM     14  S   UNL     1      44.895   4.608   9.014  0.00  0.00    +0.000 S 
ATOM     15  C   UNL     1      44.453   3.899  10.498  0.00  0.00    +0.000 A 
ATOM     16  N   UNL     1      43.444   2.991  10.591  0.00  0.00    +0.000 NA
ATOM     17  C   UNL     1      43.309   2.469  11.766  0.00  0.00    +0.000 A 
ATOM     18  N   UNL     1      44.110   2.747  12.845  0.00  0.00    +0.000 N 
ATOM     19  C   UNL     1      45.115   3.693  12.813  0.00  0.00    +0.000 A 
ATOM     20  O   UNL     1      45.842   3.896  13.772  0.00  0.00    +0.000 OA
ATOM     21  C   UNL     1      45.242   4.365  11.532  0.00  0.00    +0.000 A 
ATOM     22  H   UNL     1      44.011   2.233  13.707  0.00  0.00    +0.000 HD
ENDBRANCH  11  12
ENDBRANCH   8  11
ENDBRANCH   7   8
ENDBRANCH   1   7
BRANCH   4  23
ATOM     23  C   UNL     1      49.669   7.985  18.282  0.00  0.00    +0.000 C 
BRANCH  23  24
ATOM     24  N   UNL     1      48.721   7.423  19.241  0.00  0.00    +0.000 NA
ATOM     25  H   UNL     1      47.791   7.371  18.823  0.00  0.00    +0.000 HD
BRANCH  24  26
ATOM     26  C   UNL     1      49.087   6.066  19.679  0.00  0.00    +0.000 C 
BRANCH  26  27
ATOM     27  C   UNL     1      48.643   5.000  18.689  0.00  0.00    +0.000 A 
ATOM     28  N   UNL     1      47.365   5.049  18.244  0.00  0.00    +0.000 NA
ATOM     29  C   UNL     1      46.973   4.091  17.382  0.00  0.00    +0.000 A 
ATOM     30  C   UNL     1      47.800   3.093  16.940  0.00  0.00    +0.000 A 
ATOM     31  CA  UNL     1      49.082   3.138  17.442  0.00  0.00    +0.000 A 
ATOM     32  N   UNL     1      49.544   4.073  18.312  0.00  0.00    +0.000 NA
BRANCH  31  33
ATOM     33  C   UNL     1      50.078   2.108  17.031  0.00  0.00    +0.000 C 
ATOM     34  O   UNL     1      50.098   1.556  15.948  0.00  0.00    +0.000 OA
BRANCH  33  35
ATOM     35  OXT UNL     1      50.969   1.877  18.028  0.00  0.00    +0.000 OA
ATOM     36  HXT UNL     1      50.490   1.886  18.890  0.00  0.00    +0.000 HD
ENDBRANCH  33  35
ENDBRANCH  31  33
ENDBRANCH  26  27
ENDBRANCH  24  26
ENDBRANCH  23  24
ENDBRANCH   4  23
TORSDOF 10
ENDMDL
MODEL 7
REMARK VINA RESULT:    -6.754      1.610      2.429
REMARK INTER + INTRA:         -12.163
REMARK INTER:                 -10.664
REMARK INTRA:                  -1.500
REMARK UNBOUND:                -1.659
REMARK  Name = 
REMARK  11 active torsions:
REMARK  status: ('A' for Active; 'I' for Inactive)
REMARK    1  A    between atoms: C_1  and  C_2
REMARK    2  A    between atoms: C_2  and  N_3
REMARK    3  A    between atoms: C_2  and  C_23
REMARK    4  A    between atoms: N_3  and  C_4
REMARK    5  A    between atoms: C_4  and  C_5
REMARK    6  A    between atoms: C_8  and  C_9
REMARK    7  A    between atoms: C_9  and  N_10
REMARK    8  A    between atoms: N_10  and  C_11
REMARK    9  A    between atoms: C_11  and  C_12
REMARK   10  A    between atoms: CA_16  and  C_17
REMARK   11  A    between atoms: C_17  and  OXT_19
REMARK                            x       y       z     vdW  Elec       q    Type
REMARK                         _______ _______ _______ _____ _____    ______ ____
ROOT
ATOM      1  C   UNL     1      48.798   7.712  13.444  0.00  0.00    +0.000 A 
ATOM      2  C   UNL     1      48.487   6.602  12.646  0.00  0.00    +0.000 A 
ATOM      3  C   UNL     1      47.180   6.385  12.204  0.00  0.00    +0.000 A 
ATOM      4  C   UNL     1      46.151   7.268  12.565  0.00  0.00    +0.000 A 
ATOM      5  C   UNL     1      46.464   8.384  13.352  0.00  0.00    +0.000 A 
ATOM      6  C   UNL     1      47.772   8.602  13.789  0.00  0.00    +0.000 A 
ENDROOT
BRANCH   1   7
ATOM      7  C   UNL     1      50.172   7.864  14.040  0.00  0.00    +0.000 C 
BRANCH   7   8
ATOM      8  N   UNL     1      50.498   6.878  15.081  0.00  0.00    +0.000 NA
ATOM      9  H   UNL     1      51.405   6.467  14.853  0.00  0.00    +0.000 HD
BRANCH   8  11
ATOM     10  C   UNL     1      50.759   9.073  16.243  0.00  0.00    +0.000 C 
ATOM     11  C   UNL     1      50.602   7.540  16.390  0.00  0.00    +0.000 C 
BRANCH  11  12
ATOM     12  C   UNL     1      49.363   7.317  17.235  0.00  0.00    +0.000 A 
ATOM     13  C   UNL     1      48.440   8.300  17.559  0.00  0.00    +0.000 A 
ATOM     14  S   UNL     1      47.652   7.976  19.045  0.00  0.00    +0.000 S 
ATOM     15  C   UNL     1      48.387   6.443  19.166  0.00  0.00    +0.000 A 
ATOM     16  N   UNL     1      48.241   5.659  20.268  0.00  0.00    +0.000 NA
ATOM     17  C   UNL     1      48.772   4.485  20.156  0.00  0.00    +0.000 A 
ATOM     18  N   UNL     1      49.404   4.015  19.033  0.00  0.00    +0.000 N 
ATOM     19  C   UNL     1      49.618   4.787  17.908  0.00  0.00    +0.000 A 
ATOM     20  O   UNL     1      50.147   4.336  16.905  0.00  0.00    +0.000 OA
ATOM     21  C   UNL     1      49.112   6.143  18.029  0.00  0.00    +0.000 A 
ATOM     22  H   UNL     1      49.710   3.055  18.977  0.00  0.00    +0.000 HD
ENDBRANCH  11  12
ENDBRANCH   8  11
ENDBRANCH   7   8
ENDBRANCH   1   7
BRANCH   4  23
ATOM     23  C   UNL     1      44.724   7.017  12.136  0.00  0.00    +0.000 C 
BRANCH  23  24
ATOM     24  N   UNL     1      44.578   6.543  10.762  0.00  0.00    +0.000 NA
ATOM     25  H   UNL     1      45.471   6.185  10.420  0.00  0.00    +0.000 HD
BRANCH  24  26
ATOM     26  C   UNL     1      43.586   5.464  10.631  0.00  0.00    +0.000 C 
BRANCH  26  27
ATOM     27  C   UNL     1      44.148   4.248   9.909  0.00  0.00    +0.000 A 
ATOM     28  N   UNL     1      43.779   3.025  10.358  0.00  0.00    +0.000 NA
ATOM     29  C   UNL     1      44.295   1.953   9.726  0.00  0.00    +0.000 A 
ATOM     30  C   UNL     1      45.156   2.047   8.665  0.00  0.00    +0.000 A 
ATOM     31  CA  UNL     1      45.460   3.334   8.278  0.00  0.00    +0.000 A 
ATOM     32  N   UNL     1      44.977   4.458   8.868  0.00  0.00    +0.000 NA
BRANCH  31  33
ATOM     33  C   UNL     1      46.383   3.567   7.130  0.00  0.00    +0.000 C 
ATOM     34  O   UNL     1      46.431   2.879   6.129  0.00  0.00    +0.000 OA
BRANCH  33  35
ATOM     35  OXT UNL     1      47.155   4.660   7.351  0.00  0.00    +0.000 OA
ATOM     36  HXT UNL     1      47.222   5.176   6.513  0.00  0.00    +0.000 HD
ENDBRANCH  33  35
ENDBRANCH  31  33
ENDBRANCH  26  27
ENDBRANCH  24  26
ENDBRANCH  23  24
ENDBRANCH   4  23
TORSDOF 10
ENDMDL
MODEL 8
REMARK VINA RESULT:    -6.599      2.324      3.691
REMARK INTER + INTRA:         -11.922
REMARK INTER:                 -10.931
REMARK INTRA:                  -0.991
REMARK UNBOUND:                -1.659
REMARK  Name = 
REMARK  11 active torsions:
REMARK  status: ('A' for Active; 'I' for Inactive)
REMARK    1  A    between atoms: C_1  and  C_2
REMARK    2  A    between atoms: C_2  and  N_3
REMARK    3  A    between atoms: C_2  and  C_23
REMARK    4  A    between atoms: N_3  and  C_4
REMARK    5  A    between atoms: C_4  and  C_5
REMARK    6  A    between atoms: C_8  and  C_9
REMARK    7  A    between atoms: C_9  and  N_10
REMARK    8  A    between atoms: N_10  and  C_11
REMARK    9  A    between atoms: C_11  and  C_12
REMARK   10  A    between atoms: CA_16  and  C_17
REMARK   11  A    between atoms: C_17  and  OXT_19
REMARK                            x       y       z     vdW  Elec       q    Type
REMARK                         _______ _______ _______ _____ _____    ______ ____
ROOT
ATOM      1  C   UNL     1      48.479   6.874  14.776  0.00  0.00    +0.000 A 
ATOM      2  C   UNL     1      47.719   5.700  14.678  0.00  0.00    +0.000 A 
ATOM      3  C   UNL     1      46.887   5.480  13.578  0.00  0.00    +0.000 A 
ATOM      4  C   UNL     1      46.786   6.437  12.559  0.00  0.00    +0.000 A 
ATOM      5  C   UNL     1      47.555   7.605  12.650  0.00  0.00    +0.000 A 
ATOM      6  C   UNL     1      48.391   7.822  13.747  0.00  0.00    +0.000 A 
ENDROOT
BRANCH   1   7
ATOM      7  C   UNL     1      49.260   7.177  16.028  0.00  0.00    +0.000 C 
BRANCH   7   8
ATOM      8  N   UNL     1      48.535   6.911  17.278  0.00  0.00    +0.000 NA
ATOM      9  H   UNL     1      47.972   6.069  17.143  0.00  0.00    +0.000 HD
BRANCH   8  11
ATOM     10  C   UNL     1      48.843   6.923  19.756  0.00  0.00    +0.000 C 
ATOM     11  C   UNL     1      49.486   6.667  18.372  0.00  0.00    +0.000 C 
BRANCH  11  12
ATOM     12  C   UNL     1      49.972   5.230  18.386  0.00  0.00    +0.000 A 
ATOM     13  C   UNL     1      51.273   4.840  18.666  0.00  0.00    +0.000 A 
ATOM     14  S   UNL     1      51.680   3.364  17.896  0.00  0.00    +0.000 S 
ATOM     15  C   UNL     1      50.081   3.142  17.350  0.00  0.00    +0.000 A 
ATOM     16  N   UNL     1      49.739   2.121  16.519  0.00  0.00    +0.000 NA
ATOM     17  C   UNL     1      48.470   2.031  16.288  0.00  0.00    +0.000 A 
ATOM     18  N   UNL     1      47.513   2.845  16.838  0.00  0.00    +0.000 N 
ATOM     19  C   UNL     1      47.814   3.921  17.648  0.00  0.00    +0.000 A 
ATOM     20  O   UNL     1      46.944   4.609  18.159  0.00  0.00    +0.000 OA
ATOM     21  C   UNL     1      49.238   4.109  17.861  0.00  0.00    +0.000 A 
ATOM     22  H   UNL     1      46.531   2.659  16.692  0.00  0.00    +0.000 HD
ENDBRANCH  11  12
ENDBRANCH   8  11
ENDBRANCH   7   8
ENDBRANCH   1   7
BRANCH   4  23
ATOM     23  C   UNL     1      45.851   6.234  11.389  0.00  0.00    +0.000 C 
BRANCH  23  24
ATOM     24  N   UNL     1      44.530   5.724  11.751  0.00  0.00    +0.000 NA
ATOM     25  H   UNL     1      44.014   6.432  12.274  0.00  0.00    +0.000 HD
BRANCH  24  26
ATOM     26  C   UNL     1      43.718   5.357  10.579  0.00  0.00    +0.000 C 
BRANCH  26  27
ATOM     27  C   UNL     1      44.302   4.174   9.820  0.00  0.00    +0.000 A 
ATOM     28  N   UNL     1      43.969   2.931  10.244  0.00  0.00    +0.000 NA
ATOM     29  C   UNL     1      44.504   1.888   9.580  0.00  0.00    +0.000 A 
ATOM     30  C   UNL     1      45.349   2.030   8.511  0.00  0.00    +0.000 A 
ATOM     31  CA  UNL     1      45.614   3.333   8.152  0.00  0.00    +0.000 A 
ATOM     32  N   UNL     1      45.111   4.430   8.774  0.00  0.00    +0.000 NA
BRANCH  31  33
ATOM     33  C   UNL     1      46.516   3.617   6.999  0.00  0.00    +0.000 C 
ATOM     34  O   UNL     1      46.504   3.013   5.944  0.00  0.00    +0.000 OA
BRANCH  33  35
ATOM     35  OXT UNL     1      47.347   4.652   7.284  0.00  0.00    +0.000 OA
ATOM     36  HXT UNL     1      47.374   5.261   6.508  0.00  0.00    +0.000 HD
ENDBRANCH  33  35
ENDBRANCH  31  33
ENDBRANCH  26  27
ENDBRANCH  24  26
ENDBRANCH  23  24
ENDBRANCH   4  23
TORSDOF 10
ENDMDL
MODEL 9
REMARK VINA RESULT:    -6.375      3.196      4.679
REMARK INTER + INTRA:         -11.575
REMARK INTER:                 -10.315
REMARK INTRA:                  -1.260
REMARK UNBOUND:                -1.659
REMARK  Name = 
REMARK  11 active torsions:
REMARK  status: ('A' for Active; 'I' for Inactive)
REMARK    1  A    between atoms: C_1  and  C_2
REMARK    2  A    between atoms: C_2  and  N_3
REMARK    3  A    between atoms: C_2  and  C_23
REMARK    4  A    between atoms: N_3  and  C_4
REMARK    5  A    between atoms: C_4  and  C_5
REMARK    6  A    between atoms: C_8  and  C_9
REMARK    7  A    between atoms: C_9  and  N_10
REMARK    8  A    between atoms: N_10  and  C_11
REMARK    9  A    between atoms: C_11  and  C_12
REMARK   10  A    between atoms: CA_16  and  C_17
REMARK   11  A    between atoms: C_17  and  OXT_19
REMARK                            x       y       z     vdW  Elec       q    Type
REMARK                         _______ _______ _______ _____ _____    ______ ____
ROOT
ATOM      1  C   UNL     1      47.339   6.893  12.916  0.00  0.00    +0.000 A 
ATOM      2  C   UNL     1      47.422   5.676  13.608  0.00  0.00    +0.000 A 
ATOM      3  C   UNL     1      46.378   4.751  13.547  0.00  0.00    +0.000 A 
ATOM      4  C   UNL     1      45.222   5.029  12.805  0.00  0.00    +0.000 A 
ATOM      5  C   UNL     1      45.144   6.239  12.103  0.00  0.00    +0.000 A 
ATOM      6  C   UNL     1      46.190   7.162  12.160  0.00  0.00    +0.000 A 
ENDROOT
BRANCH   1   7
ATOM      7  C   UNL     1      48.396   7.951  13.100  0.00  0.00    +0.000 C 
BRANCH   7   8
ATOM      8  N   UNL     1      48.025   9.278  12.590  0.00  0.00    +0.000 NA
ATOM      9  H   UNL     1      48.090   9.943  13.364  0.00  0.00    +0.000 HD
BRANCH   8  11
ATOM     10  C   UNL     1      48.516  11.016  10.866  0.00  0.00    +0.000 C 
ATOM     11  C   UNL     1      48.962   9.695  11.537  0.00  0.00    +0.000 C 
BRANCH  11  12
ATOM     12  C   UNL     1      50.354   9.944  12.086  0.00  0.00    +0.000 A 
ATOM     13  C   UNL     1      50.677  10.937  12.999  0.00  0.00    +0.000 A 
ATOM     14  S   UNL     1      52.304  11.448  12.842  0.00  0.00    +0.000 S 
ATOM     15  C   UNL     1      52.638  10.227  11.703  0.00  0.00    +0.000 A 
ATOM     16  N   UNL     1      53.833  10.151  11.056  0.00  0.00    +0.000 NA
ATOM     17  C   UNL     1      53.963   9.106  10.307  0.00  0.00    +0.000 A 
ATOM     18  N   UNL     1      53.024   8.115  10.172  0.00  0.00    +0.000 N 
ATOM     19  C   UNL     1      51.780   8.169  10.770  0.00  0.00    +0.000 A 
ATOM     20  O   UNL     1      50.974   7.258  10.669  0.00  0.00    +0.000 OA
ATOM     21  C   UNL     1      51.562   9.374  11.551  0.00  0.00    +0.000 A 
ATOM     22  H   UNL     1      53.228   7.277   9.648  0.00  0.00    +0.000 HD
ENDBRANCH  11  12
ENDBRANCH   8  11
ENDBRANCH   7   8
ENDBRANCH   1   7
BRANCH   4  23
ATOM     23  C   UNL     1      44.064   4.058  12.772  0.00  0.00    +0.000 C 
BRANCH  23  24
ATOM     24  N   UNL     1      44.340   2.809  12.065  0.00  0.00    +0.000 NA
ATOM     25  H   UNL     1      44.010   2.016  12.615  0.00  0.00    +0.000 HD
BRANCH  24  26
ATOM     26  C   UNL     1      43.686   2.741  10.748  0.00  0.00    +0.000 C 
BRANCH  26  27
ATOM     27  C   UNL     1      44.665   2.960   9.604  0.00  0.00    +0.000 A 
ATOM     28  N   UNL     1      44.774   4.213   9.103  0.00  0.00    +0.000 NA
ATOM     29  C   UNL     1      45.629   4.396   8.078  0.00  0.00    +0.000 A 
ATOM     30  C   UNL     1      46.383   3.388   7.537  0.00  0.00    +0.000 A 
ATOM     31  CA  UNL     1      46.208   2.155   8.126  0.00  0.00    +0.000 A 
ATOM     32  N   UNL     1      45.365   1.899   9.160  0.00  0.00    +0.000 NA
BRANCH  31  33
ATOM     33  C   UNL     1      46.977   0.978   7.629  0.00  0.00    +0.000 C 
ATOM     34  O   UNL     1      46.683  -0.182   7.842  0.00  0.00    +0.000 OA
BRANCH  33  35
ATOM     35  OXT UNL     1      48.045   1.379   6.894  0.00  0.00    +0.000 OA
ATOM     36  HXT UNL     1      48.771   0.721   7.004  0.00  0.00    +0.000 HD
ENDBRANCH  33  35
ENDBRANCH  31  33
ENDBRANCH  26  27
ENDBRANCH  24  26
ENDBRANCH  23  24
ENDBRANCH   4  23
TORSDOF 10
ENDMDL
