MODEL 1
REMARK VINA RESULT:    -8.391      0.000      0.000
REMARK INTER + INTRA:         -11.564
REMARK INTER:                 -10.844
REMARK INTRA:                  -0.720
REMARK UNBOUND:                -0.720
REMARK  Name = 
REMARK  5 active torsions:
REMARK  status: ('A' for Active; 'I' for Inactive)
REMARK    1  A    between atoms: C_2  and  C_4
REMARK    2  A    between atoms: C_7  and  C_8
REMARK    3  A    between atoms: C_8  and  O_9
REMARK    4  A    between atoms: O_9  and  C_10
REMARK    5  A    between atoms: C_14  and  C_15
REMARK                            x       y       z     vdW  Elec       q    Type
REMARK                         _______ _______ _______ _____ _____    ______ ____
ROOT
ATOM      1  O   UNL     1      44.018   5.040  10.785  0.00  0.00    +0.000 OA
ENDROOT
BRANCH   1   2
ATOM      2  C   UNL     1      44.988   5.140  11.743  0.00  0.00    +0.000 A 
ATOM      3  C   UNL     1      45.028   4.121  12.685  0.00  0.00    +0.000 A 
ATOM      4  N   UNL     1      45.903   4.063  13.718  0.00  0.00    +0.000 NA
ATOM      5  C   UNL     1      46.748   5.110  13.861  0.00  0.00    +0.000 A 
ATOM      6  C   UNL     1      46.756   6.221  13.023  0.00  0.00    +0.000 A 
ATOM      7  C   UNL     1      45.899   6.183  11.905  0.00  0.00    +0.000 A 
BRANCH   6   8
ATOM      8  C   UNL     1      47.506   7.509  13.336  0.00  0.00    +0.000 C 
ATOM      9  C   UNL     1      47.838   8.369  12.106  0.00  0.00    +0.000 C 
ATOM     10  C   UNL     1      49.198   8.037  11.496  0.00  0.00    +0.000 C 
ATOM     11  C   UNL     1      50.290   8.031  12.560  0.00  0.00    +0.000 C 
ATOM     12  N   UNL     1      49.986   7.041  13.592  0.00  0.00    +0.000 NA
ATOM     13  C   UNL     1      48.729   7.355  14.276  0.00  0.00    +0.000 C 
ATOM     14  H   UNL     1      50.745   7.031  14.275  0.00  0.00    +0.000 HD
ENDBRANCH   6   8
ENDBRANCH   1   2
BRANCH   1  15
ATOM     15  C   UNL     1      43.707   3.728  10.314  0.00  0.00    +0.000 C 
BRANCH  15  19
ATOM     16  C   UNL     1      46.639   2.388   7.411  0.00  0.00    +0.000 A 
ATOM     17  C   UNL     1      46.279   3.738   7.462  0.00  0.00    +0.000 A 
ATOM     18  C   UNL     1      45.322   4.177   8.388  0.00  0.00    +0.000 A 
ATOM     19  C   UNL     1      44.704   3.273   9.266  0.00  0.00    +0.000 A 
ATOM     20  C   UNL     1      45.083   1.924   9.214  0.00  0.00    +0.000 A 
ATOM     21  C   UNL     1      46.033   1.483   8.289  0.00  0.00    +0.000 A 
BRANCH  16  23
ATOM     22  N   UNL     1      48.801   2.556   6.287  0.00  0.00    +0.000 N 
ATOM     23  C   UNL     1      47.638   1.853   6.443  0.00  0.00    +0.000 C 
ATOM     24  O   UNL     1      47.451   0.809   5.838  0.00  0.00    +0.000 OA
ATOM     25  H   UNL     1      49.506   2.117   5.709  0.00  0.00    +0.000 HD
ATOM     26  H   UNL     1      49.103   3.263   6.941  0.00  0.00    +0.000 HD
ENDBRANCH  16  23
ENDBRANCH  15  19
ENDBRANCH   1  15
TORSDOF 5
ENDMDL
MODEL 2
REMARK VINA RESULT:    -8.196      1.088      1.616
REMARK INTER + INTRA:         -11.311
REMARK INTER:                 -10.733
REMARK INTRA:                  -0.578
REMARK UNBOUND:                -0.720
REMARK  Name = 
REMARK  5 active torsions:
REMARK  status: ('A' for Active; 'I' for Inactive)
REMARK    1  A    between atoms: C_2  and  C_4
REMARK    2  A    between atoms: C_7  and  C_8
REMARK    3  A    between atoms: C_8  and  O_9
REMARK    4  A    between atoms: O_9  and  C_10
REMARK    5  A    between atoms: C_14  and  C_15
REMARK                            x       y       z     vdW  Elec       q    Type
REMARK                         _______ _______ _______ _____ _____    ______ ____
ROOT
ATOM      1  O   UNL     1      44.272   5.405  10.840  0.00  0.00    +0.000 OA
ENDROOT
BRANCH   1   2
ATOM      2  C   UNL     1      45.250   5.368  11.794  0.00  0.00    +0.000 A 
ATOM      3  C   UNL     1      45.087   4.431  12.805  0.00  0.00    +0.000 A 
ATOM      4  N   UNL     1      45.941   4.265  13.844  0.00  0.00    +0.000 NA
ATOM      5  C   UNL     1      46.986   5.122  13.918  0.00  0.00    +0.000 A 
ATOM      6  C   UNL     1      47.216   6.146  13.004  0.00  0.00    +0.000 A 
ATOM      7  C   UNL     1      46.359   6.208  11.887  0.00  0.00    +0.000 A 
BRANCH   6   8
ATOM      8  C   UNL     1      48.219   7.269  13.229  0.00  0.00    +0.000 C 
ATOM      9  C   UNL     1      49.279   6.972  14.301  0.00  0.00    +0.000 C 
ATOM     10  C   UNL     1      48.860   7.422  15.698  0.00  0.00    +0.000 C 
ATOM     11  C   UNL     1      48.381   8.870  15.687  0.00  0.00    +0.000 C 
ATOM     12  N   UNL     1      47.241   9.020  14.784  0.00  0.00    +0.000 NA
ATOM     13  C   UNL     1      47.606   8.683  13.406  0.00  0.00    +0.000 C 
ATOM     14  H   UNL     1      46.918   9.987  14.817  0.00  0.00    +0.000 HD
ENDBRANCH   6   8
ENDBRANCH   1   2
BRANCH   1  15
ATOM     15  C   UNL     1      43.799   4.149  10.350  0.00  0.00    +0.000 C 
BRANCH  15  19
ATOM     16  C   UNL     1      46.589   2.454   7.493  0.00  0.00    +0.000 A 
ATOM     17  C   UNL     1      46.387   3.837   7.530  0.00  0.00    +0.000 A 
ATOM     18  C   UNL     1      45.477   4.392   8.442  0.00  0.00    +0.000 A 
ATOM     19  C   UNL     1      44.748   3.574   9.318  0.00  0.00    +0.000 A 
ATOM     20  C   UNL     1      44.968   2.189   9.280  0.00  0.00    +0.000 A 
ATOM     21  C   UNL     1      45.871   1.633   8.370  0.00  0.00    +0.000 A 
BRANCH  16  23
ATOM     22  N   UNL     1      48.620   2.519   6.139  0.00  0.00    +0.000 N 
ATOM     23  C   UNL     1      47.529   1.798   6.541  0.00  0.00    +0.000 C 
ATOM     24  O   UNL     1      47.362   0.651   6.161  0.00  0.00    +0.000 OA
ATOM     25  H   UNL     1      49.298   2.017   5.581  0.00  0.00    +0.000 HD
ATOM     26  H   UNL     1      48.929   3.353   6.617  0.00  0.00    +0.000 HD
ENDBRANCH  16  23
ENDBRANCH  15  19
ENDBRANCH   1  15
TORSDOF 5
ENDMDL
MODEL 3
REMARK VINA RESULT:    -7.801      1.557      2.452
REMARK INTER + INTRA:         -10.800
REMARK INTER:                 -10.157
REMARK INTRA:                  -0.643
REMARK UNBOUND:                -0.720
REMARK  Name = 
REMARK  5 active torsions:
REMARK  status: ('A' for Active; 'I' for Inactive)
REMARK    1  A    between atoms: C_2  and  C_4
REMARK    2  A    between atoms: C_7  and  C_8
REMARK    3  A    between atoms: C_8  and  O_9
REMARK    4  A    between atoms: O_9  and  C_10
REMARK    5  A    between atoms: C_14  and  C_15
REMARK                            x       y       z     vdW  Elec       q    Type
REMARK                         _______ _______ _______ _____ _____    ______ ____
ROOT
ATOM      1  O   UNL     1      43.706   5.245  10.380  0.00  0.00    +0.000 OA
ENDROOT
BRANCH   1   2
ATOM      2  C   UNL     1      44.508   5.892  11.278  0.00  0.00    +0.000 A 
ATOM      3  C   UNL     1      44.347   7.268  11.364  0.00  0.00    +0.000 A 
ATOM      4  N   UNL     1      45.067   8.076  12.180  0.00  0.00    +0.000 NA
ATOM      5  C   UNL     1      46.048   7.493  12.907  0.00  0.00    +0.000 A 
ATOM      6  C   UNL     1      46.351   6.135  12.852  0.00  0.00    +0.000 A 
ATOM      7  C   UNL     1      45.505   5.324  12.069  0.00  0.00    +0.000 A 
BRANCH   6   8
ATOM      8  C   UNL     1      47.612   5.528  13.450  0.00  0.00    +0.000 C 
ATOM      9  C   UNL     1      47.400   4.177  14.150  0.00  0.00    +0.000 C 
ATOM     10  C   UNL     1      47.082   4.318  15.637  0.00  0.00    +0.000 C 
ATOM     11  C   UNL     1      48.094   5.222  16.331  0.00  0.00    +0.000 C 
ATOM     12  N   UNL     1      48.087   6.552  15.723  0.00  0.00    +0.000 NA
ATOM     13  C   UNL     1      48.471   6.491  14.310  0.00  0.00    +0.000 C 
ATOM     14  H   UNL     1      48.748   7.148  16.223  0.00  0.00    +0.000 HD
ENDBRANCH   6   8
ENDBRANCH   1   2
BRANCH   1  15
ATOM     15  C   UNL     1      43.779   3.819  10.357  0.00  0.00    +0.000 C 
BRANCH  15  19
ATOM     16  C   UNL     1      46.614   2.407   7.392  0.00  0.00    +0.000 A 
ATOM     17  C   UNL     1      46.262   3.761   7.428  0.00  0.00    +0.000 A 
ATOM     18  C   UNL     1      45.336   4.223   8.374  0.00  0.00    +0.000 A 
ATOM     19  C   UNL     1      44.741   3.339   9.288  0.00  0.00    +0.000 A 
ATOM     20  C   UNL     1      45.111   1.987   9.251  0.00  0.00    +0.000 A 
ATOM     21  C   UNL     1      46.030   1.523   8.305  0.00  0.00    +0.000 A 
BRANCH  16  23
ATOM     22  N   UNL     1      48.771   2.501   6.252  0.00  0.00    +0.000 N 
ATOM     23  C   UNL     1      47.579   1.848   6.404  0.00  0.00    +0.000 C 
ATOM     24  O   UNL     1      47.340   0.827   5.779  0.00  0.00    +0.000 OA
ATOM     25  H   UNL     1      49.452   2.043   5.659  0.00  0.00    +0.000 HD
ATOM     26  H   UNL     1      49.110   3.180   6.918  0.00  0.00    +0.000 HD
ENDBRANCH  16  23
ENDBRANCH  15  19
ENDBRANCH   1  15
TORSDOF 5
ENDMDL
MODEL 4
REMARK VINA RESULT:    -6.870      4.715      8.333
REMARK INTER + INTRA:          -9.598
REMARK INTER:                  -9.043
REMARK INTRA:                  -0.555
REMARK UNBOUND:                -0.720
REMARK  Name = 
REMARK  5 active torsions:
REMARK  status: ('A' for Active; 'I' for Inactive)
REMARK    1  A    between atoms: C_2  and  C_4
REMARK    2  A    between atoms: C_7  and  C_8
REMARK    3  A    between atoms: C_8  and  O_9
REMARK    4  A    between atoms: O_9  and  C_10
REMARK    5  A    between atoms: C_14  and  C_15
REMARK                            x       y       z     vdW  Elec       q    Type
REMARK                         _______ _______ _______ _____ _____    ______ ____
ROOT
ATOM      1  O   UNL     1      47.404   3.098  14.840  0.00  0.00    +0.000 OA
ENDROOT
BRANCH   1   2
ATOM      2  C   UNL     1      46.865   3.911  13.883  0.00  0.00    +0.000 A 
ATOM      3  C   UNL     1      47.118   5.269  14.019  0.00  0.00    +0.000 A 
ATOM      4  N   UNL     1      46.649   6.225  13.181  0.00  0.00    +0.000 NA
ATOM      5  C   UNL     1      45.829   5.816  12.185  0.00  0.00    +0.000 A 
ATOM      6  C   UNL     1      45.447   4.492  11.990  0.00  0.00    +0.000 A 
ATOM      7  C   UNL     1      46.045   3.526  12.824  0.00  0.00    +0.000 A 
BRANCH   6   8
ATOM      8  C   UNL     1      44.324   4.068  11.054  0.00  0.00    +0.000 C 
ATOM      9  C   UNL     1      44.373   2.593  10.625  0.00  0.00    +0.000 C 
ATOM     10  C   UNL     1      45.169   2.371   9.342  0.00  0.00    +0.000 C 
ATOM     11  C   UNL     1      44.710   3.320   8.240  0.00  0.00    +0.000 C 
ATOM     12  N   UNL     1      44.883   4.709   8.664  0.00  0.00    +0.000 NA
ATOM     13  C   UNL     1      44.072   5.007   9.847  0.00  0.00    +0.000 C 
ATOM     14  H   UNL     1      44.599   5.325   7.901  0.00  0.00    +0.000 HD
ENDBRANCH   6   8
ENDBRANCH   1   2
BRANCH   1  15
ATOM     15  C   UNL     1      47.521   3.638  16.157  0.00  0.00    +0.000 C 
BRANCH  15  19
ATOM     16  C   UNL     1      51.488   2.905  17.754  0.00  0.00    +0.000 A 
ATOM     17  C   UNL     1      50.763   1.853  17.183  0.00  0.00    +0.000 A 
ATOM     18  C   UNL     1      49.475   2.078  16.677  0.00  0.00    +0.000 A 
ATOM     19  C   UNL     1      48.889   3.352  16.745  0.00  0.00    +0.000 A 
ATOM     20  C   UNL     1      49.630   4.401  17.307  0.00  0.00    +0.000 A 
ATOM     21  C   UNL     1      50.912   4.179  17.816  0.00  0.00    +0.000 A 
BRANCH  16  23
ATOM     22  N   UNL     1      53.040   3.084  19.630  0.00  0.00    +0.000 N 
ATOM     23  C   UNL     1      52.854   2.731  18.322  0.00  0.00    +0.000 C 
ATOM     24  O   UNL     1      53.767   2.257  17.665  0.00  0.00    +0.000 OA
ATOM     25  H   UNL     1      53.944   2.856  20.023  0.00  0.00    +0.000 HD
ATOM     26  H   UNL     1      52.273   3.232  20.270  0.00  0.00    +0.000 HD
ENDBRANCH  16  23
ENDBRANCH  15  19
ENDBRANCH   1  15
TORSDOF 5
ENDMDL
MODEL 5
REMARK VINA RESULT:    -6.773      1.715      2.027
REMARK INTER + INTRA:          -9.472
REMARK INTER:                  -8.636
REMARK INTRA:                  -0.837
REMARK UNBOUND:                -0.720
REMARK  Name = 
REMARK  5 active torsions:
REMARK  status: ('A' for Active; 'I' for Inactive)
REMARK    1  A    between atoms: C_2  and  C_4
REMARK    2  A    between atoms: C_7  and  C_8
REMARK    3  A    between atoms: C_8  and  O_9
REMARK    4  A    between atoms: O_9  and  C_10
REMARK    5  A    between atoms: C_14  and  C_15
REMARK                            x       y       z     vdW  Elec       q    Type
REMARK                         _______ _______ _______ _____ _____    ______ ____
ROOT
ATOM      1  O   UNL     1      44.178   4.303  12.193  0.00  0.00    +0.000 OA
ENDROOT
BRANCH   1   2
ATOM      2  C   UNL     1      45.250   5.050  12.593  0.00  0.00    +0.000 A 
ATOM      3  C   UNL     1      46.339   4.344  13.088  0.00  0.00    +0.000 A 
ATOM      4  N   UNL     1      47.478   4.914  13.550  0.00  0.00    +0.000 NA
ATOM      5  C   UNL     1      47.515   6.267  13.580  0.00  0.00    +0.000 A 
ATOM      6  C   UNL     1      46.461   7.081  13.176  0.00  0.00    +0.000 A 
ATOM      7  C   UNL     1      45.342   6.440  12.608  0.00  0.00    +0.000 A 
BRANCH   6   8
ATOM      8  C   UNL     1      46.393   8.575  13.460  0.00  0.00    +0.000 C 
ATOM      9  C   UNL     1      45.243   9.307  12.751  0.00  0.00    +0.000 C 
ATOM     10  C   UNL     1      45.638   9.855  11.382  0.00  0.00    +0.000 C 
ATOM     11  C   UNL     1      46.928  10.663  11.465  0.00  0.00    +0.000 C 
ATOM     12  N   UNL     1      48.018   9.828  11.968  0.00  0.00    +0.000 NA
ATOM     13  C   UNL     1      47.733   9.341  13.321  0.00  0.00    +0.000 C 
ATOM     14  H   UNL     1      48.877  10.379  11.986  0.00  0.00    +0.000 HD
ENDBRANCH   6   8
ENDBRANCH   1   2
BRANCH   1  15
ATOM     15  C   UNL     1      43.683   4.535  10.874  0.00  0.00    +0.000 C 
BRANCH  15  19
ATOM     16  C   UNL     1      46.305   2.620   7.996  0.00  0.00    +0.000 A 
ATOM     17  C   UNL     1      46.226   4.016   8.043  0.00  0.00    +0.000 A 
ATOM     18  C   UNL     1      45.371   4.642   8.961  0.00  0.00    +0.000 A 
ATOM     19  C   UNL     1      44.575   3.885   9.834  0.00  0.00    +0.000 A 
ATOM     20  C   UNL     1      44.672   2.487   9.786  0.00  0.00    +0.000 A 
ATOM     21  C   UNL     1      45.520   1.859   8.869  0.00  0.00    +0.000 A 
BRANCH  16  23
ATOM     22  N   UNL     1      46.994   0.542   6.914  0.00  0.00    +0.000 N 
ATOM     23  C   UNL     1      47.181   1.891   7.036  0.00  0.00    +0.000 C 
ATOM     24  O   UNL     1      48.009   2.472   6.354  0.00  0.00    +0.000 OA
ATOM     25  H   UNL     1      47.523   0.088   6.180  0.00  0.00    +0.000 HD
ATOM     26  H   UNL     1      46.168   0.073   7.256  0.00  0.00    +0.000 HD
ENDBRANCH  16  23
ENDBRANCH  15  19
ENDBRANCH   1  15
TORSDOF 5
ENDMDL
MODEL 6
REMARK VINA RESULT:    -6.730      3.331      5.958
REMARK INTER + INTRA:          -9.417
REMARK INTER:                  -8.769
REMARK INTRA:                  -0.648
REMARK UNBOUND:                -0.720
REMARK  Name = 
REMARK  5 active torsions:
REMARK  status: ('A' for Active; 'I' for Inactive)
REMARK    1  A    between atoms: C_2  and  C_4
REMARK    2  A    between atoms: C_7  and  C_8
REMARK    3  A    between atoms: C_8  and  O_9
REMARK    4  A    between atoms: O_9  and  C_10
REMARK    5  A    between atoms: C_14  and  C_15
REMARK                            x       y       z     vdW  Elec       q    Type
REMARK                         _______ _______ _______ _____ _____    ______ ____
ROOT
ATOM      1  O   UNL     1      47.965   7.561  14.184  0.00  0.00    +0.000 OA
ENDROOT
BRANCH   1   2
ATOM      2  C   UNL     1      48.885   7.116  15.091  0.00  0.00    +0.000 A 
ATOM      3  C   UNL     1      50.201   7.497  14.867  0.00  0.00    +0.000 A 
ATOM      4  N   UNL     1      51.249   7.134  15.646  0.00  0.00    +0.000 NA
ATOM      5  C   UNL     1      50.984   6.292  16.671  0.00  0.00    +0.000 A 
ATOM      6  C   UNL     1      49.719   5.786  16.954  0.00  0.00    +0.000 A 
ATOM      7  C   UNL     1      48.649   6.277  16.179  0.00  0.00    +0.000 A 
BRANCH   6   8
ATOM      8  C   UNL     1      49.465   4.640  17.923  0.00  0.00    +0.000 C 
ATOM      9  C   UNL     1      49.701   3.241  17.332  0.00  0.00    +0.000 C 
ATOM     10  C   UNL     1      48.446   2.638  16.705  0.00  0.00    +0.000 C 
ATOM     11  C   UNL     1      47.263   2.713  17.664  0.00  0.00    +0.000 C 
ATOM     12  N   UNL     1      46.987   4.104  18.020  0.00  0.00    +0.000 NA
ATOM     13  C   UNL     1      48.129   4.714  18.706  0.00  0.00    +0.000 C 
ATOM     14  H   UNL     1      46.173   4.133  18.636  0.00  0.00    +0.000 HD
ENDBRANCH   6   8
ENDBRANCH   1   2
BRANCH   1  15
ATOM     15  C   UNL     1      48.117   7.115  12.835  0.00  0.00    +0.000 C 
BRANCH  15  19
ATOM     16  C   UNL     1      45.102   4.187  11.758  0.00  0.00    +0.000 A 
ATOM     17  C   UNL     1      45.312   5.302  10.940  0.00  0.00    +0.000 A 
ATOM     18  C   UNL     1      46.275   6.260  11.288  0.00  0.00    +0.000 A 
ATOM     19  C   UNL     1      47.032   6.124  12.462  0.00  0.00    +0.000 A 
ATOM     20  C   UNL     1      46.821   4.996  13.268  0.00  0.00    +0.000 A 
ATOM     21  C   UNL     1      45.858   4.042  12.926  0.00  0.00    +0.000 A 
BRANCH  16  23
ATOM     22  N   UNL     1      43.623   2.392  12.501  0.00  0.00    +0.000 N 
ATOM     23  C   UNL     1      44.086   3.141  11.454  0.00  0.00    +0.000 C 
ATOM     24  O   UNL     1      43.649   2.977  10.326  0.00  0.00    +0.000 OA
ATOM     25  H   UNL     1      42.857   1.765  12.289  0.00  0.00    +0.000 HD
ATOM     26  H   UNL     1      43.758   2.659  13.465  0.00  0.00    +0.000 HD
ENDBRANCH  16  23
ENDBRANCH  15  19
ENDBRANCH   1  15
TORSDOF 5
ENDMDL
MODEL 7
REMARK VINA RESULT:    -6.637      3.160      3.823
REMARK INTER + INTRA:          -9.296
REMARK INTER:                  -8.620
REMARK INTRA:                  -0.677
REMARK UNBOUND:                -0.720
REMARK  Name = 
REMARK  5 active torsions:
REMARK  status: ('A' for Active; 'I' for Inactive)
REMARK    1  A    between atoms: C_2  and  C_4
REMARK    2  A    between atoms: C_7  and  C_8
REMARK    3  A    between atoms: C_8  and  O_9
REMARK    4  A    between atoms: O_9  and  C_10
REMARK    5  A    between atoms: C_14  and  C_15
REMARK                            x       y       z     vdW  Elec       q    Type
REMARK                         _______ _______ _______ _____ _____    ______ ____
ROOT
ATOM      1  O   UNL     1      44.306   5.298  11.449  0.00  0.00    +0.000 OA
ENDROOT
BRANCH   1   2
ATOM      2  C   UNL     1      44.967   6.487  11.580  0.00  0.00    +0.000 A 
ATOM      3  C   UNL     1      46.271   6.415  12.049  0.00  0.00    +0.000 A 
ATOM      4  N   UNL     1      47.071   7.488  12.263  0.00  0.00    +0.000 NA
ATOM      5  C   UNL     1      46.523   8.708  12.058  0.00  0.00    +0.000 A 
ATOM      6  C   UNL     1      45.206   8.910  11.656  0.00  0.00    +0.000 A 
ATOM      7  C   UNL     1      44.450   7.761  11.347  0.00  0.00    +0.000 A 
BRANCH   6   8
ATOM      8  C   UNL     1      44.512  10.264  11.689  0.00  0.00    +0.000 C 
ATOM      9  C   UNL     1      43.077  10.259  11.139  0.00  0.00    +0.000 C 
ATOM     10  C   UNL     1      43.009  10.557   9.644  0.00  0.00    +0.000 C 
ATOM     11  C   UNL     1      43.799  11.814   9.298  0.00  0.00    +0.000 C 
ATOM     12  N   UNL     1      45.201  11.653   9.680  0.00  0.00    +0.000 NA
ATOM     13  C   UNL     1      45.337  11.449  11.125  0.00  0.00    +0.000 C 
ATOM     14  H   UNL     1      45.716  12.492   9.412  0.00  0.00    +0.000 HD
ENDBRANCH   6   8
ENDBRANCH   1   2
BRANCH   1  15
ATOM     15  C   UNL     1      43.752   5.004  10.165  0.00  0.00    +0.000 C 
BRANCH  15  19
ATOM     16  C   UNL     1      46.421   2.344   8.014  0.00  0.00    +0.000 A 
ATOM     17  C   UNL     1      46.483   3.723   7.787  0.00  0.00    +0.000 A 
ATOM     18  C   UNL     1      45.614   4.588   8.468  0.00  0.00    +0.000 A 
ATOM     19  C   UNL     1      44.666   4.088   9.374  0.00  0.00    +0.000 A 
ATOM     20  C   UNL     1      44.623   2.705   9.603  0.00  0.00    +0.000 A 
ATOM     21  C   UNL     1      45.483   1.840   8.922  0.00  0.00    +0.000 A 
BRANCH  16  23
ATOM     22  N   UNL     1      46.850   0.084   7.194  0.00  0.00    +0.000 N 
ATOM     23  C   UNL     1      47.304   1.369   7.314  0.00  0.00    +0.000 C 
ATOM     24  O   UNL     1      48.373   1.703   6.829  0.00  0.00    +0.000 OA
ATOM     25  H   UNL     1      47.415  -0.531   6.622  0.00  0.00    +0.000 HD
ATOM     26  H   UNL     1      45.885  -0.170   7.345  0.00  0.00    +0.000 HD
ENDBRANCH  16  23
ENDBRANCH  15  19
ENDBRANCH   1  15
TORSDOF 5
ENDMDL
MODEL 8
REMARK VINA RESULT:    -6.401      4.917      8.193
REMARK INTER + INTRA:          -8.992
REMARK INTER:                  -8.455
REMARK INTRA:                  -0.537
REMARK UNBOUND:                -0.720
REMARK  Name = 
REMARK  5 active torsions:
REMARK  status: ('A' for Active; 'I' for Inactive)
REMARK    1  A    between atoms: C_2  and  C_4
REMARK    2  A    between atoms: C_7  and  C_8
REMARK    3  A    between atoms: C_8  and  O_9
REMARK    4  A    between atoms: O_9  and  C_10
REMARK    5  A    between atoms: C_14  and  C_15
REMARK                            x       y       z     vdW  Elec       q    Type
REMARK                         _______ _______ _______ _____ _____    ______ ____
ROOT
ATOM      1  O   UNL     1      48.532   5.994  15.620  0.00  0.00    +0.000 OA
ENDROOT
BRANCH   1   2
ATOM      2  C   UNL     1      47.871   6.073  14.426  0.00  0.00    +0.000 A 
ATOM      3  C   UNL     1      48.054   7.242  13.700  0.00  0.00    +0.000 A 
ATOM      4  N   UNL     1      47.464   7.505  12.509  0.00  0.00    +0.000 NA
ATOM      5  C   UNL     1      46.592   6.582  12.041  0.00  0.00    +0.000 A 
ATOM      6  C   UNL     1      46.275   5.405  12.713  0.00  0.00    +0.000 A 
ATOM      7  C   UNL     1      46.994   5.130  13.893  0.00  0.00    +0.000 A 
BRANCH   6   8
ATOM      8  C   UNL     1      45.108   4.505  12.332  0.00  0.00    +0.000 C 
ATOM      9  C   UNL     1      44.555   4.741  10.917  0.00  0.00    +0.000 C 
ATOM     10  C   UNL     1      43.430   5.772  10.880  0.00  0.00    +0.000 C 
ATOM     11  C   UNL     1      42.358   5.452  11.916  0.00  0.00    +0.000 C 
ATOM     12  N   UNL     1      42.939   5.442  13.258  0.00  0.00    +0.000 NA
ATOM     13  C   UNL     1      43.971   4.409  13.382  0.00  0.00    +0.000 C 
ATOM     14  H   UNL     1      42.199   5.257  13.937  0.00  0.00    +0.000 HD
ENDBRANCH   6   8
ENDBRANCH   1   2
BRANCH   1  15
ATOM     15  C   UNL     1      48.156   4.934  16.500  0.00  0.00    +0.000 C 
BRANCH  15  19
ATOM     16  C   UNL     1      51.515   2.457  17.682  0.00  0.00    +0.000 A 
ATOM     17  C   UNL     1      51.608   3.848  17.786  0.00  0.00    +0.000 A 
ATOM     18  C   UNL     1      50.531   4.657  17.394  0.00  0.00    +0.000 A 
ATOM     19  C   UNL     1      49.355   4.089  16.881  0.00  0.00    +0.000 A 
ATOM     20  C   UNL     1      49.269   2.692  16.793  0.00  0.00    +0.000 A 
ATOM     21  C   UNL     1      50.342   1.884  17.178  0.00  0.00    +0.000 A 
BRANCH  16  23
ATOM     22  N   UNL     1      52.360   0.199  18.073  0.00  0.00    +0.000 N 
ATOM     23  C   UNL     1      52.626   1.541  18.067  0.00  0.00    +0.000 C 
ATOM     24  O   UNL     1      53.741   1.959  18.331  0.00  0.00    +0.000 OA
ATOM     25  H   UNL     1      53.156  -0.406  18.231  0.00  0.00    +0.000 HD
ATOM     26  H   UNL     1      51.550  -0.199  17.621  0.00  0.00    +0.000 HD
ENDBRANCH  16  23
ENDBRANCH  15  19
ENDBRANCH   1  15
TORSDOF 5
ENDMDL
MODEL 9
REMARK VINA RESULT:    -6.218      3.593      5.843
REMARK INTER + INTRA:          -8.755
REMARK INTER:                  -8.160
REMARK INTRA:                  -0.596
REMARK UNBOUND:                -0.720
REMARK  Name = 
REMARK  5 active torsions:
REMARK  status: ('A' for Active; 'I' for Inactive)
REMARK    1  A    between atoms: C_2  and  C_4
REMARK    2  A    between atoms: C_7  and  C_8
REMARK    3  A    between atoms: C_8  and  O_9
REMARK    4  A    between atoms: O_9  and  C_10
REMARK    5  A    between atoms: C_14  and  C_15
REMARK                            x       y       z     vdW  Elec       q    Type
REMARK                         _______ _______ _______ _____ _____    ______ ____
ROOT
ATOM      1  O   UNL     1      48.557   6.566  13.793  0.00  0.00    +0.000 OA
ENDROOT
BRANCH   1   2
ATOM      2  C   UNL     1      48.688   6.505  15.152  0.00  0.00    +0.000 A 
ATOM      3  C   UNL     1      48.995   7.698  15.793  0.00  0.00    +0.000 A 
ATOM      4  N   UNL     1      49.184   7.825  17.129  0.00  0.00    +0.000 NA
ATOM      5  C   UNL     1      49.127   6.691  17.864  0.00  0.00    +0.000 A 
ATOM      6  C   UNL     1      48.897   5.428  17.327  0.00  0.00    +0.000 A 
ATOM      7  C   UNL     1      48.603   5.365  15.949  0.00  0.00    +0.000 A 
BRANCH   6   8
ATOM      8  C   UNL     1      49.102   4.133  18.099  0.00  0.00    +0.000 C 
ATOM      9  C   UNL     1      50.520   3.941  18.659  0.00  0.00    +0.000 C 
ATOM     10  C   UNL     1      51.448   3.204  17.697  0.00  0.00    +0.000 C 
ATOM     11  C   UNL     1      50.804   1.918  17.191  0.00  0.00    +0.000 C 
ATOM     12  N   UNL     1      49.552   2.217  16.497  0.00  0.00    +0.000 NA
ATOM     13  C   UNL     1      48.585   2.850  17.397  0.00  0.00    +0.000 C 
ATOM     14  H   UNL     1      49.155   1.347  16.140  0.00  0.00    +0.000 HD
ENDBRANCH   6   8
ENDBRANCH   1   2
BRANCH   1  15
ATOM     15  C   UNL     1      47.343   7.120  13.284  0.00  0.00    +0.000 C 
BRANCH  15  19
ATOM     16  C   UNL     1      44.861   4.178  11.283  0.00  0.00    +0.000 A 
ATOM     17  C   UNL     1      45.339   3.922  12.573  0.00  0.00    +0.000 A 
ATOM     18  C   UNL     1      46.153   4.862  13.221  0.00  0.00    +0.000 A 
ATOM     19  C   UNL     1      46.510   6.062  12.587  0.00  0.00    +0.000 A 
ATOM     20  C   UNL     1      46.014   6.313  11.300  0.00  0.00    +0.000 A 
ATOM     21  C   UNL     1      45.207   5.376  10.649  0.00  0.00    +0.000 A 
BRANCH  16  23
ATOM     22  N   UNL     1      44.242   3.076   9.193  0.00  0.00    +0.000 N 
ATOM     23  C   UNL     1      44.004   3.217  10.533  0.00  0.00    +0.000 C 
ATOM     24  O   UNL     1      43.148   2.548  11.090  0.00  0.00    +0.000 OA
ATOM     25  H   UNL     1      43.724   2.342   8.729  0.00  0.00    +0.000 HD
ATOM     26  H   UNL     1      45.088   3.405   8.752  0.00  0.00    +0.000 HD
ENDBRANCH  16  23
ENDBRANCH  15  19
ENDBRANCH   1  15
TORSDOF 5
ENDMDL
