MODEL 1
REMARK VINA RESULT:    -6.820      0.000      0.000
REMARK INTER + INTRA:          -9.334
REMARK INTER:                  -8.814
REMARK INTRA:                  -0.520
REMARK UNBOUND:                -0.520
REMARK  Name = 
REMARK  6 active torsions:
REMARK  status: ('A' for Active; 'I' for Inactive)
REMARK    1  A    between atoms: C_1  and  C_2
REMARK    2  A    between atoms: N_5  and  C_6
REMARK    3  A    between atoms: C_6  and  C_7
REMARK    4  A    between atoms: C_7  and  C_8
REMARK    5  A    between atoms: C_12  and  O_13
REMARK    6  A    between atoms: O_13  and  C_14
REMARK                            x       y       z     vdW  Elec       q    Type
REMARK                         _______ _______ _______ _____ _____    ______ ____
ROOT
ATOM      1  C   UNL     1      45.239   4.471  12.026  0.00  0.00    +0.000 A 
ATOM      2  C   UNL     1      45.669   5.757  11.681  0.00  0.00    +0.000 A 
ATOM      3  C   UNL     1      46.687   6.379  12.409  0.00  0.00    +0.000 A 
ATOM      4  C   UNL     1      47.291   5.725  13.486  0.00  0.00    +0.000 A 
ATOM      5  C   UNL     1      46.886   4.436  13.819  0.00  0.00    +0.000 A 
ATOM      6  C   UNL     1      45.870   3.815  13.091  0.00  0.00    +0.000 A 
ENDROOT
BRANCH   1   7
ATOM      7  C   UNL     1      44.121   3.793  11.271  0.00  0.00    +0.000 C 
BRANCH   7   8
ATOM      8  C   UNL     1      44.026   4.288   9.826  0.00  0.00    +0.000 C 
BRANCH   8  13
ATOM      9  C   UNL     1      46.874   0.819   7.594  0.00  0.00    +0.000 C 
ATOM     10  C   UNL     1      46.203   2.079   7.976  0.00  0.00    +0.000 A 
ATOM     11  C   UNL     1      46.379   3.365   7.417  0.00  0.00    +0.000 A 
ATOM     12  N   UNL     1      45.620   4.291   8.005  0.00  0.00    +0.000 NA
ATOM     13  N   UNL     1      44.942   3.599   8.939  0.00  0.00    +0.000 N 
ATOM     14  C   UNL     1      45.265   2.273   8.967  0.00  0.00    +0.000 A 
ENDBRANCH   8  13
ENDBRANCH   7   8
ENDBRANCH   1   7
BRANCH   5  15
ATOM     15  O   UNL     1      47.378   3.699  14.866  0.00  0.00    +0.000 OA
BRANCH  15  16
ATOM     16  C   UNL     1      47.237   4.213  16.207  0.00  0.00    +0.000 C 
ATOM     17  C   UNL     1      48.492   4.736  16.918  0.00  0.00    +0.000 C 
ATOM     18  O   UNL     1      48.300   3.832  18.032  0.00  0.00    +0.000 OA
ATOM     19  C   UNL     1      47.246   3.149  17.314  0.00  0.00    +0.000 C 
ENDBRANCH  15  16
ENDBRANCH   5  15
TORSDOF 5
ENDMDL
MODEL 2
REMARK VINA RESULT:    -6.587      1.449      1.886
REMARK INTER + INTRA:          -9.032
REMARK INTER:                  -8.419
REMARK INTRA:                  -0.613
REMARK UNBOUND:                -0.520
REMARK  Name = 
REMARK  6 active torsions:
REMARK  status: ('A' for Active; 'I' for Inactive)
REMARK    1  A    between atoms: C_1  and  C_2
REMARK    2  A    between atoms: N_5  and  C_6
REMARK    3  A    between atoms: C_6  and  C_7
REMARK    4  A    between atoms: C_7  and  C_8
REMARK    5  A    between atoms: C_12  and  O_13
REMARK    6  A    between atoms: O_13  and  C_14
REMARK                            x       y       z     vdW  Elec       q    Type
REMARK                         _______ _______ _______ _____ _____    ______ ____
ROOT
ATOM      1  C   UNL     1      44.731   5.501  13.001  0.00  0.00    +0.000 A 
ATOM      2  C   UNL     1      45.189   6.679  12.399  0.00  0.00    +0.000 A 
ATOM      3  C   UNL     1      46.528   7.060  12.525  0.00  0.00    +0.000 A 
ATOM      4  C   UNL     1      47.426   6.271  13.248  0.00  0.00    +0.000 A 
ATOM      5  C   UNL     1      46.983   5.086  13.828  0.00  0.00    +0.000 A 
ATOM      6  C   UNL     1      45.647   4.705  13.701  0.00  0.00    +0.000 A 
ENDROOT
BRANCH   1   7
ATOM      7  C   UNL     1      43.282   5.087  12.902  0.00  0.00    +0.000 C 
BRANCH   7   8
ATOM      8  C   UNL     1      42.787   5.086  11.455  0.00  0.00    +0.000 C 
BRANCH   8  13
ATOM      9  C   UNL     1      45.633   3.238   7.765  0.00  0.00    +0.000 C 
ATOM     10  C   UNL     1      44.795   3.399   8.971  0.00  0.00    +0.000 A 
ATOM     11  C   UNL     1      44.352   2.399   9.865  0.00  0.00    +0.000 A 
ATOM     12  N   UNL     1      43.597   2.887  10.852  0.00  0.00    +0.000 NA
ATOM     13  N   UNL     1      43.562   4.208  10.600  0.00  0.00    +0.000 N 
ATOM     14  C   UNL     1      44.256   4.562   9.479  0.00  0.00    +0.000 A 
ENDBRANCH   8  13
ENDBRANCH   7   8
ENDBRANCH   1   7
BRANCH   5  15
ATOM     15  O   UNL     1      47.755   4.239  14.582  0.00  0.00    +0.000 OA
BRANCH  15  16
ATOM     16  C   UNL     1      47.395   4.009  15.960  0.00  0.00    +0.000 C 
ATOM     17  C   UNL     1      48.013   4.918  17.031  0.00  0.00    +0.000 C 
ATOM     18  O   UNL     1      48.558   3.785  17.751  0.00  0.00    +0.000 OA
ATOM     19  C   UNL     1      48.194   2.903  16.663  0.00  0.00    +0.000 C 
ENDBRANCH  15  16
ENDBRANCH   5  15
TORSDOF 5
ENDMDL
MODEL 3
REMARK VINA RESULT:    -6.449      1.699      2.839
REMARK INTER + INTRA:          -8.854
REMARK INTER:                  -8.481
REMARK INTRA:                  -0.374
REMARK UNBOUND:                -0.520
REMARK  Name = 
REMARK  6 active torsions:
REMARK  status: ('A' for Active; 'I' for Inactive)
REMARK    1  A    between atoms: C_1  and  C_2
REMARK    2  A    between atoms: N_5  and  C_6
REMARK    3  A    between atoms: C_6  and  C_7
REMARK    4  A    between atoms: C_7  and  C_8
REMARK    5  A    between atoms: C_12  and  O_13
REMARK    6  A    between atoms: O_13  and  C_14
REMARK                            x       y       z     vdW  Elec       q    Type
REMARK                         _______ _______ _______ _____ _____    ______ ____
ROOT
ATOM      1  C   UNL     1      44.197   4.386  10.405  0.00  0.00    +0.000 A 
ATOM      2  C   UNL     1      43.180   5.330  10.589  0.00  0.00    +0.000 A 
ATOM      3  C   UNL     1      42.889   5.813  11.868  0.00  0.00    +0.000 A 
ATOM      4  C   UNL     1      43.610   5.364  12.977  0.00  0.00    +0.000 A 
ATOM      5  C   UNL     1      44.640   4.445  12.799  0.00  0.00    +0.000 A 
ATOM      6  C   UNL     1      44.931   3.964  11.522  0.00  0.00    +0.000 A 
ENDROOT
BRANCH   1   7
ATOM      7  C   UNL     1      44.508   3.830   9.036  0.00  0.00    +0.000 C 
BRANCH   7   8
ATOM      8  C   UNL     1      44.906   2.354   9.098  0.00  0.00    +0.000 C 
BRANCH   8  13
ATOM      9  C   UNL     1      47.826   2.339   5.023  0.00  0.00    +0.000 C 
ATOM     10  C   UNL     1      47.130   1.982   6.277  0.00  0.00    +0.000 A 
ATOM     11  C   UNL     1      47.222   0.778   7.011  0.00  0.00    +0.000 A 
ATOM     12  N   UNL     1      46.449   0.779   8.100  0.00  0.00    +0.000 NA
ATOM     13  N   UNL     1      45.866   1.992   8.074  0.00  0.00    +0.000 N 
ATOM     14  C   UNL     1      46.235   2.744   6.996  0.00  0.00    +0.000 A 
ENDBRANCH   8  13
ENDBRANCH   7   8
ENDBRANCH   1   7
BRANCH   5  15
ATOM     15  O   UNL     1      45.401   3.908  13.805  0.00  0.00    +0.000 OA
BRANCH  15  16
ATOM     16  C   UNL     1      46.817   4.190  13.834  0.00  0.00    +0.000 C 
ATOM     17  C   UNL     1      47.476   4.447  15.195  0.00  0.00    +0.000 C 
ATOM     18  O   UNL     1      47.974   5.738  14.769  0.00  0.00    +0.000 OA
ATOM     19  C   UNL     1      47.192   5.652  13.554  0.00  0.00    +0.000 C 
ENDBRANCH  15  16
ENDBRANCH   5  15
TORSDOF 5
ENDMDL
MODEL 4
REMARK VINA RESULT:    -6.428      3.381      5.358
REMARK INTER + INTRA:          -8.827
REMARK INTER:                  -8.621
REMARK INTRA:                  -0.206
REMARK UNBOUND:                -0.520
REMARK  Name = 
REMARK  6 active torsions:
REMARK  status: ('A' for Active; 'I' for Inactive)
REMARK    1  A    between atoms: C_1  and  C_2
REMARK    2  A    between atoms: N_5  and  C_6
REMARK    3  A    between atoms: C_6  and  C_7
REMARK    4  A    between atoms: C_7  and  C_8
REMARK    5  A    between atoms: C_12  and  O_13
REMARK    6  A    between atoms: O_13  and  C_14
REMARK                            x       y       z     vdW  Elec       q    Type
REMARK                         _______ _______ _______ _____ _____    ______ ____
ROOT
ATOM      1  C   UNL     1      46.091   2.230   8.163  0.00  0.00    +0.000 A 
ATOM      2  C   UNL     1      46.310   3.540   7.721  0.00  0.00    +0.000 A 
ATOM      3  C   UNL     1      45.581   4.600   8.268  0.00  0.00    +0.000 A 
ATOM      4  C   UNL     1      44.629   4.367   9.264  0.00  0.00    +0.000 A 
ATOM      5  C   UNL     1      44.424   3.070   9.726  0.00  0.00    +0.000 A 
ATOM      6  C   UNL     1      45.153   2.012   9.181  0.00  0.00    +0.000 A 
ENDROOT
BRANCH   1   7
ATOM      7  C   UNL     1      46.847   1.068   7.564  0.00  0.00    +0.000 C 
BRANCH   7   8
ATOM      8  C   UNL     1      47.690   1.495   6.361  0.00  0.00    +0.000 C 
BRANCH   8  13
ATOM      9  C   UNL     1      45.215   0.955   2.035  0.00  0.00    +0.000 C 
ATOM     10  C   UNL     1      46.071   0.744   3.222  0.00  0.00    +0.000 A 
ATOM     11  C   UNL     1      46.807  -0.410   3.571  0.00  0.00    +0.000 A 
ATOM     12  N   UNL     1      47.471  -0.270   4.720  0.00  0.00    +0.000 NA
ATOM     13  N   UNL     1      47.172   0.984   5.108  0.00  0.00    +0.000 N 
ATOM     14  C   UNL     1      46.329   1.627   4.248  0.00  0.00    +0.000 A 
ENDBRANCH   8  13
ENDBRANCH   7   8
ENDBRANCH   1   7
BRANCH   5  15
ATOM     15  O   UNL     1      43.504   2.707  10.676  0.00  0.00    +0.000 OA
BRANCH  15  16
ATOM     16  C   UNL     1      43.802   2.958  12.066  0.00  0.00    +0.000 C 
ATOM     17  C   UNL     1      43.271   4.252  12.698  0.00  0.00    +0.000 C 
ATOM     18  O   UNL     1      44.600   4.663  13.099  0.00  0.00    +0.000 OA
ATOM     19  C   UNL     1      45.180   3.582  12.331  0.00  0.00    +0.000 C 
ENDBRANCH  15  16
ENDBRANCH   5  15
TORSDOF 5
ENDMDL
MODEL 5
REMARK VINA RESULT:    -6.397      3.815      7.270
REMARK INTER + INTRA:          -8.787
REMARK INTER:                  -8.349
REMARK INTRA:                  -0.438
REMARK UNBOUND:                -0.520
REMARK  Name = 
REMARK  6 active torsions:
REMARK  status: ('A' for Active; 'I' for Inactive)
REMARK    1  A    between atoms: C_1  and  C_2
REMARK    2  A    between atoms: N_5  and  C_6
REMARK    3  A    between atoms: C_6  and  C_7
REMARK    4  A    between atoms: C_7  and  C_8
REMARK    5  A    between atoms: C_12  and  O_13
REMARK    6  A    between atoms: O_13  and  C_14
REMARK                            x       y       z     vdW  Elec       q    Type
REMARK                         _______ _______ _______ _____ _____    ______ ____
ROOT
ATOM      1  C   UNL     1      45.217   4.797  10.009  0.00  0.00    +0.000 A 
ATOM      2  C   UNL     1      44.490   3.803  10.674  0.00  0.00    +0.000 A 
ATOM      3  C   UNL     1      44.192   2.598  10.032  0.00  0.00    +0.000 A 
ATOM      4  C   UNL     1      44.617   2.368   8.721  0.00  0.00    +0.000 A 
ATOM      5  C   UNL     1      45.362   3.342   8.062  0.00  0.00    +0.000 A 
ATOM      6  C   UNL     1      45.661   4.544   8.704  0.00  0.00    +0.000 A 
ENDROOT
BRANCH   1   7
ATOM      7  C   UNL     1      45.524   6.117  10.674  0.00  0.00    +0.000 C 
BRANCH   7   8
ATOM      8  C   UNL     1      44.990   6.171  12.107  0.00  0.00    +0.000 C 
BRANCH   8  13
ATOM      9  C   UNL     1      47.503   3.897  15.801  0.00  0.00    +0.000 C 
ATOM     10  C   UNL     1      47.079   4.814  14.721  0.00  0.00    +0.000 A 
ATOM     11  C   UNL     1      47.738   5.972  14.253  0.00  0.00    +0.000 A 
ATOM     12  N   UNL     1      47.075   6.579  13.266  0.00  0.00    +0.000 NA
ATOM     13  N   UNL     1      45.990   5.802  13.090  0.00  0.00    +0.000 N 
ATOM     14  C   UNL     1      45.943   4.740  13.944  0.00  0.00    +0.000 A 
ENDBRANCH   8  13
ENDBRANCH   7   8
ENDBRANCH   1   7
BRANCH   5  15
ATOM     15  O   UNL     1      45.815   3.249   6.771  0.00  0.00    +0.000 OA
BRANCH  15  16
ATOM     16  C   UNL     1      47.200   2.920   6.539  0.00  0.00    +0.000 C 
ATOM     17  C   UNL     1      47.602   2.418   5.146  0.00  0.00    +0.000 C 
ATOM     18  O   UNL     1      48.165   1.200   5.691  0.00  0.00    +0.000 OA
ATOM     19  C   UNL     1      47.616   1.513   6.993  0.00  0.00    +0.000 C 
ENDBRANCH  15  16
ENDBRANCH   5  15
TORSDOF 5
ENDMDL
MODEL 6
REMARK VINA RESULT:    -6.184      2.383      3.641
REMARK INTER + INTRA:          -8.512
REMARK INTER:                  -7.917
REMARK INTRA:                  -0.595
REMARK UNBOUND:                -0.520
REMARK  Name = 
REMARK  6 active torsions:
REMARK  status: ('A' for Active; 'I' for Inactive)
REMARK    1  A    between atoms: C_1  and  C_2
REMARK    2  A    between atoms: N_5  and  C_6
REMARK    3  A    between atoms: C_6  and  C_7
REMARK    4  A    between atoms: C_7  and  C_8
REMARK    5  A    between atoms: C_12  and  O_13
REMARK    6  A    between atoms: O_13  and  C_14
REMARK                            x       y       z     vdW  Elec       q    Type
REMARK                         _______ _______ _______ _____ _____    ______ ____
ROOT
ATOM      1  C   UNL     1      45.268   4.177  11.827  0.00  0.00    +0.000 A 
ATOM      2  C   UNL     1      45.862   3.460  12.872  0.00  0.00    +0.000 A 
ATOM      3  C   UNL     1      46.771   4.086  13.728  0.00  0.00    +0.000 A 
ATOM      4  C   UNL     1      47.097   5.434  13.556  0.00  0.00    +0.000 A 
ATOM      5  C   UNL     1      46.492   6.160  12.534  0.00  0.00    +0.000 A 
ATOM      6  C   UNL     1      45.582   5.535  11.680  0.00  0.00    +0.000 A 
ENDROOT
BRANCH   1   7
ATOM      7  C   UNL     1      44.305   3.512  10.872  0.00  0.00    +0.000 C 
BRANCH   7   8
ATOM      8  C   UNL     1      44.298   4.194   9.502  0.00  0.00    +0.000 C 
BRANCH   8  13
ATOM      9  C   UNL     1      47.363   1.055   7.077  0.00  0.00    +0.000 C 
ATOM     10  C   UNL     1      46.624   2.248   7.542  0.00  0.00    +0.000 A 
ATOM     11  C   UNL     1      46.757   3.583   7.099  0.00  0.00    +0.000 A 
ATOM     12  N   UNL     1      45.940   4.422   7.739  0.00  0.00    +0.000 NA
ATOM     13  N   UNL     1      45.269   3.624   8.590  0.00  0.00    +0.000 N 
ATOM     14  C   UNL     1      45.651   2.315   8.516  0.00  0.00    +0.000 A 
ENDBRANCH   8  13
ENDBRANCH   7   8
ENDBRANCH   1   7
BRANCH   5  15
ATOM     15  O   UNL     1      46.745   7.476  12.245  0.00  0.00    +0.000 OA
BRANCH  15  16
ATOM     16  C   UNL     1      48.036   8.027  12.577  0.00  0.00    +0.000 C 
ATOM     17  C   UNL     1      48.307   9.498  12.232  0.00  0.00    +0.000 C 
ATOM     18  O   UNL     1      49.474   9.152  11.448  0.00  0.00    +0.000 OA
ATOM     19  C   UNL     1      49.144   7.747  11.552  0.00  0.00    +0.000 C 
ENDBRANCH  15  16
ENDBRANCH   5  15
TORSDOF 5
ENDMDL
MODEL 7
REMARK VINA RESULT:    -5.982      3.636      7.301
REMARK INTER + INTRA:          -8.250
REMARK INTER:                  -7.816
REMARK INTRA:                  -0.434
REMARK UNBOUND:                -0.520
REMARK  Name = 
REMARK  6 active torsions:
REMARK  status: ('A' for Active; 'I' for Inactive)
REMARK    1  A    between atoms: C_1  and  C_2
REMARK    2  A    between atoms: N_5  and  C_6
REMARK    3  A    between atoms: C_6  and  C_7
REMARK    4  A    between atoms: C_7  and  C_8
REMARK    5  A    between atoms: C_12  and  O_13
REMARK    6  A    between atoms: O_13  and  C_14
REMARK                            x       y       z     vdW  Elec       q    Type
REMARK                         _______ _______ _______ _____ _____    ______ ____
ROOT
ATOM      1  C   UNL     1      44.960   4.952  12.798  0.00  0.00    +0.000 A 
ATOM      2  C   UNL     1      43.565   5.002  12.896  0.00  0.00    +0.000 A 
ATOM      3  C   UNL     1      42.776   4.964  11.743  0.00  0.00    +0.000 A 
ATOM      4  C   UNL     1      43.367   4.872  10.481  0.00  0.00    +0.000 A 
ATOM      5  C   UNL     1      44.753   4.797  10.377  0.00  0.00    +0.000 A 
ATOM      6  C   UNL     1      45.541   4.833  11.528  0.00  0.00    +0.000 A 
ENDROOT
BRANCH   1   7
ATOM      7  C   UNL     1      45.832   5.021  14.029  0.00  0.00    +0.000 C 
BRANCH   7   8
ATOM      8  C   UNL     1      46.975   4.005  13.976  0.00  0.00    +0.000 C 
BRANCH   8  13
ATOM      9  C   UNL     1      48.446   4.258  18.762  0.00  0.00    +0.000 C 
ATOM     10  C   UNL     1      48.164   3.813  17.381  0.00  0.00    +0.000 A 
ATOM     11  C   UNL     1      48.491   2.577  16.780  0.00  0.00    +0.000 A 
ATOM     12  N   UNL     1      48.097   2.503  15.507  0.00  0.00    +0.000 NA
ATOM     13  N   UNL     1      47.504   3.691  15.289  0.00  0.00    +0.000 N 
ATOM     14  C   UNL     1      47.528   4.514  16.378  0.00  0.00    +0.000 A 
ENDBRANCH   8  13
ENDBRANCH   7   8
ENDBRANCH   1   7
BRANCH   5  15
ATOM     15  O   UNL     1      45.454   4.731   9.200  0.00  0.00    +0.000 OA
BRANCH  15  16
ATOM     16  C   UNL     1      45.209   3.627   8.304  0.00  0.00    +0.000 C 
ATOM     17  C   UNL     1      45.500   2.207   8.807  0.00  0.00    +0.000 C 
ATOM     18  O   UNL     1      46.402   1.945   7.705  0.00  0.00    +0.000 OA
ATOM     19  C   UNL     1      46.342   3.336   7.309  0.00  0.00    +0.000 C 
ENDBRANCH  15  16
ENDBRANCH   5  15
TORSDOF 5
ENDMDL
MODEL 8
REMARK VINA RESULT:    -5.946      2.786      3.526
REMARK INTER + INTRA:          -8.204
REMARK INTER:                  -7.767
REMARK INTRA:                  -0.437
REMARK UNBOUND:                -0.520
REMARK  Name = 
REMARK  6 active torsions:
REMARK  status: ('A' for Active; 'I' for Inactive)
REMARK    1  A    between atoms: C_1  and  C_2
REMARK    2  A    between atoms: N_5  and  C_6
REMARK    3  A    between atoms: C_6  and  C_7
REMARK    4  A    between atoms: C_7  and  C_8
REMARK    5  A    between atoms: C_12  and  O_13
REMARK    6  A    between atoms: O_13  and  C_14
REMARK                            x       y       z     vdW  Elec       q    Type
REMARK                         _______ _______ _______ _____ _____    ______ ____
ROOT
ATOM      1  C   UNL     1      44.947   4.732  10.699  0.00  0.00    +0.000 A 
ATOM      2  C   UNL     1      44.501   4.092  11.861  0.00  0.00    +0.000 A 
ATOM      3  C   UNL     1      44.907   4.549  13.118  0.00  0.00    +0.000 A 
ATOM      4  C   UNL     1      45.759   5.650  13.231  0.00  0.00    +0.000 A 
ATOM      5  C   UNL     1      46.187   6.307  12.081  0.00  0.00    +0.000 A 
ATOM      6  C   UNL     1      45.781   5.851  10.826  0.00  0.00    +0.000 A 
ENDROOT
BRANCH   1   7
ATOM      7  C   UNL     1      44.544   4.236   9.331  0.00  0.00    +0.000 C 
BRANCH   7   8
ATOM      8  C   UNL     1      44.669   2.715   9.216  0.00  0.00    +0.000 C 
BRANCH   8  13
ATOM      9  C   UNL     1      47.654   2.515   5.193  0.00  0.00    +0.000 C 
ATOM     10  C   UNL     1      46.941   2.217   6.453  0.00  0.00    +0.000 A 
ATOM     11  C   UNL     1      47.031   1.054   7.251  0.00  0.00    +0.000 A 
ATOM     12  N   UNL     1      46.241   1.105   8.326  0.00  0.00    +0.000 NA
ATOM     13  N   UNL     1      45.649   2.309   8.227  0.00  0.00    +0.000 N 
ATOM     14  C   UNL     1      46.028   3.007   7.118  0.00  0.00    +0.000 A 
ENDBRANCH   8  13
ENDBRANCH   7   8
ENDBRANCH   1   7
BRANCH   5  15
ATOM     15  O   UNL     1      47.043   7.379  12.056  0.00  0.00    +0.000 OA
BRANCH  15  16
ATOM     16  C   UNL     1      47.858   7.647  13.216  0.00  0.00    +0.000 C 
ATOM     17  C   UNL     1      48.286   9.096  13.481  0.00  0.00    +0.000 C 
ATOM     18  O   UNL     1      49.688   8.735  13.488  0.00  0.00    +0.000 OA
ATOM     19  C   UNL     1      49.362   7.406  13.020  0.00  0.00    +0.000 C 
ENDBRANCH  15  16
ENDBRANCH   5  15
TORSDOF 5
ENDMDL
MODEL 9
REMARK VINA RESULT:    -5.783      2.796      4.301
REMARK INTER + INTRA:          -7.993
REMARK INTER:                  -7.408
REMARK INTRA:                  -0.585
REMARK UNBOUND:                -0.520
REMARK  Name = 
REMARK  6 active torsions:
REMARK  status: ('A' for Active; 'I' for Inactive)
REMARK    1  A    between atoms: C_1  and  C_2
REMARK    2  A    between atoms: N_5  and  C_6
REMARK    3  A    between atoms: C_6  and  C_7
REMARK    4  A    between atoms: C_7  and  C_8
REMARK    5  A    between atoms: C_12  and  O_13
REMARK    6  A    between atoms: O_13  and  C_14
REMARK                            x       y       z     vdW  Elec       q    Type
REMARK                         _______ _______ _______ _____ _____    ______ ____
ROOT
ATOM      1  C   UNL     1      44.859   5.188  12.851  0.00  0.00    +0.000 A 
ATOM      2  C   UNL     1      45.798   4.508  13.635  0.00  0.00    +0.000 A 
ATOM      3  C   UNL     1      47.046   5.080  13.895  0.00  0.00    +0.000 A 
ATOM      4  C   UNL     1      47.371   6.338  13.381  0.00  0.00    +0.000 A 
ATOM      5  C   UNL     1      46.433   7.031  12.621  0.00  0.00    +0.000 A 
ATOM      6  C   UNL     1      45.186   6.460  12.363  0.00  0.00    +0.000 A 
ENDROOT
BRANCH   1   7
ATOM      7  C   UNL     1      43.516   4.574  12.533  0.00  0.00    +0.000 C 
BRANCH   7   8
ATOM      8  C   UNL     1      43.117   4.801  11.073  0.00  0.00    +0.000 C 
BRANCH   8  13
ATOM      9  C   UNL     1      46.000   3.266   7.270  0.00  0.00    +0.000 C 
ATOM     10  C   UNL     1      45.142   3.325   8.472  0.00  0.00    +0.000 A 
ATOM     11  C   UNL     1      44.667   2.251   9.258  0.00  0.00    +0.000 A 
ATOM     12  N   UNL     1      43.902   2.656  10.274  0.00  0.00    +0.000 NA
ATOM     13  N   UNL     1      43.894   3.996  10.151  0.00  0.00    +0.000 N 
ATOM     14  C   UNL     1      44.613   4.443   9.081  0.00  0.00    +0.000 A 
ENDBRANCH   8  13
ENDBRANCH   7   8
ENDBRANCH   1   7
BRANCH   5  15
ATOM     15  O   UNL     1      46.638   8.256  12.040  0.00  0.00    +0.000 OA
BRANCH  15  16
ATOM     16  C   UNL     1      47.746   9.065  12.491  0.00  0.00    +0.000 C 
ATOM     17  C   UNL     1      47.710  10.570  12.196  0.00  0.00    +0.000 C 
ATOM     18  O   UNL     1      48.982  10.518  11.507  0.00  0.00    +0.000 OA
ATOM     19  C   UNL     1      48.964   9.072  11.557  0.00  0.00    +0.000 C 
ENDBRANCH  15  16
ENDBRANCH   5  15
TORSDOF 5
ENDMDL
