MODEL 1
REMARK VINA RESULT:    -8.194      0.000      0.000
REMARK INTER + INTRA:         -12.709
REMARK INTER:                 -11.548
REMARK INTRA:                  -1.161
REMARK UNBOUND:                -1.161
REMARK  Name = 
REMARK  8 active torsions:
REMARK  status: ('A' for Active; 'I' for Inactive)
REMARK    1  A    between atoms: C_1  and  C_2
REMARK    2  A    between atoms: C_2  and  N_3
REMARK    3  A    between atoms: C_2  and  C_18
REMARK    4  A    between atoms: N_3  and  C_4
REMARK    5  A    between atoms: C_7  and  C_8
REMARK    6  A    between atoms: C_8  and  N_9
REMARK    7  A    between atoms: N_9  and  C_10
REMARK    8  A    between atoms: C_18  and  C_20
REMARK                            x       y       z     vdW  Elec       q    Type
REMARK                         _______ _______ _______ _____ _____    ______ ____
ROOT
ATOM      1  N   UNL     1      45.812   6.784  13.299  0.00  0.00    +0.000 N 
ATOM      2  H   UNL     1      45.029   7.371  13.582  0.00  0.00    +0.000 HD
ENDROOT
BRANCH   1   3
ATOM      3  C   UNL     1      45.369   5.810  12.414  0.00  0.00    +0.000 A 
ATOM      4  C   UNL     1      45.646   6.004  11.054  0.00  0.00    +0.000 A 
ATOM      5  C   UNL     1      45.303   5.049  10.094  0.00  0.00    +0.000 A 
ATOM      6  C   UNL     1      44.694   3.851  10.476  0.00  0.00    +0.000 A 
ATOM      7  C   UNL     1      44.410   3.651  11.831  0.00  0.00    +0.000 A 
ATOM      8  C   UNL     1      44.749   4.618  12.787  0.00  0.00    +0.000 A 
BRANCH   6   9
ATOM      9  C   UNL     1      44.313   2.820   9.439  0.00  0.00    +0.000 C 
BRANCH   9  10
ATOM     10  N   UNL     1      45.355   1.799   9.289  0.00  0.00    +0.000 NA
ATOM     11  H   UNL     1      44.896   0.909   9.096  0.00  0.00    +0.000 HD
BRANCH  10  12
ATOM     12  C   UNL     1      46.308   2.100   8.212  0.00  0.00    +0.000 C 
ATOM     13  C   UNL     1      45.640   3.069   7.219  0.00  0.00    +0.000 C 
ATOM     14  C   UNL     1      46.569   3.411   6.052  0.00  0.00    +0.000 C 
ATOM     15  C   UNL     1      47.077   2.162   5.342  0.00  0.00    +0.000 C 
ATOM     16  C   UNL     1      47.710   1.177   6.316  0.00  0.00    +0.000 C 
ATOM     17  C   UNL     1      46.768   0.836   7.468  0.00  0.00    +0.000 C 
ENDBRANCH  10  12
ENDBRANCH   9  10
ENDBRANCH   6   9
ENDBRANCH   1   3
BRANCH   1  19
ATOM     18  C   UNL     1      47.007   8.934  13.775  0.00  0.00    +0.000 C 
ATOM     19  C   UNL     1      47.080   7.534  13.173  0.00  0.00    +0.000 C 
BRANCH  19  20
ATOM     20  C   UNL     1      48.327   6.747  13.637  0.00  0.00    +0.000 C 
ATOM     21  O   UNL     1      49.193   6.405  12.827  0.00  0.00    +0.000 OA
BRANCH  20  22
ATOM     22  C   UNL     1      48.555   6.488  15.074  0.00  0.00    +0.000 A 
ATOM     23  C   UNL     1      49.341   7.357  15.818  0.00  0.00    +0.000 A 
ATOM     24  S   UNL     1      49.390   6.976  17.482  0.00  0.00    +0.000 S 
ATOM     25  C   UNL     1      48.401   5.612  17.251  0.00  0.00    +0.000 A 
ATOM     26  N   UNL     1      48.005   4.848  18.303  0.00  0.00    +0.000 NA
ATOM     27  C   UNL     1      47.261   3.839  17.976  0.00  0.00    +0.000 A 
ATOM     28  N   UNL     1      46.910   3.509  16.694  0.00  0.00    +0.000 N 
ATOM     29  C   UNL     1      47.431   4.159  15.600  0.00  0.00    +0.000 A 
ATOM     30  O   UNL     1      47.372   3.666  14.481  0.00  0.00    +0.000 OA
ATOM     31  C   UNL     1      48.112   5.403  15.914  0.00  0.00    +0.000 A 
ATOM     32  H   UNL     1      46.415   2.650  16.505  0.00  0.00    +0.000 HD
ENDBRANCH  20  22
ENDBRANCH  19  20
ENDBRANCH   1  19
TORSDOF 7
ENDMDL
MODEL 2
REMARK VINA RESULT:    -8.086      2.424      3.131
REMARK INTER + INTRA:         -12.556
REMARK INTER:                 -11.961
REMARK INTRA:                  -0.595
REMARK UNBOUND:                -1.161
REMARK  Name = 
REMARK  8 active torsions:
REMARK  status: ('A' for Active; 'I' for Inactive)
REMARK    1  A    between atoms: C_1  and  C_2
REMARK    2  A    between atoms: C_2  and  N_3
REMARK    3  A    between atoms: C_2  and  C_18
REMARK    4  A    between atoms: N_3  and  C_4
REMARK    5  A    between atoms: C_7  and  C_8
REMARK    6  A    between atoms: C_8  and  N_9
REMARK    7  A    between atoms: N_9  and  C_10
REMARK    8  A    between atoms: C_18  and  C_20
REMARK                            x       y       z     vdW  Elec       q    Type
REMARK                         _______ _______ _______ _____ _____    ______ ____
ROOT
ATOM      1  N   UNL     1      46.420   5.056  14.777  0.00  0.00    +0.000 N 
ATOM      2  H   UNL     1      45.812   5.708  15.270  0.00  0.00    +0.000 HD
ENDROOT
BRANCH   1   3
ATOM      3  C   UNL     1      45.981   4.911  13.467  0.00  0.00    +0.000 A 
ATOM      4  C   UNL     1      45.224   3.769  13.166  0.00  0.00    +0.000 A 
ATOM      5  C   UNL     1      44.680   3.567  11.896  0.00  0.00    +0.000 A 
ATOM      6  C   UNL     1      44.854   4.523  10.892  0.00  0.00    +0.000 A 
ATOM      7  C   UNL     1      45.612   5.663  11.183  0.00  0.00    +0.000 A 
ATOM      8  C   UNL     1      46.163   5.854  12.457  0.00  0.00    +0.000 A 
BRANCH   6   9
ATOM      9  C   UNL     1      44.276   4.303   9.514  0.00  0.00    +0.000 C 
BRANCH   9  10
ATOM     10  N   UNL     1      45.260   4.592   8.466  0.00  0.00    +0.000 NA
ATOM     11  H   UNL     1      46.101   4.954   8.918  0.00  0.00    +0.000 HD
BRANCH  10  12
ATOM     12  C   UNL     1      45.608   3.415   7.659  0.00  0.00    +0.000 C 
ATOM     13  C   UNL     1      46.047   2.281   8.603  0.00  0.00    +0.000 C 
ATOM     14  C   UNL     1      46.450   1.024   7.829  0.00  0.00    +0.000 C 
ATOM     15  C   UNL     1      47.522   1.315   6.786  0.00  0.00    +0.000 C 
ATOM     16  C   UNL     1      47.117   2.458   5.865  0.00  0.00    +0.000 C 
ATOM     17  C   UNL     1      46.731   3.708   6.650  0.00  0.00    +0.000 C 
ENDBRANCH  10  12
ENDBRANCH   9  10
ENDBRANCH   6   9
ENDBRANCH   1   3
BRANCH   1  19
ATOM     18  C   UNL     1      48.445   6.526  14.905  0.00  0.00    +0.000 C 
ATOM     19  C   UNL     1      47.835   5.157  15.193  0.00  0.00    +0.000 C 
BRANCH  19  20
ATOM     20  C   UNL     1      48.103   4.673  16.636  0.00  0.00    +0.000 C 
ATOM     21  O   UNL     1      47.173   4.305  17.360  0.00  0.00    +0.000 OA
BRANCH  20  22
ATOM     22  C   UNL     1      49.488   4.539  17.135  0.00  0.00    +0.000 A 
ATOM     23  C   UNL     1      50.170   5.659  17.591  0.00  0.00    +0.000 A 
ATOM     24  S   UNL     1      51.704   5.301  18.248  0.00  0.00    +0.000 S 
ATOM     25  C   UNL     1      51.524   3.645  17.900  0.00  0.00    +0.000 A 
ATOM     26  N   UNL     1      52.477   2.747  18.259  0.00  0.00    +0.000 NA
ATOM     27  C   UNL     1      52.208   1.525  17.924  0.00  0.00    +0.000 A 
ATOM     28  N   UNL     1      51.092   1.131  17.233  0.00  0.00    +0.000 N 
ATOM     29  C   UNL     1      50.196   2.034  16.710  0.00  0.00    +0.000 A 
ATOM     30  O   UNL     1      49.399   1.706  15.840  0.00  0.00    +0.000 OA
ATOM     31  C   UNL     1      50.349   3.387  17.215  0.00  0.00    +0.000 A 
ATOM     32  H   UNL     1      50.999   0.178  16.915  0.00  0.00    +0.000 HD
ENDBRANCH  20  22
ENDBRANCH  19  20
ENDBRANCH   1  19
TORSDOF 7
ENDMDL
MODEL 3
REMARK VINA RESULT:    -7.908      2.356      3.457
REMARK INTER + INTRA:         -12.305
REMARK INTER:                 -11.380
REMARK INTRA:                  -0.924
REMARK UNBOUND:                -1.161
REMARK  Name = 
REMARK  8 active torsions:
REMARK  status: ('A' for Active; 'I' for Inactive)
REMARK    1  A    between atoms: C_1  and  C_2
REMARK    2  A    between atoms: C_2  and  N_3
REMARK    3  A    between atoms: C_2  and  C_18
REMARK    4  A    between atoms: N_3  and  C_4
REMARK    5  A    between atoms: C_7  and  C_8
REMARK    6  A    between atoms: C_8  and  N_9
REMARK    7  A    between atoms: N_9  and  C_10
REMARK    8  A    between atoms: C_18  and  C_20
REMARK                            x       y       z     vdW  Elec       q    Type
REMARK                         _______ _______ _______ _____ _____    ______ ____
ROOT
ATOM      1  N   UNL     1      46.101   4.863  14.668  0.00  0.00    +0.000 N 
ATOM      2  H   UNL     1      45.639   5.665  15.095  0.00  0.00    +0.000 HD
ENDROOT
BRANCH   1   3
ATOM      3  C   UNL     1      45.715   4.756  13.338  0.00  0.00    +0.000 A 
ATOM      4  C   UNL     1      44.990   3.615  12.968  0.00  0.00    +0.000 A 
ATOM      5  C   UNL     1      44.498   3.450  11.672  0.00  0.00    +0.000 A 
ATOM      6  C   UNL     1      44.696   4.443  10.709  0.00  0.00    +0.000 A 
ATOM      7  C   UNL     1      45.423   5.583  11.068  0.00  0.00    +0.000 A 
ATOM      8  C   UNL     1      45.921   5.737  12.369  0.00  0.00    +0.000 A 
BRANCH   6   9
ATOM      9  C   UNL     1      44.174   4.262   9.302  0.00  0.00    +0.000 C 
BRANCH   9  10
ATOM     10  N   UNL     1      45.214   4.540   8.306  0.00  0.00    +0.000 NA
ATOM     11  H   UNL     1      46.025   4.918   8.796  0.00  0.00    +0.000 HD
BRANCH  10  12
ATOM     12  C   UNL     1      45.616   3.350   7.543  0.00  0.00    +0.000 C 
ATOM     13  C   UNL     1      45.980   2.228   8.534  0.00  0.00    +0.000 C 
ATOM     14  C   UNL     1      46.434   0.960   7.810  0.00  0.00    +0.000 C 
ATOM     15  C   UNL     1      47.582   1.233   6.844  0.00  0.00    +0.000 C 
ATOM     16  C   UNL     1      47.250   2.363   5.879  0.00  0.00    +0.000 C 
ATOM     17  C   UNL     1      46.811   3.626   6.616  0.00  0.00    +0.000 C 
ENDBRANCH  10  12
ENDBRANCH   9  10
ENDBRANCH   6   9
ENDBRANCH   1   3
BRANCH   1  19
ATOM     18  C   UNL     1      48.271   5.943  15.302  0.00  0.00    +0.000 C 
ATOM     19  C   UNL     1      47.473   4.648  15.175  0.00  0.00    +0.000 C 
BRANCH  19  20
ATOM     20  C   UNL     1      47.545   3.773  16.448  0.00  0.00    +0.000 C 
ATOM     21  O   UNL     1      46.515   3.335  16.970  0.00  0.00    +0.000 OA
BRANCH  20  22
ATOM     22  C   UNL     1      48.852   3.358  16.996  0.00  0.00    +0.000 A 
ATOM     23  C   UNL     1      49.402   2.137  16.627  0.00  0.00    +0.000 A 
ATOM     24  S   UNL     1      50.969   1.878  17.253  0.00  0.00    +0.000 S 
ATOM     25  C   UNL     1      50.943   3.368  18.074  0.00  0.00    +0.000 A 
ATOM     26  N   UNL     1      52.022   3.798  18.778  0.00  0.00    +0.000 NA
ATOM     27  C   UNL     1      51.856   4.946  19.356  0.00  0.00    +0.000 A 
ATOM     28  N   UNL     1      50.699   5.679  19.320  0.00  0.00    +0.000 N 
ATOM     29  C   UNL     1      49.540   5.196  18.760  0.00  0.00    +0.000 A 
ATOM     30  O   UNL     1      48.454   5.703  19.010  0.00  0.00    +0.000 OA
ATOM     31  C   UNL     1      49.723   4.009  17.942  0.00  0.00    +0.000 A 
ATOM     32  H   UNL     1      50.607   6.514  19.880  0.00  0.00    +0.000 HD
ENDBRANCH  20  22
ENDBRANCH  19  20
ENDBRANCH   1  19
TORSDOF 7
ENDMDL
MODEL 4
REMARK VINA RESULT:    -7.664      2.362      3.062
REMARK INTER + INTRA:         -11.962
REMARK INTER:                 -10.911
REMARK INTRA:                  -1.051
REMARK UNBOUND:                -1.161
REMARK  Name = 
REMARK  8 active torsions:
REMARK  status: ('A' for Active; 'I' for Inactive)
REMARK    1  A    between atoms: C_1  and  C_2
REMARK    2  A    between atoms: C_2  and  N_3
REMARK    3  A    between atoms: C_2  and  C_18
REMARK    4  A    between atoms: N_3  and  C_4
REMARK    5  A    between atoms: C_7  and  C_8
REMARK    6  A    between atoms: C_8  and  N_9
REMARK    7  A    between atoms: N_9  and  C_10
REMARK    8  A    between atoms: C_18  and  C_20
REMARK                            x       y       z     vdW  Elec       q    Type
REMARK                         _______ _______ _______ _____ _____    ______ ____
ROOT
ATOM      1  N   UNL     1      47.056   7.032  14.084  0.00  0.00    +0.000 N 
ATOM      2  H   UNL     1      46.663   7.969  14.155  0.00  0.00    +0.000 HD
ENDROOT
BRANCH   1   3
ATOM      3  C   UNL     1      46.500   6.374  12.994  0.00  0.00    +0.000 A 
ATOM      4  C   UNL     1      45.552   5.378  13.261  0.00  0.00    +0.000 A 
ATOM      5  C   UNL     1      44.886   4.708  12.233  0.00  0.00    +0.000 A 
ATOM      6  C   UNL     1      45.132   5.040  10.898  0.00  0.00    +0.000 A 
ATOM      7  C   UNL     1      46.081   6.030  10.622  0.00  0.00    +0.000 A 
ATOM      8  C   UNL     1      46.752   6.691  11.661  0.00  0.00    +0.000 A 
BRANCH   6   9
ATOM      9  C   UNL     1      44.422   4.310   9.782  0.00  0.00    +0.000 C 
BRANCH   9  10
ATOM     10  N   UNL     1      45.019   4.613   8.477  0.00  0.00    +0.000 NA
ATOM     11  H   UNL     1      45.835   5.205   8.636  0.00  0.00    +0.000 HD
BRANCH  10  12
ATOM     12  C   UNL     1      45.424   3.413   7.734  0.00  0.00    +0.000 C 
ATOM     13  C   UNL     1      45.748   2.294   8.742  0.00  0.00    +0.000 C 
ATOM     14  C   UNL     1      46.203   1.014   8.039  0.00  0.00    +0.000 C 
ATOM     15  C   UNL     1      47.379   1.265   7.100  0.00  0.00    +0.000 C 
ATOM     16  C   UNL     1      47.086   2.392   6.119  0.00  0.00    +0.000 C 
ATOM     17  C   UNL     1      46.646   3.666   6.835  0.00  0.00    +0.000 C 
ENDBRANCH  10  12
ENDBRANCH   9  10
ENDBRANCH   6   9
ENDBRANCH   1   3
BRANCH   1  19
ATOM     18  C   UNL     1      49.299   8.139  13.931  0.00  0.00    +0.000 C 
ATOM     19  C   UNL     1      48.481   6.972  14.477  0.00  0.00    +0.000 C 
BRANCH  19  20
ATOM     20  C   UNL     1      48.708   6.737  15.988  0.00  0.00    +0.000 C 
ATOM     21  O   UNL     1      48.705   7.683  16.780  0.00  0.00    +0.000 OA
BRANCH  20  22
ATOM     22  C   UNL     1      48.825   5.364  16.521  0.00  0.00    +0.000 A 
ATOM     23  C   UNL     1      47.707   4.541  16.566  0.00  0.00    +0.000 A 
ATOM     24  S   UNL     1      48.051   2.953  17.090  0.00  0.00    +0.000 S 
ATOM     25  C   UNL     1      49.694   3.328  17.317  0.00  0.00    +0.000 A 
ATOM     26  N   UNL     1      50.581   2.378  17.712  0.00  0.00    +0.000 NA
ATOM     27  C   UNL     1      51.795   2.810  17.851  0.00  0.00    +0.000 A 
ATOM     28  N   UNL     1      52.190   4.108  17.664  0.00  0.00    +0.000 N 
ATOM     29  C   UNL     1      51.290   5.122  17.429  0.00  0.00    +0.000 A 
ATOM     30  O   UNL     1      51.603   6.296  17.582  0.00  0.00    +0.000 OA
ATOM     31  C   UNL     1      49.956   4.667  17.081  0.00  0.00    +0.000 A 
ATOM     32  H   UNL     1      53.130   4.394  17.891  0.00  0.00    +0.000 HD
ENDBRANCH  20  22
ENDBRANCH  19  20
ENDBRANCH   1  19
TORSDOF 7
ENDMDL
MODEL 5
REMARK VINA RESULT:    -7.566      2.746      4.759
REMARK INTER + INTRA:         -11.823
REMARK INTER:                 -11.651
REMARK INTRA:                  -0.172
REMARK UNBOUND:                -1.161
REMARK  Name = 
REMARK  8 active torsions:
REMARK  status: ('A' for Active; 'I' for Inactive)
REMARK    1  A    between atoms: C_1  and  C_2
REMARK    2  A    between atoms: C_2  and  N_3
REMARK    3  A    between atoms: C_2  and  C_18
REMARK    4  A    between atoms: N_3  and  C_4
REMARK    5  A    between atoms: C_7  and  C_8
REMARK    6  A    between atoms: C_8  and  N_9
REMARK    7  A    between atoms: N_9  and  C_10
REMARK    8  A    between atoms: C_18  and  C_20
REMARK                            x       y       z     vdW  Elec       q    Type
REMARK                         _______ _______ _______ _____ _____    ______ ____
ROOT
ATOM      1  N   UNL     1      44.546   4.612   9.715  0.00  0.00    +0.000 N 
ATOM      2  H   UNL     1      45.236   5.288  10.038  0.00  0.00    +0.000 HD
ENDROOT
BRANCH   1   3
ATOM      3  C   UNL     1      45.161   3.675   8.894  0.00  0.00    +0.000 A 
ATOM      4  C   UNL     1      45.869   4.158   7.785  0.00  0.00    +0.000 A 
ATOM      5  C   UNL     1      46.578   3.302   6.941  0.00  0.00    +0.000 A 
ATOM      6  C   UNL     1      46.622   1.930   7.201  0.00  0.00    +0.000 A 
ATOM      7  C   UNL     1      45.915   1.438   8.304  0.00  0.00    +0.000 A 
ATOM      8  C   UNL     1      45.198   2.304   9.141  0.00  0.00    +0.000 A 
BRANCH   6   9
ATOM      9  C   UNL     1      47.380   0.999   6.283  0.00  0.00    +0.000 C 
BRANCH   9  10
ATOM     10  N   UNL     1      47.611   1.611   4.971  0.00  0.00    +0.000 NA
ATOM     11  H   UNL     1      48.602   1.846   4.905  0.00  0.00    +0.000 HD
BRANCH  10  12
ATOM     12  C   UNL     1      47.243   0.734   3.851  0.00  0.00    +0.000 C 
ATOM     13  C   UNL     1      45.941   1.261   3.219  0.00  0.00    +0.000 C 
ATOM     14  C   UNL     1      45.480   0.381   2.056  0.00  0.00    +0.000 C 
ATOM     15  C   UNL     1      45.337  -1.080   2.467  0.00  0.00    +0.000 C 
ATOM     16  C   UNL     1      46.605  -1.607   3.126  0.00  0.00    +0.000 C 
ATOM     17  C   UNL     1      47.045  -0.726   4.292  0.00  0.00    +0.000 C 
ENDBRANCH  10  12
ENDBRANCH   9  10
ENDBRANCH   6   9
ENDBRANCH   1   3
BRANCH   1  19
ATOM     18  C   UNL     1      43.574   2.864  11.223  0.00  0.00    +0.000 C 
ATOM     19  C   UNL     1      43.516   4.307  10.730  0.00  0.00    +0.000 C 
BRANCH  19  20
ATOM     20  C   UNL     1      43.446   5.332  11.885  0.00  0.00    +0.000 C 
ATOM     21  O   UNL     1      42.485   5.343  12.660  0.00  0.00    +0.000 OA
BRANCH  20  22
ATOM     22  C   UNL     1      44.581   6.241  12.147  0.00  0.00    +0.000 A 
ATOM     23  C   UNL     1      44.620   7.491  11.543  0.00  0.00    +0.000 A 
ATOM     24  S   UNL     1      45.931   8.456  12.057  0.00  0.00    +0.000 S 
ATOM     25  C   UNL     1      46.513   7.217  13.068  0.00  0.00    +0.000 A 
ATOM     26  N   UNL     1      47.605   7.409  13.853  0.00  0.00    +0.000 NA
ATOM     27  C   UNL     1      47.936   6.377  14.563  0.00  0.00    +0.000 A 
ATOM     28  N   UNL     1      47.296   5.166  14.529  0.00  0.00    +0.000 N 
ATOM     29  C   UNL     1      46.298   4.889  13.625  0.00  0.00    +0.000 A 
ATOM     30  O   UNL     1      45.961   3.736  13.384  0.00  0.00    +0.000 OA
ATOM     31  C   UNL     1      45.767   6.057  12.945  0.00  0.00    +0.000 A 
ATOM     32  H   UNL     1      47.672   4.376  15.030  0.00  0.00    +0.000 HD
ENDBRANCH  20  22
ENDBRANCH  19  20
ENDBRANCH   1  19
TORSDOF 7
ENDMDL
MODEL 6
REMARK VINA RESULT:    -7.498      3.065      4.093
REMARK INTER + INTRA:         -11.727
REMARK INTER:                 -10.875
REMARK INTRA:                  -0.852
REMARK UNBOUND:                -1.161
REMARK  Name = 
REMARK  8 active torsions:
REMARK  status: ('A' for Active; 'I' for Inactive)
REMARK    1  A    between atoms: C_1  and  C_2
REMARK    2  A    between atoms: C_2  and  N_3
REMARK    3  A    between atoms: C_2  and  C_18
REMARK    4  A    between atoms: N_3  and  C_4
REMARK    5  A    between atoms: C_7  and  C_8
REMARK    6  A    between atoms: C_8  and  N_9
REMARK    7  A    between atoms: N_9  and  C_10
REMARK    8  A    between atoms: C_18  and  C_20
REMARK                            x       y       z     vdW  Elec       q    Type
REMARK                         _______ _______ _______ _____ _____    ______ ____
ROOT
ATOM      1  N   UNL     1      48.044   6.216  15.674  0.00  0.00    +0.000 N 
ATOM      2  H   UNL     1      47.550   6.938  16.198  0.00  0.00    +0.000 HD
ENDROOT
BRANCH   1   3
ATOM      3  C   UNL     1      47.620   6.230  14.351  0.00  0.00    +0.000 A 
ATOM      4  C   UNL     1      46.833   5.155  13.917  0.00  0.00    +0.000 A 
ATOM      5  C   UNL     1      46.302   5.111  12.627  0.00  0.00    +0.000 A 
ATOM      6  C   UNL     1      46.522   6.165  11.736  0.00  0.00    +0.000 A 
ATOM      7  C   UNL     1      47.311   7.240  12.159  0.00  0.00    +0.000 A 
ATOM      8  C   UNL     1      47.848   7.272  13.454  0.00  0.00    +0.000 A 
BRANCH   6   9
ATOM      9  C   UNL     1      45.958   6.116  10.335  0.00  0.00    +0.000 C 
BRANCH   9  10
ATOM     10  N   UNL     1      44.749   5.288  10.273  0.00  0.00    +0.000 NA
ATOM     11  H   UNL     1      43.958   5.903  10.080  0.00  0.00    +0.000 HD
BRANCH  10  12
ATOM     12  C   UNL     1      44.817   4.242   9.244  0.00  0.00    +0.000 C 
ATOM     13  C   UNL     1      44.942   2.873   9.939  0.00  0.00    +0.000 C 
ATOM     14  C   UNL     1      45.043   1.732   8.925  0.00  0.00    +0.000 C 
ATOM     15  C   UNL     1      46.180   1.948   7.932  0.00  0.00    +0.000 C 
ATOM     16  C   UNL     1      46.090   3.313   7.261  0.00  0.00    +0.000 C 
ATOM     17  C   UNL     1      46.002   4.442   8.284  0.00  0.00    +0.000 C 
ENDBRANCH  10  12
ENDBRANCH   9  10
ENDBRANCH   6   9
ENDBRANCH   1   3
BRANCH   1  19
ATOM     18  C   UNL     1      50.204   7.351  16.242  0.00  0.00    +0.000 C 
ATOM     19  C   UNL     1      49.442   6.034  16.117  0.00  0.00    +0.000 C 
BRANCH  19  20
ATOM     20  C   UNL     1      49.596   5.133  17.363  0.00  0.00    +0.000 C 
ATOM     21  O   UNL     1      48.620   4.860  18.068  0.00  0.00    +0.000 OA
BRANCH  20  22
ATOM     22  C   UNL     1      50.893   4.495  17.669  0.00  0.00    +0.000 A 
ATOM     23  C   UNL     1      51.964   5.270  18.092  0.00  0.00    +0.000 A 
ATOM     24  S   UNL     1      53.340   4.356  18.523  0.00  0.00    +0.000 S 
ATOM     25  C   UNL     1      52.563   2.899  18.113  0.00  0.00    +0.000 A 
ATOM     26  N   UNL     1      53.179   1.702  18.295  0.00  0.00    +0.000 NA
ATOM     27  C   UNL     1      52.471   0.680  17.932  0.00  0.00    +0.000 A 
ATOM     28  N   UNL     1      51.222   0.752  17.373  0.00  0.00    +0.000 N 
ATOM     29  C   UNL     1      50.644   1.949  17.021  0.00  0.00    +0.000 A 
ATOM     30  O   UNL     1      49.697   1.993  16.246  0.00  0.00    +0.000 OA
ATOM     31  C   UNL     1      51.307   3.117  17.573  0.00  0.00    +0.000 A 
ATOM     32  H   UNL     1      50.773  -0.079  17.018  0.00  0.00    +0.000 HD
ENDBRANCH  20  22
ENDBRANCH  19  20
ENDBRANCH   1  19
TORSDOF 7
ENDMDL
MODEL 7
REMARK VINA RESULT:    -7.496      2.087      2.974
REMARK INTER + INTRA:         -11.724
REMARK INTER:                 -10.564
REMARK INTRA:                  -1.160
REMARK UNBOUND:                -1.161
REMARK  Name = 
REMARK  8 active torsions:
REMARK  status: ('A' for Active; 'I' for Inactive)
REMARK    1  A    between atoms: C_1  and  C_2
REMARK    2  A    between atoms: C_2  and  N_3
REMARK    3  A    between atoms: C_2  and  C_18
REMARK    4  A    between atoms: N_3  and  C_4
REMARK    5  A    between atoms: C_7  and  C_8
REMARK    6  A    between atoms: C_8  and  N_9
REMARK    7  A    between atoms: N_9  and  C_10
REMARK    8  A    between atoms: C_18  and  C_20
REMARK                            x       y       z     vdW  Elec       q    Type
REMARK                         _______ _______ _______ _____ _____    ______ ____
ROOT
ATOM      1  N   UNL     1      47.342   6.742  14.025  0.00  0.00    +0.000 N 
ATOM      2  H   UNL     1      46.737   7.440  14.453  0.00  0.00    +0.000 HD
ENDROOT
BRANCH   1   3
ATOM      3  C   UNL     1      46.638   6.050  13.048  0.00  0.00    +0.000 A 
ATOM      4  C   UNL     1      46.151   4.780  13.386  0.00  0.00    +0.000 A 
ATOM      5  C   UNL     1      45.373   4.035  12.498  0.00  0.00    +0.000 A 
ATOM      6  C   UNL     1      45.034   4.557  11.246  0.00  0.00    +0.000 A 
ATOM      7  C   UNL     1      45.519   5.822  10.900  0.00  0.00    +0.000 A 
ATOM      8  C   UNL     1      46.308   6.559  11.794  0.00  0.00    +0.000 A 
BRANCH   6   9
ATOM      9  C   UNL     1      44.201   3.750  10.278  0.00  0.00    +0.000 C 
BRANCH   9  10
ATOM     10  N   UNL     1      44.343   4.246   8.905  0.00  0.00    +0.000 NA
ATOM     11  H   UNL     1      44.868   5.120   8.941  0.00  0.00    +0.000 HD
BRANCH  10  12
ATOM     12  C   UNL     1      45.031   3.299   8.017  0.00  0.00    +0.000 C 
ATOM     13  C   UNL     1      45.482   2.082   8.846  0.00  0.00    +0.000 C 
ATOM     14  C   UNL     1      46.230   1.060   7.990  0.00  0.00    +0.000 C 
ATOM     15  C   UNL     1      47.407   1.686   7.250  0.00  0.00    +0.000 C 
ATOM     16  C   UNL     1      46.983   2.912   6.452  0.00  0.00    +0.000 C 
ATOM     17  C   UNL     1      46.250   3.929   7.323  0.00  0.00    +0.000 C 
ENDBRANCH  10  12
ENDBRANCH   9  10
ENDBRANCH   6   9
ENDBRANCH   1   3
BRANCH   1  19
ATOM     18  C   UNL     1      48.874   8.603  13.341  0.00  0.00    +0.000 C 
ATOM     19  C   UNL     1      48.746   7.190  13.904  0.00  0.00    +0.000 C 
BRANCH  19  20
ATOM     20  C   UNL     1      49.588   6.977  15.182  0.00  0.00    +0.000 C 
ATOM     21  O   UNL     1      50.795   7.241  15.193  0.00  0.00    +0.000 OA
BRANCH  20  22
ATOM     22  C   UNL     1      48.942   6.558  16.443  0.00  0.00    +0.000 A 
ATOM     23  C   UNL     1      48.733   5.209  16.698  0.00  0.00    +0.000 A 
ATOM     24  S   UNL     1      48.095   4.901  18.251  0.00  0.00    +0.000 S 
ATOM     25  C   UNL     1      48.035   6.562  18.613  0.00  0.00    +0.000 A 
ATOM     26  N   UNL     1      47.626   6.999  19.832  0.00  0.00    +0.000 NA
ATOM     27  C   UNL     1      47.625   8.288  19.962  0.00  0.00    +0.000 A 
ATOM     28  N   UNL     1      47.961   9.174  18.972  0.00  0.00    +0.000 N 
ATOM     29  C   UNL     1      48.215   8.771  17.682  0.00  0.00    +0.000 A 
ATOM     30  O   UNL     1      48.196   9.567  16.752  0.00  0.00    +0.000 OA
ATOM     31  C   UNL     1      48.413   7.340  17.532  0.00  0.00    +0.000 A 
ATOM     32  H   UNL     1      47.837  10.165  19.110  0.00  0.00    +0.000 HD
ENDBRANCH  20  22
ENDBRANCH  19  20
ENDBRANCH   1  19
TORSDOF 7
ENDMDL
MODEL 8
REMARK VINA RESULT:    -7.375      2.084      2.870
REMARK INTER + INTRA:         -11.553
REMARK INTER:                 -11.198
REMARK INTRA:                  -0.355
REMARK UNBOUND:                -1.161
REMARK  Name = 
REMARK  8 active torsions:
REMARK  status: ('A' for Active; 'I' for Inactive)
REMARK    1  A    between atoms: C_1  and  C_2
REMARK    2  A    between atoms: C_2  and  N_3
REMARK    3  A    between atoms: C_2  and  C_18
REMARK    4  A    between atoms: N_3  and  C_4
REMARK    5  A    between atoms: C_7  and  C_8
REMARK    6  A    between atoms: C_8  and  N_9
REMARK    7  A    between atoms: N_9  and  C_10
REMARK    8  A    between atoms: C_18  and  C_20
REMARK                            x       y       z     vdW  Elec       q    Type
REMARK                         _______ _______ _______ _____ _____    ______ ____
ROOT
ATOM      1  N   UNL     1      47.657   5.670  14.139  0.00  0.00    +0.000 N 
ATOM      2  H   UNL     1      48.597   5.586  13.755  0.00  0.00    +0.000 HD
ENDROOT
BRANCH   1   3
ATOM      3  C   UNL     1      46.734   5.181  13.224  0.00  0.00    +0.000 A 
ATOM      4  C   UNL     1      46.370   6.025  12.165  0.00  0.00    +0.000 A 
ATOM      5  C   UNL     1      45.503   5.600  11.157  0.00  0.00    +0.000 A 
ATOM      6  C   UNL     1      44.995   4.298  11.164  0.00  0.00    +0.000 A 
ATOM      7  C   UNL     1      45.349   3.451  12.219  0.00  0.00    +0.000 A 
ATOM      8  C   UNL     1      46.213   3.889  13.233  0.00  0.00    +0.000 A 
BRANCH   6   9
ATOM      9  C   UNL     1      44.048   3.838  10.080  0.00  0.00    +0.000 C 
BRANCH   9  10
ATOM     10  N   UNL     1      44.445   4.356   8.766  0.00  0.00    +0.000 NA
ATOM     11  H   UNL     1      45.075   5.145   8.918  0.00  0.00    +0.000 HD
BRANCH  10  12
ATOM     12  C   UNL     1      45.113   3.352   7.927  0.00  0.00    +0.000 C 
ATOM     13  C   UNL     1      45.473   2.137   8.802  0.00  0.00    +0.000 C 
ATOM     14  C   UNL     1      46.197   1.055   7.999  0.00  0.00    +0.000 C 
ATOM     15  C   UNL     1      47.429   1.602   7.286  0.00  0.00    +0.000 C 
ATOM     16  C   UNL     1      47.096   2.825   6.442  0.00  0.00    +0.000 C 
ATOM     17  C   UNL     1      46.386   3.900   7.260  0.00  0.00    +0.000 C 
ENDBRANCH  10  12
ENDBRANCH   9  10
ENDBRANCH   6   9
ENDBRANCH   1   3
BRANCH   1  19
ATOM     18  C   UNL     1      47.354   3.986  15.970  0.00  0.00    +0.000 C 
ATOM     19  C   UNL     1      47.606   5.445  15.600  0.00  0.00    +0.000 C 
BRANCH  19  20
ATOM     20  C   UNL     1      48.794   6.062  16.374  0.00  0.00    +0.000 C 
ATOM     21  O   UNL     1      49.881   6.245  15.818  0.00  0.00    +0.000 OA
BRANCH  20  22
ATOM     22  C   UNL     1      48.614   6.543  17.759  0.00  0.00    +0.000 A 
ATOM     23  C   UNL     1      48.417   7.896  18.002  0.00  0.00    +0.000 A 
ATOM     24  S   UNL     1      48.101   8.255  19.641  0.00  0.00    +0.000 S 
ATOM     25  C   UNL     1      48.263   6.620  20.083  0.00  0.00    +0.000 A 
ATOM     26  N   UNL     1      48.059   6.218  21.365  0.00  0.00    +0.000 NA
ATOM     27  C   UNL     1      48.224   4.947  21.555  0.00  0.00    +0.000 A 
ATOM     28  N   UNL     1      48.608   4.055  20.589  0.00  0.00    +0.000 N 
ATOM     29  C   UNL     1      48.984   4.455  19.329  0.00  0.00    +0.000 A 
ATOM     30  O   UNL     1      49.620   3.713  18.591  0.00  0.00    +0.000 OA
ATOM     31  C   UNL     1      48.639   5.829  19.011  0.00  0.00    +0.000 A 
ATOM     32  H   UNL     1      48.818   3.099  20.832  0.00  0.00    +0.000 HD
ENDBRANCH  20  22
ENDBRANCH  19  20
ENDBRANCH   1  19
TORSDOF 7
ENDMDL
MODEL 9
REMARK VINA RESULT:    -7.198      3.186      8.170
REMARK INTER + INTRA:         -11.305
REMARK INTER:                 -10.117
REMARK INTRA:                  -1.188
REMARK UNBOUND:                -1.161
REMARK  Name = 
REMARK  8 active torsions:
REMARK  status: ('A' for Active; 'I' for Inactive)
REMARK    1  A    between atoms: C_1  and  C_2
REMARK    2  A    between atoms: C_2  and  N_3
REMARK    3  A    between atoms: C_2  and  C_18
REMARK    4  A    between atoms: N_3  and  C_4
REMARK    5  A    between atoms: C_7  and  C_8
REMARK    6  A    between atoms: C_8  and  N_9
REMARK    7  A    between atoms: N_9  and  C_10
REMARK    8  A    between atoms: C_18  and  C_20
REMARK                            x       y       z     vdW  Elec       q    Type
REMARK                         _______ _______ _______ _____ _____    ______ ____
ROOT
ATOM      1  N   UNL     1      47.057   6.279  12.833  0.00  0.00    +0.000 N 
ATOM      2  H   UNL     1      47.859   6.388  12.215  0.00  0.00    +0.000 HD
ENDROOT
BRANCH   1   3
ATOM      3  C   UNL     1      47.478   5.773  14.057  0.00  0.00    +0.000 A 
ATOM      4  C   UNL     1      48.360   6.562  14.808  0.00  0.00    +0.000 A 
ATOM      5  C   UNL     1      48.786   6.173  16.080  0.00  0.00    +0.000 A 
ATOM      6  C   UNL     1      48.314   4.988  16.651  0.00  0.00    +0.000 A 
ATOM      7  C   UNL     1      47.437   4.193  15.906  0.00  0.00    +0.000 A 
ATOM      8  C   UNL     1      47.022   4.586  14.626  0.00  0.00    +0.000 A 
BRANCH   6   9
ATOM      9  C   UNL     1      48.781   4.559  18.023  0.00  0.00    +0.000 C 
BRANCH   9  10
ATOM     10  N   UNL     1      50.206   4.846  18.218  0.00  0.00    +0.000 NA
ATOM     11  H   UNL     1      50.372   4.936  19.221  0.00  0.00    +0.000 HD
BRANCH  10  12
ATOM     12  C   UNL     1      51.085   3.805  17.669  0.00  0.00    +0.000 C 
ATOM     13  C   UNL     1      50.307   2.477  17.619  0.00  0.00    +0.000 C 
ATOM     14  C   UNL     1      51.169   1.335  17.078  0.00  0.00    +0.000 C 
ATOM     15  C   UNL     1      52.468   1.181  17.861  0.00  0.00    +0.000 C 
ATOM     16  C   UNL     1      53.234   2.494  17.949  0.00  0.00    +0.000 C 
ATOM     17  C   UNL     1      52.364   3.620  18.502  0.00  0.00    +0.000 C 
ENDBRANCH  10  12
ENDBRANCH   9  10
ENDBRANCH   6   9
ENDBRANCH   1   3
BRANCH   1  19
ATOM     18  C   UNL     1      46.631   8.653  12.158  0.00  0.00    +0.000 C 
ATOM     19  C   UNL     1      46.040   7.337  12.655  0.00  0.00    +0.000 C 
BRANCH  19  20
ATOM     20  C   UNL     1      44.802   6.893  11.844  0.00  0.00    +0.000 C 
ATOM     21  O   UNL     1      44.093   7.725  11.271  0.00  0.00    +0.000 OA
BRANCH  20  22
ATOM     22  C   UNL     1      44.511   5.457  11.651  0.00  0.00    +0.000 A 
ATOM     23  C   UNL     1      43.947   4.720  12.683  0.00  0.00    +0.000 A 
ATOM     24  S   UNL     1      43.561   3.116  12.244  0.00  0.00    +0.000 S 
ATOM     25  C   UNL     1      44.177   3.343  10.675  0.00  0.00    +0.000 A 
ATOM     26  N   UNL     1      44.107   2.355   9.745  0.00  0.00    +0.000 NA
ATOM     27  C   UNL     1      44.622   2.667   8.598  0.00  0.00    +0.000 A 
ATOM     28  N   UNL     1      45.230   3.862   8.313  0.00  0.00    +0.000 N 
ATOM     29  C   UNL     1      45.466   4.814   9.277  0.00  0.00    +0.000 A 
ATOM     30  O   UNL     1      46.275   5.714   9.095  0.00  0.00    +0.000 OA
ATOM     31  C   UNL     1      44.748   4.595  10.520  0.00  0.00    +0.000 A 
ATOM     32  H   UNL     1      45.701   3.997   7.431  0.00  0.00    +0.000 HD
ENDBRANCH  20  22
ENDBRANCH  19  20
ENDBRANCH   1  19
TORSDOF 7
ENDMDL
