MODEL 1
REMARK VINA RESULT:    -7.900      0.000      0.000
REMARK INTER + INTRA:         -14.061
REMARK INTER:                 -12.288
REMARK INTRA:                  -1.773
REMARK UNBOUND:                -1.773
REMARK  Name = 
REMARK  10 active torsions:
REMARK  status: ('A' for Active; 'I' for Inactive)
REMARK    1  A    between atoms: C_2  and  C_23
REMARK    2  A    between atoms: N_3  and  C_4
REMARK    3  A    between atoms: C_4  and  C_5
REMARK    4  A    between atoms: C_8  and  C_9
REMARK    5  A    between atoms: C_9  and  N_10
REMARK    6  A    between atoms: N_10  and  C_11
REMARK    7  A    between atoms: N_10  and  C_14
REMARK    8  A    between atoms: C_11  and  C_12
REMARK    9  A    between atoms: C_12  and  O_13
REMARK   10  A    between atoms: C_14  and  C_15
REMARK                            x       y       z     vdW  Elec       q    Type
REMARK                         _______ _______ _______ _____ _____    ______ ____
ROOT
ATOM      1  C   UNL     1      46.664   7.823  12.720  0.00  0.00    +0.000 A 
ATOM      2  C   UNL     1      47.095   6.655  12.081  0.00  0.00    +0.000 A 
ATOM      3  C   UNL     1      46.218   5.923  11.283  0.00  0.00    +0.000 A 
ATOM      4  C   UNL     1      44.893   6.346  11.114  0.00  0.00    +0.000 A 
ATOM      5  C   UNL     1      44.502   7.582  11.644  0.00  0.00    +0.000 A 
ATOM      6  C   UNL     1      45.385   8.322  12.436  0.00  0.00    +0.000 A 
ENDROOT
BRANCH   1   7
ATOM      7  C   UNL     1      47.556   8.498  13.726  0.00  0.00    +0.000 C 
BRANCH   7  10
ATOM      8  O   UNL     1      49.968   7.101  14.182  0.00  0.00    +0.000 OA
ATOM      9  C   UNL     1      49.068   7.039  15.014  0.00  0.00    +0.000 C 
ATOM     10  N   UNL     1      47.855   7.649  14.843  0.00  0.00    +0.000 N 
ATOM     11  H   UNL     1      47.213   7.710  15.624  0.00  0.00    +0.000 HD
BRANCH   9  12
ATOM     12  C   UNL     1      49.208   6.242  16.238  0.00  0.00    +0.000 A 
ATOM     13  C   UNL     1      50.131   6.612  17.205  0.00  0.00    +0.000 A 
ATOM     14  S   UNL     1      50.175   5.556  18.544  0.00  0.00    +0.000 S 
ATOM     15  C   UNL     1      48.925   4.598  17.898  0.00  0.00    +0.000 A 
ATOM     16  N   UNL     1      48.449   3.516  18.576  0.00  0.00    +0.000 NA
ATOM     17  C   UNL     1      47.468   2.910  17.993  0.00  0.00    +0.000 A 
ATOM     18  N   UNL     1      46.931   3.277  16.788  0.00  0.00    +0.000 N 
ATOM     19  C   UNL     1      47.431   4.305  16.031  0.00  0.00    +0.000 A 
ATOM     20  O   UNL     1      47.027   4.505  14.890  0.00  0.00    +0.000 OA
ATOM     21  C   UNL     1      48.499   5.057  16.667  0.00  0.00    +0.000 A 
ATOM     22  H   UNL     1      46.184   2.737  16.368  0.00  0.00    +0.000 HD
ENDBRANCH   9  12
ENDBRANCH   7  10
ENDBRANCH   1   7
BRANCH   4  23
ATOM     23  C   UNL     1      43.888   5.444  10.424  0.00  0.00    +0.000 C 
BRANCH  23  24
ATOM     24  N   UNL     1      44.371   4.044  10.260  0.00  0.00    +0.000 NA
BRANCH  24  25
ATOM     25  C   UNL     1      43.617   3.119  11.141  0.00  0.00    +0.000 C 
BRANCH  25  26
ATOM     26  C   UNL     1      44.027   3.148  12.627  0.00  0.00    +0.000 C 
BRANCH  26  27
ATOM     27  O   UNL     1      45.402   2.801  12.779  0.00  0.00    +0.000 OA
ATOM     28  H   UNL     1      45.873   3.149  12.001  0.00  0.00    +0.000 HD
ENDBRANCH  26  27
ENDBRANCH  25  26
ENDBRANCH  24  25
BRANCH  24  29
ATOM     29  C   UNL     1      44.214   3.637   8.842  0.00  0.00    +0.000 C 
BRANCH  29  30
ATOM     30  C   UNL     1      45.446   3.023   8.201  0.00  0.00    +0.000 A 
ATOM     31  C   UNL     1      45.751   1.677   8.400  0.00  0.00    +0.000 A 
ATOM     32  C   UNL     1      46.854   1.136   7.747  0.00  0.00    +0.000 A 
ATOM     33  C   UNL     1      47.619   1.947   6.919  0.00  0.00    +0.000 A 
ATOM     34  C   UNL     1      47.255   3.276   6.785  0.00  0.00    +0.000 A 
ATOM     35  N   UNL     1      46.192   3.831   7.406  0.00  0.00    +0.000 NA
ENDBRANCH  29  30
ENDBRANCH  24  29
ENDBRANCH  23  24
ENDBRANCH   4  23
TORSDOF 10
ENDMDL
MODEL 2
REMARK VINA RESULT:    -7.407      1.117      1.228
REMARK INTER + INTRA:         -13.293
REMARK INTER:                 -11.562
REMARK INTRA:                  -1.731
REMARK UNBOUND:                -1.773
REMARK  Name = 
REMARK  10 active torsions:
REMARK  status: ('A' for Active; 'I' for Inactive)
REMARK    1  A    between atoms: C_2  and  C_23
REMARK    2  A    between atoms: N_3  and  C_4
REMARK    3  A    between atoms: C_4  and  C_5
REMARK    4  A    between atoms: C_8  and  C_9
REMARK    5  A    between atoms: C_9  and  N_10
REMARK    6  A    between atoms: N_10  and  C_11
REMARK    7  A    between atoms: N_10  and  C_14
REMARK    8  A    between atoms: C_11  and  C_12
REMARK    9  A    between atoms: C_12  and  O_13
REMARK   10  A    between atoms: C_14  and  C_15
REMARK                            x       y       z     vdW  Elec       q    Type
REMARK                         _______ _______ _______ _____ _____    ______ ____
ROOT
ATOM      1  C   UNL     1      47.801   8.055  13.040  0.00  0.00    +0.000 A 
ATOM      2  C   UNL     1      47.905   6.977  12.152  0.00  0.00    +0.000 A 
ATOM      3  C   UNL     1      46.776   6.497  11.491  0.00  0.00    +0.000 A 
ATOM      4  C   UNL     1      45.524   7.085  11.710  0.00  0.00    +0.000 A 
ATOM      5  C   UNL     1      45.444   8.244  12.493  0.00  0.00    +0.000 A 
ATOM      6  C   UNL     1      46.579   8.731  13.149  0.00  0.00    +0.000 A 
ENDROOT
BRANCH   1   7
ATOM      7  C   UNL     1      48.982   8.440  13.889  0.00  0.00    +0.000 C 
BRANCH   7  10
ATOM      8  O   UNL     1      48.243   8.848  16.584  0.00  0.00    +0.000 OA
ATOM      9  C   UNL     1      48.760   7.785  16.255  0.00  0.00    +0.000 C 
ATOM     10  N   UNL     1      49.188   7.531  14.980  0.00  0.00    +0.000 N 
ATOM     11  H   UNL     1      49.451   6.588  14.720  0.00  0.00    +0.000 HD
BRANCH   9  12
ATOM     12  C   UNL     1      49.020   6.721  17.232  0.00  0.00    +0.000 A 
ATOM     13  C   UNL     1      49.792   6.984  18.354  0.00  0.00    +0.000 A 
ATOM     14  S   UNL     1      50.012   5.625  19.362  0.00  0.00    +0.000 S 
ATOM     15  C   UNL     1      49.039   4.655  18.357  0.00  0.00    +0.000 A 
ATOM     16  N   UNL     1      48.788   3.353  18.670  0.00  0.00    +0.000 NA
ATOM     17  C   UNL     1      47.995   2.749  17.848  0.00  0.00    +0.000 A 
ATOM     18  N   UNL     1      47.444   3.324  16.734  0.00  0.00    +0.000 N 
ATOM     19  C   UNL     1      47.734   4.601  16.333  0.00  0.00    +0.000 A 
ATOM     20  O   UNL     1      47.347   5.029  15.250  0.00  0.00    +0.000 OA
ATOM     21  C   UNL     1      48.576   5.345  17.254  0.00  0.00    +0.000 A 
ATOM     22  H   UNL     1      46.857   2.783  16.110  0.00  0.00    +0.000 HD
ENDBRANCH   9  12
ENDBRANCH   7  10
ENDBRANCH   1   7
BRANCH   4  23
ATOM     23  C   UNL     1      44.270   6.434  11.158  0.00  0.00    +0.000 C 
BRANCH  23  24
ATOM     24  N   UNL     1      44.332   4.945  11.162  0.00  0.00    +0.000 NA
BRANCH  24  25
ATOM     25  C   UNL     1      43.457   4.385  12.223  0.00  0.00    +0.000 C 
BRANCH  25  26
ATOM     26  C   UNL     1      43.507   2.851  12.371  0.00  0.00    +0.000 C 
BRANCH  26  27
ATOM     27  O   UNL     1      44.824   2.419  12.708  0.00  0.00    +0.000 OA
ATOM     28  H   UNL     1      44.734   1.726  13.386  0.00  0.00    +0.000 HD
ENDBRANCH  26  27
ENDBRANCH  25  26
ENDBRANCH  24  25
BRANCH  24  29
ATOM     29  C   UNL     1      43.911   4.436   9.834  0.00  0.00    +0.000 C 
BRANCH  29  30
ATOM     30  C   UNL     1      44.995   3.739   9.032  0.00  0.00    +0.000 A 
ATOM     31  C   UNL     1      45.180   2.361   9.139  0.00  0.00    +0.000 A 
ATOM     32  C   UNL     1      46.144   1.751   8.342  0.00  0.00    +0.000 A 
ATOM     33  C   UNL     1      46.892   2.526   7.466  0.00  0.00    +0.000 A 
ATOM     34  C   UNL     1      46.653   3.889   7.429  0.00  0.00    +0.000 A 
ATOM     35  N   UNL     1      45.727   4.511   8.190  0.00  0.00    +0.000 NA
ENDBRANCH  29  30
ENDBRANCH  24  29
ENDBRANCH  23  24
ENDBRANCH   4  23
TORSDOF 10
ENDMDL
MODEL 3
REMARK VINA RESULT:    -7.216      2.311      2.833
REMARK INTER + INTRA:         -12.997
REMARK INTER:                 -11.787
REMARK INTRA:                  -1.211
REMARK UNBOUND:                -1.773
REMARK  Name = 
REMARK  10 active torsions:
REMARK  status: ('A' for Active; 'I' for Inactive)
REMARK    1  A    between atoms: C_2  and  C_23
REMARK    2  A    between atoms: N_3  and  C_4
REMARK    3  A    between atoms: C_4  and  C_5
REMARK    4  A    between atoms: C_8  and  C_9
REMARK    5  A    between atoms: C_9  and  N_10
REMARK    6  A    between atoms: N_10  and  C_11
REMARK    7  A    between atoms: N_10  and  C_14
REMARK    8  A    between atoms: C_11  and  C_12
REMARK    9  A    between atoms: C_12  and  O_13
REMARK   10  A    between atoms: C_14  and  C_15
REMARK                            x       y       z     vdW  Elec       q    Type
REMARK                         _______ _______ _______ _____ _____    ______ ____
ROOT
ATOM      1  C   UNL     1      48.188   6.699  13.537  0.00  0.00    +0.000 A 
ATOM      2  C   UNL     1      47.187   5.800  13.924  0.00  0.00    +0.000 A 
ATOM      3  C   UNL     1      46.138   5.497  13.059  0.00  0.00    +0.000 A 
ATOM      4  C   UNL     1      46.070   6.091  11.792  0.00  0.00    +0.000 A 
ATOM      5  C   UNL     1      47.139   6.885  11.356  0.00  0.00    +0.000 A 
ATOM      6  C   UNL     1      48.197   7.181  12.221  0.00  0.00    +0.000 A 
ENDROOT
BRANCH   1   7
ATOM      7  C   UNL     1      49.205   7.164  14.543  0.00  0.00    +0.000 C 
BRANCH   7  10
ATOM      8  O   UNL     1      50.899   5.921  16.430  0.00  0.00    +0.000 OA
ATOM      9  C   UNL     1      49.754   6.222  16.753  0.00  0.00    +0.000 C 
ATOM     10  N   UNL     1      48.860   6.783  15.882  0.00  0.00    +0.000 N 
ATOM     11  H   UNL     1      47.991   7.165  16.236  0.00  0.00    +0.000 HD
BRANCH   9  12
ATOM     12  C   UNL     1      49.235   5.937  18.095  0.00  0.00    +0.000 A 
ATOM     13  C   UNL     1      49.428   4.686  18.663  0.00  0.00    +0.000 A 
ATOM     14  S   UNL     1      48.733   4.527  20.212  0.00  0.00    +0.000 S 
ATOM     15  C   UNL     1      48.193   6.141  20.196  0.00  0.00    +0.000 A 
ATOM     16  N   UNL     1      47.531   6.670  21.263  0.00  0.00    +0.000 NA
ATOM     17  C   UNL     1      47.224   7.918  21.136  0.00  0.00    +0.000 A 
ATOM     18  N   UNL     1      47.506   8.681  20.034  0.00  0.00    +0.000 N 
ATOM     19  C   UNL     1      48.094   8.172  18.905  0.00  0.00    +0.000 A 
ATOM     20  O   UNL     1      48.189   8.844  17.883  0.00  0.00    +0.000 OA
ATOM     21  C   UNL     1      48.512   6.786  19.017  0.00  0.00    +0.000 A 
ATOM     22  H   UNL     1      47.205   9.647  19.982  0.00  0.00    +0.000 HD
ENDBRANCH   9  12
ENDBRANCH   7  10
ENDBRANCH   1   7
BRANCH   4  23
ATOM     23  C   UNL     1      44.827   5.926  10.940  0.00  0.00    +0.000 C 
BRANCH  23  24
ATOM     24  N   UNL     1      44.449   4.502  10.723  0.00  0.00    +0.000 NA
BRANCH  24  25
ATOM     25  C   UNL     1      43.232   4.155  11.499  0.00  0.00    +0.000 C 
BRANCH  25  26
ATOM     26  C   UNL     1      42.460   5.356  12.080  0.00  0.00    +0.000 C 
BRANCH  26  27
ATOM     27  O   UNL     1      42.558   5.379  13.503  0.00  0.00    +0.000 OA
ATOM     28  H   UNL     1      43.132   6.129  13.738  0.00  0.00    +0.000 HD
ENDBRANCH  26  27
ENDBRANCH  25  26
ENDBRANCH  24  25
BRANCH  24  29
ATOM     29  C   UNL     1      44.211   4.275   9.276  0.00  0.00    +0.000 C 
BRANCH  29  30
ATOM     30  C   UNL     1      45.277   3.464   8.561  0.00  0.00    +0.000 A 
ATOM     31  C   UNL     1      45.418   2.100   8.816  0.00  0.00    +0.000 A 
ATOM     32  C   UNL     1      46.365   1.379   8.096  0.00  0.00    +0.000 A 
ATOM     33  C   UNL     1      47.142   2.034   7.148  0.00  0.00    +0.000 A 
ATOM     34  C   UNL     1      46.947   3.392   6.965  0.00  0.00    +0.000 A 
ATOM     35  N   UNL     1      46.037   4.119   7.648  0.00  0.00    +0.000 NA
ENDBRANCH  29  30
ENDBRANCH  24  29
ENDBRANCH  23  24
ENDBRANCH   4  23
TORSDOF 10
ENDMDL
MODEL 4
REMARK VINA RESULT:    -6.725      1.479      2.004
REMARK INTER + INTRA:         -12.234
REMARK INTER:                 -11.035
REMARK INTRA:                  -1.198
REMARK UNBOUND:                -1.773
REMARK  Name = 
REMARK  10 active torsions:
REMARK  status: ('A' for Active; 'I' for Inactive)
REMARK    1  A    between atoms: C_2  and  C_23
REMARK    2  A    between atoms: N_3  and  C_4
REMARK    3  A    between atoms: C_4  and  C_5
REMARK    4  A    between atoms: C_8  and  C_9
REMARK    5  A    between atoms: C_9  and  N_10
REMARK    6  A    between atoms: N_10  and  C_11
REMARK    7  A    between atoms: N_10  and  C_14
REMARK    8  A    between atoms: C_11  and  C_12
REMARK    9  A    between atoms: C_12  and  O_13
REMARK   10  A    between atoms: C_14  and  C_15
REMARK                            x       y       z     vdW  Elec       q    Type
REMARK                         _______ _______ _______ _____ _____    ______ ____
ROOT
ATOM      1  C   UNL     1      47.327   8.049  13.604  0.00  0.00    +0.000 A 
ATOM      2  C   UNL     1      46.087   8.522  13.160  0.00  0.00    +0.000 A 
ATOM      3  C   UNL     1      45.342   7.792  12.236  0.00  0.00    +0.000 A 
ATOM      4  C   UNL     1      45.828   6.577  11.737  0.00  0.00    +0.000 A 
ATOM      5  C   UNL     1      47.003   6.040  12.280  0.00  0.00    +0.000 A 
ATOM      6  C   UNL     1      47.745   6.768  13.215  0.00  0.00    +0.000 A 
ENDROOT
BRANCH   1   7
ATOM      7  C   UNL     1      48.206   8.931  14.449  0.00  0.00    +0.000 C 
BRANCH   7  10
ATOM      8  O   UNL     1      50.759   7.977  15.186  0.00  0.00    +0.000 OA
ATOM      9  C   UNL     1      49.836   7.914  15.992  0.00  0.00    +0.000 C 
ATOM     10  N   UNL     1      48.561   8.312  15.693  0.00  0.00    +0.000 N 
ATOM     11  H   UNL     1      47.878   8.398  16.436  0.00  0.00    +0.000 HD
BRANCH   9  12
ATOM     12  C   UNL     1      50.021   7.339  17.329  0.00  0.00    +0.000 A 
ATOM     13  C   UNL     1      50.784   8.011  18.273  0.00  0.00    +0.000 A 
ATOM     14  S   UNL     1      50.914   7.182  19.758  0.00  0.00    +0.000 S 
ATOM     15  C   UNL     1      49.912   5.922  19.205  0.00  0.00    +0.000 A 
ATOM     16  N   UNL     1      49.587   4.877  20.016  0.00  0.00    +0.000 NA
ATOM     17  C   UNL     1      48.780   4.019  19.485  0.00  0.00    +0.000 A 
ATOM     18  N   UNL     1      48.282   4.104  18.213  0.00  0.00    +0.000 N 
ATOM     19  C   UNL     1      48.645   5.089  17.333  0.00  0.00    +0.000 A 
ATOM     20  O   UNL     1      48.302   5.046  16.156  0.00  0.00    +0.000 OA
ATOM     21  C   UNL     1      49.507   6.114  17.899  0.00  0.00    +0.000 A 
ATOM     22  H   UNL     1      47.680   3.377  17.844  0.00  0.00    +0.000 HD
ENDBRANCH   9  12
ENDBRANCH   7  10
ENDBRANCH   1   7
BRANCH   4  23
ATOM     23  C   UNL     1      45.123   5.891  10.582  0.00  0.00    +0.000 C 
BRANCH  23  24
ATOM     24  N   UNL     1      45.009   4.416  10.757  0.00  0.00    +0.000 NA
BRANCH  24  25
ATOM     25  C   UNL     1      44.193   4.088  11.954  0.00  0.00    +0.000 C 
BRANCH  25  26
ATOM     26  C   UNL     1      42.831   4.805  12.035  0.00  0.00    +0.000 C 
BRANCH  26  27
ATOM     27  O   UNL     1      42.721   5.542  13.252  0.00  0.00    +0.000 OA
ATOM     28  H   UNL     1      43.282   6.332  13.161  0.00  0.00    +0.000 HD
ENDBRANCH  26  27
ENDBRANCH  25  26
ENDBRANCH  24  25
BRANCH  24  29
ATOM     29  C   UNL     1      44.391   3.828   9.544  0.00  0.00    +0.000 C 
BRANCH  29  30
ATOM     30  C   UNL     1      45.349   3.113   8.608  0.00  0.00    +0.000 A 
ATOM     31  C   UNL     1      46.057   3.826   7.641  0.00  0.00    +0.000 A 
ATOM     32  C   UNL     1      46.971   3.146   6.842  0.00  0.00    +0.000 A 
ATOM     33  C   UNL     1      47.153   1.781   7.028  0.00  0.00    +0.000 A 
ATOM     34  C   UNL     1      46.401   1.147   8.002  0.00  0.00    +0.000 A 
ATOM     35  N   UNL     1      45.507   1.778   8.792  0.00  0.00    +0.000 NA
ENDBRANCH  29  30
ENDBRANCH  24  29
ENDBRANCH  23  24
ENDBRANCH   4  23
TORSDOF 10
ENDMDL
MODEL 5
REMARK VINA RESULT:    -6.725      2.308      2.939
REMARK INTER + INTRA:         -12.233
REMARK INTER:                 -11.321
REMARK INTRA:                  -0.912
REMARK UNBOUND:                -1.773
REMARK  Name = 
REMARK  10 active torsions:
REMARK  status: ('A' for Active; 'I' for Inactive)
REMARK    1  A    between atoms: C_2  and  C_23
REMARK    2  A    between atoms: N_3  and  C_4
REMARK    3  A    between atoms: C_4  and  C_5
REMARK    4  A    between atoms: C_8  and  C_9
REMARK    5  A    between atoms: C_9  and  N_10
REMARK    6  A    between atoms: N_10  and  C_11
REMARK    7  A    between atoms: N_10  and  C_14
REMARK    8  A    between atoms: C_11  and  C_12
REMARK    9  A    between atoms: C_12  and  O_13
REMARK   10  A    between atoms: C_14  and  C_15
REMARK                            x       y       z     vdW  Elec       q    Type
REMARK                         _______ _______ _______ _____ _____    ______ ____
ROOT
ATOM      1  C   UNL     1      48.043   7.377  14.567  0.00  0.00    +0.000 A 
ATOM      2  C   UNL     1      47.325   8.241  13.732  0.00  0.00    +0.000 A 
ATOM      3  C   UNL     1      46.617   7.742  12.641  0.00  0.00    +0.000 A 
ATOM      4  C   UNL     1      46.621   6.369  12.362  0.00  0.00    +0.000 A 
ATOM      5  C   UNL     1      47.229   5.493  13.272  0.00  0.00    +0.000 A 
ATOM      6  C   UNL     1      47.929   5.994  14.373  0.00  0.00    +0.000 A 
ENDROOT
BRANCH   1   7
ATOM      7  C   UNL     1      48.953   7.943  15.623  0.00  0.00    +0.000 C 
BRANCH   7  10
ATOM      8  O   UNL     1      49.013   6.608  18.111  0.00  0.00    +0.000 OA
ATOM      9  C   UNL     1      49.870   6.355  17.270  0.00  0.00    +0.000 C 
ATOM     10  N   UNL     1      49.935   6.993  16.061  0.00  0.00    +0.000 N 
ATOM     11  H   UNL     1      50.550   6.635  15.340  0.00  0.00    +0.000 HD
BRANCH   9  12
ATOM     12  C   UNL     1      50.939   5.383  17.530  0.00  0.00    +0.000 A 
ATOM     13  C   UNL     1      52.182   5.819  17.964  0.00  0.00    +0.000 A 
ATOM     14  S   UNL     1      53.306   4.556  18.187  0.00  0.00    +0.000 S 
ATOM     15  C   UNL     1      52.153   3.380  17.757  0.00  0.00    +0.000 A 
ATOM     16  N   UNL     1      52.466   2.054  17.769  0.00  0.00    +0.000 NA
ATOM     17  C   UNL     1      51.483   1.271  17.470  0.00  0.00    +0.000 A 
ATOM     18  N   UNL     1      50.222   1.693  17.146  0.00  0.00    +0.000 N 
ATOM     19  C   UNL     1      49.883   3.017  17.040  0.00  0.00    +0.000 A 
ATOM     20  O   UNL     1      48.790   3.357  16.597  0.00  0.00    +0.000 OA
ATOM     21  C   UNL     1      50.936   3.941  17.422  0.00  0.00    +0.000 A 
ATOM     22  H   UNL     1      49.504   1.028  16.887  0.00  0.00    +0.000 HD
ENDBRANCH   9  12
ENDBRANCH   7  10
ENDBRANCH   1   7
BRANCH   4  23
ATOM     23  C   UNL     1      46.032   5.853  11.064  0.00  0.00    +0.000 C 
BRANCH  23  24
ATOM     24  N   UNL     1      44.919   4.884  11.268  0.00  0.00    +0.000 NA
BRANCH  24  25
ATOM     25  C   UNL     1      43.909   5.432  12.208  0.00  0.00    +0.000 C 
BRANCH  25  26
ATOM     26  C   UNL     1      42.445   5.319  11.737  0.00  0.00    +0.000 C 
BRANCH  26  27
ATOM     27  O   UNL     1      41.797   6.588  11.794  0.00  0.00    +0.000 OA
ATOM     28  H   UNL     1      41.013   6.535  11.219  0.00  0.00    +0.000 HD
ENDBRANCH  26  27
ENDBRANCH  25  26
ENDBRANCH  24  25
BRANCH  24  29
ATOM     29  C   UNL     1      44.287   4.584   9.960  0.00  0.00    +0.000 C 
BRANCH  29  30
ATOM     30  C   UNL     1      45.107   3.712   9.027  0.00  0.00    +0.000 A 
ATOM     31  C   UNL     1      45.833   4.282   7.981  0.00  0.00    +0.000 A 
ATOM     32  C   UNL     1      46.621   3.457   7.185  0.00  0.00    +0.000 A 
ATOM     33  C   UNL     1      46.662   2.094   7.450  0.00  0.00    +0.000 A 
ATOM     34  C   UNL     1      45.902   1.607   8.500  0.00  0.00    +0.000 A 
ATOM     35  N   UNL     1      45.128   2.381   9.290  0.00  0.00    +0.000 NA
ENDBRANCH  29  30
ENDBRANCH  24  29
ENDBRANCH  23  24
ENDBRANCH   4  23
TORSDOF 10
ENDMDL
MODEL 6
REMARK VINA RESULT:    -6.293      3.334      8.317
REMARK INTER + INTRA:         -11.562
REMARK INTER:                  -9.277
REMARK INTRA:                  -2.285
REMARK UNBOUND:                -1.773
REMARK  Name = 
REMARK  10 active torsions:
REMARK  status: ('A' for Active; 'I' for Inactive)
REMARK    1  A    between atoms: C_2  and  C_23
REMARK    2  A    between atoms: N_3  and  C_4
REMARK    3  A    between atoms: C_4  and  C_5
REMARK    4  A    between atoms: C_8  and  C_9
REMARK    5  A    between atoms: C_9  and  N_10
REMARK    6  A    between atoms: N_10  and  C_11
REMARK    7  A    between atoms: N_10  and  C_14
REMARK    8  A    between atoms: C_11  and  C_12
REMARK    9  A    between atoms: C_12  and  O_13
REMARK   10  A    between atoms: C_14  and  C_15
REMARK                            x       y       z     vdW  Elec       q    Type
REMARK                         _______ _______ _______ _____ _____    ______ ____
ROOT
ATOM      1  C   UNL     1      48.714   8.551  15.934  0.00  0.00    +0.000 A 
ATOM      2  C   UNL     1      47.988   9.203  16.938  0.00  0.00    +0.000 A 
ATOM      3  C   UNL     1      48.203   8.893  18.279  0.00  0.00    +0.000 A 
ATOM      4  C   UNL     1      49.146   7.921  18.639  0.00  0.00    +0.000 A 
ATOM      5  C   UNL     1      49.963   7.366  17.645  0.00  0.00    +0.000 A 
ATOM      6  C   UNL     1      49.754   7.686  16.300  0.00  0.00    +0.000 A 
ENDROOT
BRANCH   1   7
ATOM      7  C   UNL     1      48.341   8.753  14.490  0.00  0.00    +0.000 C 
BRANCH   7  10
ATOM      8  O   UNL     1      48.896   6.497  12.886  0.00  0.00    +0.000 OA
ATOM      9  C   UNL     1      47.752   6.684  13.289  0.00  0.00    +0.000 C 
ATOM     10  N   UNL     1      47.396   7.777  14.031  0.00  0.00    +0.000 N 
ATOM     11  H   UNL     1      46.488   7.802  14.479  0.00  0.00    +0.000 HD
BRANCH   9  12
ATOM     12  C   UNL     1      46.657   5.770  12.944  0.00  0.00    +0.000 A 
ATOM     13  C   UNL     1      46.753   4.423  13.259  0.00  0.00    +0.000 A 
ATOM     14  S   UNL     1      45.402   3.509  12.759  0.00  0.00    +0.000 S 
ATOM     15  C   UNL     1      44.622   4.894  12.150  0.00  0.00    +0.000 A 
ATOM     16  N   UNL     1      43.381   4.812  11.596  0.00  0.00    +0.000 NA
ATOM     17  C   UNL     1      42.887   5.946  11.220  0.00  0.00    +0.000 A 
ATOM     18  N   UNL     1      43.529   7.150  11.336  0.00  0.00    +0.000 N 
ATOM     19  C   UNL     1      44.810   7.271  11.809  0.00  0.00    +0.000 A 
ATOM     20  O   UNL     1      45.407   8.340  11.752  0.00  0.00    +0.000 OA
ATOM     21  C   UNL     1      45.390   6.032  12.299  0.00  0.00    +0.000 A 
ATOM     22  H   UNL     1      43.101   8.000  10.989  0.00  0.00    +0.000 HD
ENDBRANCH   9  12
ENDBRANCH   7  10
ENDBRANCH   1   7
BRANCH   4  23
ATOM     23  C   UNL     1      49.229   7.434  20.073  0.00  0.00    +0.000 C 
BRANCH  23  24
ATOM     24  N   UNL     1      49.731   6.037  20.190  0.00  0.00    +0.000 NA
BRANCH  24  25
ATOM     25  C   UNL     1      50.509   5.859  21.442  0.00  0.00    +0.000 C 
BRANCH  25  26
ATOM     26  C   UNL     1      51.542   4.715  21.415  0.00  0.00    +0.000 C 
BRANCH  26  27
ATOM     27  O   UNL     1      51.801   4.300  20.075  0.00  0.00    +0.000 OA
ATOM     28  H   UNL     1      52.765   4.341  19.943  0.00  0.00    +0.000 HD
ENDBRANCH  26  27
ENDBRANCH  25  26
ENDBRANCH  24  25
BRANCH  24  29
ATOM     29  C   UNL     1      48.580   5.102  20.170  0.00  0.00    +0.000 C 
BRANCH  29  30
ATOM     30  C   UNL     1      48.348   4.384  18.853  0.00  0.00    +0.000 A 
ATOM     31  C   UNL     1      47.272   4.731  18.037  0.00  0.00    +0.000 A 
ATOM     32  C   UNL     1      47.128   4.092  16.809  0.00  0.00    +0.000 A 
ATOM     33  C   UNL     1      48.055   3.129  16.431  0.00  0.00    +0.000 A 
ATOM     34  C   UNL     1      49.088   2.835  17.305  0.00  0.00    +0.000 A 
ATOM     35  N   UNL     1      49.254   3.436  18.502  0.00  0.00    +0.000 NA
ENDBRANCH  29  30
ENDBRANCH  24  29
ENDBRANCH  23  24
ENDBRANCH   4  23
TORSDOF 10
ENDMDL
MODEL 7
REMARK VINA RESULT:    -6.215      2.803      8.191
REMARK INTER + INTRA:         -11.441
REMARK INTER:                  -9.600
REMARK INTRA:                  -1.840
REMARK UNBOUND:                -1.773
REMARK  Name = 
REMARK  10 active torsions:
REMARK  status: ('A' for Active; 'I' for Inactive)
REMARK    1  A    between atoms: C_2  and  C_23
REMARK    2  A    between atoms: N_3  and  C_4
REMARK    3  A    between atoms: C_4  and  C_5
REMARK    4  A    between atoms: C_8  and  C_9
REMARK    5  A    between atoms: C_9  and  N_10
REMARK    6  A    between atoms: N_10  and  C_11
REMARK    7  A    between atoms: N_10  and  C_14
REMARK    8  A    between atoms: C_11  and  C_12
REMARK    9  A    between atoms: C_12  and  O_13
REMARK   10  A    between atoms: C_14  and  C_15
REMARK                            x       y       z     vdW  Elec       q    Type
REMARK                         _______ _______ _______ _____ _____    ______ ____
ROOT
ATOM      1  C   UNL     1      48.296   7.984  13.291  0.00  0.00    +0.000 A 
ATOM      2  C   UNL     1      47.773   9.029  14.061  0.00  0.00    +0.000 A 
ATOM      3  C   UNL     1      48.095   9.139  15.412  0.00  0.00    +0.000 A 
ATOM      4  C   UNL     1      48.943   8.203  16.018  0.00  0.00    +0.000 A 
ATOM      5  C   UNL     1      49.570   7.238  15.218  0.00  0.00    +0.000 A 
ATOM      6  C   UNL     1      49.255   7.134  13.860  0.00  0.00    +0.000 A 
ENDROOT
BRANCH   1   7
ATOM      7  C   UNL     1      47.795   7.764  11.890  0.00  0.00    +0.000 C 
BRANCH   7  10
ATOM      8  O   UNL     1      44.976   7.600  11.882  0.00  0.00    +0.000 OA
ATOM      9  C   UNL     1      45.640   6.578  11.736  0.00  0.00    +0.000 C 
ATOM     10  N   UNL     1      47.008   6.570  11.775  0.00  0.00    +0.000 N 
ATOM     11  H   UNL     1      47.511   5.740  11.484  0.00  0.00    +0.000 HD
BRANCH   9  12
ATOM     12  C   UNL     1      45.005   5.266  11.572  0.00  0.00    +0.000 A 
ATOM     13  C   UNL     1      44.301   4.699  12.625  0.00  0.00    +0.000 A 
ATOM     14  S   UNL     1      43.657   3.162  12.264  0.00  0.00    +0.000 S 
ATOM     15  C   UNL     1      44.255   3.225  10.671  0.00  0.00    +0.000 A 
ATOM     16  N   UNL     1      44.022   2.209   9.794  0.00  0.00    +0.000 NA
ATOM     17  C   UNL     1      44.490   2.410   8.607  0.00  0.00    +0.000 A 
ATOM     18  N   UNL     1      45.182   3.527   8.222  0.00  0.00    +0.000 N 
ATOM     19  C   UNL     1      45.512   4.536   9.089  0.00  0.00    +0.000 A 
ATOM     20  O   UNL     1      46.263   5.444   8.748  0.00  0.00    +0.000 OA
ATOM     21  C   UNL     1      44.960   4.387  10.425  0.00  0.00    +0.000 A 
ATOM     22  H   UNL     1      45.553   3.608   7.283  0.00  0.00    +0.000 HD
ENDBRANCH   9  12
ENDBRANCH   7  10
ENDBRANCH   1   7
BRANCH   4  23
ATOM     23  C   UNL     1      49.123   8.199  17.523  0.00  0.00    +0.000 C 
BRANCH  23  24
ATOM     24  N   UNL     1      49.763   6.955  18.035  0.00  0.00    +0.000 NA
BRANCH  24  25
ATOM     25  C   UNL     1      50.616   7.247  19.214  0.00  0.00    +0.000 C 
BRANCH  25  26
ATOM     26  C   UNL     1      52.098   6.850  19.066  0.00  0.00    +0.000 C 
BRANCH  26  27
ATOM     27  O   UNL     1      52.291   6.044  17.905  0.00  0.00    +0.000 OA
ATOM     28  H   UNL     1      53.168   5.630  17.987  0.00  0.00    +0.000 HD
ENDBRANCH  26  27
ENDBRANCH  25  26
ENDBRANCH  24  25
BRANCH  24  29
ATOM     29  C   UNL     1      48.708   5.978  18.399  0.00  0.00    +0.000 C 
BRANCH  29  30
ATOM     30  C   UNL     1      48.875   4.590  17.808  0.00  0.00    +0.000 A 
ATOM     31  C   UNL     1      47.855   4.015  17.051  0.00  0.00    +0.000 A 
ATOM     32  C   UNL     1      48.070   2.766  16.476  0.00  0.00    +0.000 A 
ATOM     33  C   UNL     1      49.288   2.129  16.670  0.00  0.00    +0.000 A 
ATOM     34  C   UNL     1      50.244   2.763  17.445  0.00  0.00    +0.000 A 
ATOM     35  N   UNL     1      50.066   3.973  18.017  0.00  0.00    +0.000 NA
ENDBRANCH  29  30
ENDBRANCH  24  29
ENDBRANCH  23  24
ENDBRANCH   4  23
TORSDOF 10
ENDMDL
MODEL 8
REMARK VINA RESULT:    -6.146      2.927      8.394
REMARK INTER + INTRA:         -11.332
REMARK INTER:                  -9.689
REMARK INTRA:                  -1.644
REMARK UNBOUND:                -1.773
REMARK  Name = 
REMARK  10 active torsions:
REMARK  status: ('A' for Active; 'I' for Inactive)
REMARK    1  A    between atoms: C_2  and  C_23
REMARK    2  A    between atoms: N_3  and  C_4
REMARK    3  A    between atoms: C_4  and  C_5
REMARK    4  A    between atoms: C_8  and  C_9
REMARK    5  A    between atoms: C_9  and  N_10
REMARK    6  A    between atoms: N_10  and  C_11
REMARK    7  A    between atoms: N_10  and  C_14
REMARK    8  A    between atoms: C_11  and  C_12
REMARK    9  A    between atoms: C_12  and  O_13
REMARK   10  A    between atoms: C_14  and  C_15
REMARK                            x       y       z     vdW  Elec       q    Type
REMARK                         _______ _______ _______ _____ _____    ______ ____
ROOT
ATOM      1  C   UNL     1      48.707   7.772  13.129  0.00  0.00    +0.000 A 
ATOM      2  C   UNL     1      48.100   7.333  14.312  0.00  0.00    +0.000 A 
ATOM      3  C   UNL     1      48.846   7.198  15.480  0.00  0.00    +0.000 A 
ATOM      4  C   UNL     1      50.215   7.496  15.485  0.00  0.00    +0.000 A 
ATOM      5  C   UNL     1      50.791   8.061  14.340  0.00  0.00    +0.000 A 
ATOM      6  C   UNL     1      50.039   8.206  13.170  0.00  0.00    +0.000 A 
ENDROOT
BRANCH   1   7
ATOM      7  C   UNL     1      47.941   7.732  11.835  0.00  0.00    +0.000 C 
BRANCH   7  10
ATOM      8  O   UNL     1      45.121   7.614  11.931  0.00  0.00    +0.000 OA
ATOM      9  C   UNL     1      45.762   6.586  11.733  0.00  0.00    +0.000 C 
ATOM     10  N   UNL     1      47.130   6.555  11.720  0.00  0.00    +0.000 N 
ATOM     11  H   UNL     1      47.607   5.725  11.388  0.00  0.00    +0.000 HD
BRANCH   9  12
ATOM     12  C   UNL     1      45.099   5.289  11.560  0.00  0.00    +0.000 A 
ATOM     13  C   UNL     1      44.405   4.717  12.617  0.00  0.00    +0.000 A 
ATOM     14  S   UNL     1      43.725   3.198  12.242  0.00  0.00    +0.000 S 
ATOM     15  C   UNL     1      44.292   3.279  10.639  0.00  0.00    +0.000 A 
ATOM     16  N   UNL     1      44.023   2.282   9.750  0.00  0.00    +0.000 NA
ATOM     17  C   UNL     1      44.471   2.496   8.557  0.00  0.00    +0.000 A 
ATOM     18  N   UNL     1      45.175   3.607   8.177  0.00  0.00    +0.000 N 
ATOM     19  C   UNL     1      45.542   4.594   9.055  0.00  0.00    +0.000 A 
ATOM     20  O   UNL     1      46.303   5.493   8.714  0.00  0.00    +0.000 OA
ATOM     21  C   UNL     1      45.014   4.431  10.399  0.00  0.00    +0.000 A 
ATOM     22  H   UNL     1      45.529   3.697   7.233  0.00  0.00    +0.000 HD
ENDBRANCH   9  12
ENDBRANCH   7  10
ENDBRANCH   1   7
BRANCH   4  23
ATOM     23  C   UNL     1      51.066   7.149  16.691  0.00  0.00    +0.000 C 
BRANCH  23  24
ATOM     24  N   UNL     1      51.594   5.757  16.656  0.00  0.00    +0.000 NA
BRANCH  24  25
ATOM     25  C   UNL     1      53.079   5.755  16.678  0.00  0.00    +0.000 C 
BRANCH  25  26
ATOM     26  C   UNL     1      53.715   5.964  18.066  0.00  0.00    +0.000 C 
BRANCH  26  27
ATOM     27  O   UNL     1      54.385   7.222  18.130  0.00  0.00    +0.000 OA
ATOM     28  H   UNL     1      55.270   7.095  17.745  0.00  0.00    +0.000 HD
ENDBRANCH  26  27
ENDBRANCH  25  26
ENDBRANCH  24  25
BRANCH  24  29
ATOM     29  C   UNL     1      51.068   5.006  17.822  0.00  0.00    +0.000 C 
BRANCH  29  30
ATOM     30  C   UNL     1      49.681   4.417  17.644  0.00  0.00    +0.000 A 
ATOM     31  C   UNL     1      48.579   4.997  18.274  0.00  0.00    +0.000 A 
ATOM     32  C   UNL     1      47.316   4.465  18.037  0.00  0.00    +0.000 A 
ATOM     33  C   UNL     1      47.185   3.376  17.186  0.00  0.00    +0.000 A 
ATOM     34  C   UNL     1      48.330   2.853  16.610  0.00  0.00    +0.000 A 
ATOM     35  N   UNL     1      49.569   3.345  16.820  0.00  0.00    +0.000 NA
ENDBRANCH  29  30
ENDBRANCH  24  29
ENDBRANCH  23  24
ENDBRANCH   4  23
TORSDOF 10
ENDMDL
MODEL 9
REMARK VINA RESULT:    -6.021      3.580      9.023
REMARK INTER + INTRA:         -11.138
REMARK INTER:                  -9.329
REMARK INTRA:                  -1.809
REMARK UNBOUND:                -1.773
REMARK  Name = 
REMARK  10 active torsions:
REMARK  status: ('A' for Active; 'I' for Inactive)
REMARK    1  A    between atoms: C_2  and  C_23
REMARK    2  A    between atoms: N_3  and  C_4
REMARK    3  A    between atoms: C_4  and  C_5
REMARK    4  A    between atoms: C_8  and  C_9
REMARK    5  A    between atoms: C_9  and  N_10
REMARK    6  A    between atoms: N_10  and  C_11
REMARK    7  A    between atoms: N_10  and  C_14
REMARK    8  A    between atoms: C_11  and  C_12
REMARK    9  A    between atoms: C_12  and  O_13
REMARK   10  A    between atoms: C_14  and  C_15
REMARK                            x       y       z     vdW  Elec       q    Type
REMARK                         _______ _______ _______ _____ _____    ______ ____
ROOT
ATOM      1  C   UNL     1      47.642   4.316  17.950  0.00  0.00    +0.000 A 
ATOM      2  C   UNL     1      48.860   3.952  18.535  0.00  0.00    +0.000 A 
ATOM      3  C   UNL     1      49.400   4.710  19.572  0.00  0.00    +0.000 A 
ATOM      4  C   UNL     1      48.731   5.850  20.038  0.00  0.00    +0.000 A 
ATOM      5  C   UNL     1      47.451   6.136  19.544  0.00  0.00    +0.000 A 
ATOM      6  C   UNL     1      46.906   5.369  18.511  0.00  0.00    +0.000 A 
ENDROOT
BRANCH   1   7
ATOM      7  C   UNL     1      47.166   3.606  16.711  0.00  0.00    +0.000 C 
BRANCH   7  10
ATOM      8  O   UNL     1      47.205   3.211  13.916  0.00  0.00    +0.000 OA
ATOM      9  C   UNL     1      46.704   4.233  14.373  0.00  0.00    +0.000 C 
ATOM     10  N   UNL     1      46.688   4.518  15.712  0.00  0.00    +0.000 N 
ATOM     11  H   UNL     1      46.119   5.283  16.053  0.00  0.00    +0.000 HD
BRANCH   9  12
ATOM     12  C   UNL     1      46.135   5.267  13.501  0.00  0.00    +0.000 A 
ATOM     13  C   UNL     1      46.878   6.395  13.187  0.00  0.00    +0.000 A 
ATOM     14  S   UNL     1      46.048   7.500  12.187  0.00  0.00    +0.000 S 
ATOM     15  C   UNL     1      44.686   6.483  12.101  0.00  0.00    +0.000 A 
ATOM     16  N   UNL     1      43.597   6.831  11.359  0.00  0.00    +0.000 NA
ATOM     17  C   UNL     1      42.657   5.944  11.342  0.00  0.00    +0.000 A 
ATOM     18  N   UNL     1      42.702   4.750  12.011  0.00  0.00    +0.000 N 
ATOM     19  C   UNL     1      43.737   4.394  12.835  0.00  0.00    +0.000 A 
ATOM     20  O   UNL     1      43.672   3.391  13.537  0.00  0.00    +0.000 OA
ATOM     21  C   UNL     1      44.848   5.331  12.845  0.00  0.00    +0.000 A 
ATOM     22  H   UNL     1      41.914   4.113  11.985  0.00  0.00    +0.000 HD
ENDBRANCH   9  12
ENDBRANCH   7  10
ENDBRANCH   1   7
BRANCH   4  23
ATOM     23  C   UNL     1      49.415   6.788  21.013  0.00  0.00    +0.000 C 
BRANCH  23  24
ATOM     24  N   UNL     1      49.408   8.209  20.564  0.00  0.00    +0.000 NA
BRANCH  24  25
ATOM     25  C   UNL     1      49.579   9.128  21.717  0.00  0.00    +0.000 C 
BRANCH  25  26
ATOM     26  C   UNL     1      48.407  10.100  21.960  0.00  0.00    +0.000 C 
BRANCH  26  27
ATOM     27  O   UNL     1      47.198   9.581  21.409  0.00  0.00    +0.000 OA
ATOM     28  H   UNL     1      46.848   8.933  22.046  0.00  0.00    +0.000 HD
ENDBRANCH  26  27
ENDBRANCH  25  26
ENDBRANCH  24  25
BRANCH  24  29
ATOM     29  C   UNL     1      50.500   8.415  19.582  0.00  0.00    +0.000 C 
BRANCH  29  30
ATOM     30  C   UNL     1      50.205   7.938  18.171  0.00  0.00    +0.000 A 
ATOM     31  C   UNL     1      49.099   8.426  17.476  0.00  0.00    +0.000 A 
ATOM     32  C   UNL     1      48.897   8.011  16.163  0.00  0.00    +0.000 A 
ATOM     33  C   UNL     1      49.797   7.127  15.583  0.00  0.00    +0.000 A 
ATOM     34  C   UNL     1      50.863   6.682  16.346  0.00  0.00    +0.000 A 
ATOM     35  N   UNL     1      51.086   7.064  17.622  0.00  0.00    +0.000 NA
ENDBRANCH  29  30
ENDBRANCH  24  29
ENDBRANCH  23  24
ENDBRANCH   4  23
TORSDOF 10
ENDMDL
