MODEL 1
REMARK VINA RESULT:    -8.672      0.000      0.000
REMARK INTER + INTRA:         -13.338
REMARK INTER:                 -12.221
REMARK INTRA:                  -1.118
REMARK UNBOUND:                -1.118
REMARK  Name = 
REMARK  8 active torsions:
REMARK  status: ('A' for Active; 'I' for Inactive)
REMARK    1  A    between atoms: C_1  and  C_2
REMARK    2  A    between atoms: C_10  and  C_11
REMARK    3  A    between atoms: N_13  and  C_14
REMARK    4  A    between atoms: C_14  and  C_15
REMARK    5  A    between atoms: C_18  and  C_19
REMARK    6  A    between atoms: C_19  and  C_20
REMARK    7  A    between atoms: C_20  and  C_21
REMARK    8  A    between atoms: C_21  and  C_22
REMARK                            x       y       z     vdW  Elec       q    Type
REMARK                         _______ _______ _______ _____ _____    ______ ____
ROOT
ATOM      1  C   UNL     1      47.754   6.302  14.297  0.00  0.00    +0.000 C 
ENDROOT
BRANCH   1   2
ATOM      2  C   UNL     1      46.720   5.705  13.380  0.00  0.00    +0.000 A 
ATOM      3  C   UNL     1      46.404   4.343  13.475  0.00  0.00    +0.000 A 
ATOM      4  C   UNL     1      45.456   3.771  12.622  0.00  0.00    +0.000 A 
ATOM      5  C   UNL     1      44.801   4.548  11.655  0.00  0.00    +0.000 A 
ATOM      6  C   UNL     1      45.138   5.902  11.545  0.00  0.00    +0.000 A 
ATOM      7  C   UNL     1      46.083   6.477  12.401  0.00  0.00    +0.000 A 
BRANCH   5   8
ATOM      8  C   UNL     1      43.733   3.953  10.762  0.00  0.00    +0.000 C 
BRANCH   8   9
ATOM      9  C   UNL     1      44.340   3.035   9.696  0.00  0.00    +0.000 C 
BRANCH   9  10
ATOM     10  C   UNL     1      44.882   3.802   8.488  0.00  0.00    +0.000 C 
BRANCH  10  11
ATOM     11  C   UNL     1      45.870   2.952   7.724  0.00  0.00    +0.000 A 
ATOM     12  C   UNL     1      46.430   3.397   6.519  0.00  0.00    +0.000 A 
ATOM     13  C   UNL     1      47.286   2.568   5.787  0.00  0.00    +0.000 A 
ATOM     14  C   UNL     1      47.584   1.287   6.251  0.00  0.00    +0.000 A 
ATOM     15  C   UNL     1      47.035   0.837   7.448  0.00  0.00    +0.000 A 
ATOM     16  C   UNL     1      46.187   1.665   8.183  0.00  0.00    +0.000 A 
ENDBRANCH  10  11
ENDBRANCH   9  10
ENDBRANCH   8   9
ENDBRANCH   5   8
ENDBRANCH   1   2
BRANCH   1  19
ATOM     17  C   UNL     1      48.923   5.600  16.328  0.00  0.00    +0.000 C 
ATOM     18  O   UNL     1      49.962   6.150  15.967  0.00  0.00    +0.000 OA
ATOM     19  N   UNL     1      47.783   5.610  15.566  0.00  0.00    +0.000 N 
ATOM     20  H   UNL     1      46.904   5.425  16.029  0.00  0.00    +0.000 HD
BRANCH  17  30
ATOM     21  C   UNL     1      48.762   2.451  16.776  0.00  0.00    +0.000 C 
ATOM     22  C   UNL     1      48.708   3.545  17.781  0.00  0.00    +0.000 A 
ATOM     23  N   UNL     1      48.556   3.276  19.119  0.00  0.00    +0.000 N 
ATOM     24  C   UNL     1      48.545   4.435  19.834  0.00  0.00    +0.000 A 
ATOM     25  N   UNL     1      48.398   4.484  21.170  0.00  0.00    +0.000 NA
ATOM     26  C   UNL     1      48.405   5.744  21.655  0.00  0.00    +0.000 A 
ATOM     27  C   UNL     1      48.548   6.897  20.901  0.00  0.00    +0.000 A 
ATOM     28  C   UNL     1      48.696   6.788  19.515  0.00  0.00    +0.000 A 
ATOM     29  C   UNL     1      48.700   5.499  18.947  0.00  0.00    +0.000 A 
ATOM     30  C   UNL     1      48.796   4.928  17.626  0.00  0.00    +0.000 A 
ATOM     31  H   UNL     1      48.457   2.365  19.540  0.00  0.00    +0.000 HD
ENDBRANCH  17  30
ENDBRANCH   1  19
TORSDOF 7
ENDMDL
MODEL 2
REMARK VINA RESULT:    -7.962      1.472      2.635
REMARK INTER + INTRA:         -12.338
REMARK INTER:                 -11.241
REMARK INTRA:                  -1.097
REMARK UNBOUND:                -1.118
REMARK  Name = 
REMARK  8 active torsions:
REMARK  status: ('A' for Active; 'I' for Inactive)
REMARK    1  A    between atoms: C_1  and  C_2
REMARK    2  A    between atoms: C_10  and  C_11
REMARK    3  A    between atoms: N_13  and  C_14
REMARK    4  A    between atoms: C_14  and  C_15
REMARK    5  A    between atoms: C_18  and  C_19
REMARK    6  A    between atoms: C_19  and  C_20
REMARK    7  A    between atoms: C_20  and  C_21
REMARK    8  A    between atoms: C_21  and  C_22
REMARK                            x       y       z     vdW  Elec       q    Type
REMARK                         _______ _______ _______ _____ _____    ______ ____
ROOT
ATOM      1  C   UNL     1      46.869   7.811  13.145  0.00  0.00    +0.000 C 
ENDROOT
BRANCH   1   2
ATOM      2  C   UNL     1      46.027   6.728  12.523  0.00  0.00    +0.000 A 
ATOM      3  C   UNL     1      46.245   5.388  12.867  0.00  0.00    +0.000 A 
ATOM      4  C   UNL     1      45.481   4.370  12.288  0.00  0.00    +0.000 A 
ATOM      5  C   UNL     1      44.481   4.671  11.352  0.00  0.00    +0.000 A 
ATOM      6  C   UNL     1      44.283   6.008  10.990  0.00  0.00    +0.000 A 
ATOM      7  C   UNL     1      45.043   7.028  11.572  0.00  0.00    +0.000 A 
BRANCH   5   8
ATOM      8  C   UNL     1      43.610   3.584  10.758  0.00  0.00    +0.000 C 
BRANCH   8   9
ATOM      9  C   UNL     1      44.366   2.774   9.700  0.00  0.00    +0.000 C 
BRANCH   9  10
ATOM     10  C   UNL     1      44.919   3.644   8.568  0.00  0.00    +0.000 C 
BRANCH  10  11
ATOM     11  C   UNL     1      45.852   2.840   7.693  0.00  0.00    +0.000 A 
ATOM     12  C   UNL     1      46.271   1.556   8.068  0.00  0.00    +0.000 A 
ATOM     13  C   UNL     1      47.193   0.855   7.284  0.00  0.00    +0.000 A 
ATOM     14  C   UNL     1      47.707   1.434   6.125  0.00  0.00    +0.000 A 
ATOM     15  C   UNL     1      47.295   2.707   5.742  0.00  0.00    +0.000 A 
ATOM     16  C   UNL     1      46.370   3.405   6.519  0.00  0.00    +0.000 A 
ENDBRANCH  10  11
ENDBRANCH   9  10
ENDBRANCH   8   9
ENDBRANCH   5   8
ENDBRANCH   1   2
BRANCH   1  19
ATOM     17  C   UNL     1      48.696   6.936  14.517  0.00  0.00    +0.000 C 
ATOM     18  O   UNL     1      49.441   6.858  13.543  0.00  0.00    +0.000 OA
ATOM     19  N   UNL     1      47.403   7.384  14.419  0.00  0.00    +0.000 N 
ATOM     20  H   UNL     1      46.952   7.715  15.261  0.00  0.00    +0.000 HD
BRANCH  17  30
ATOM     21  C   UNL     1      50.778   8.611  16.249  0.00  0.00    +0.000 C 
ATOM     22  C   UNL     1      50.067   7.352  16.597  0.00  0.00    +0.000 A 
ATOM     23  N   UNL     1      50.270   6.731  17.804  0.00  0.00    +0.000 N 
ATOM     24  C   UNL     1      49.502   5.608  17.890  0.00  0.00    +0.000 A 
ATOM     25  N   UNL     1      49.502   4.787  18.956  0.00  0.00    +0.000 NA
ATOM     26  C   UNL     1      48.671   3.734  18.807  0.00  0.00    +0.000 A 
ATOM     27  C   UNL     1      47.880   3.479  17.699  0.00  0.00    +0.000 A 
ATOM     28  C   UNL     1      47.922   4.366  16.618  0.00  0.00    +0.000 A 
ATOM     29  C   UNL     1      48.768   5.489  16.712  0.00  0.00    +0.000 A 
ATOM     30  C   UNL     1      49.136   6.605  15.877  0.00  0.00    +0.000 A 
ATOM     31  H   UNL     1      50.895   7.031  18.536  0.00  0.00    +0.000 HD
ENDBRANCH  17  30
ENDBRANCH   1  19
TORSDOF 7
ENDMDL
MODEL 3
REMARK VINA RESULT:    -7.867      1.657      2.262
REMARK INTER + INTRA:         -12.204
REMARK INTER:                 -11.224
REMARK INTRA:                  -0.980
REMARK UNBOUND:                -1.118
REMARK  Name = 
REMARK  8 active torsions:
REMARK  status: ('A' for Active; 'I' for Inactive)
REMARK    1  A    between atoms: C_1  and  C_2
REMARK    2  A    between atoms: C_10  and  C_11
REMARK    3  A    between atoms: N_13  and  C_14
REMARK    4  A    between atoms: C_14  and  C_15
REMARK    5  A    between atoms: C_18  and  C_19
REMARK    6  A    between atoms: C_19  and  C_20
REMARK    7  A    between atoms: C_20  and  C_21
REMARK    8  A    between atoms: C_21  and  C_22
REMARK                            x       y       z     vdW  Elec       q    Type
REMARK                         _______ _______ _______ _____ _____    ______ ____
ROOT
ATOM      1  C   UNL     1      48.392   6.548  13.941  0.00  0.00    +0.000 C 
ENDROOT
BRANCH   1   2
ATOM      2  C   UNL     1      47.216   5.959  13.207  0.00  0.00    +0.000 A 
ATOM      3  C   UNL     1      46.588   6.692  12.191  0.00  0.00    +0.000 A 
ATOM      4  C   UNL     1      45.487   6.165  11.510  0.00  0.00    +0.000 A 
ATOM      5  C   UNL     1      44.989   4.893  11.829  0.00  0.00    +0.000 A 
ATOM      6  C   UNL     1      45.601   4.176  12.862  0.00  0.00    +0.000 A 
ATOM      7  C   UNL     1      46.706   4.698  13.541  0.00  0.00    +0.000 A 
BRANCH   5   8
ATOM      8  C   UNL     1      43.832   4.289  11.062  0.00  0.00    +0.000 C 
BRANCH   8   9
ATOM      9  C   UNL     1      44.312   3.239  10.055  0.00  0.00    +0.000 C 
BRANCH   9  10
ATOM     10  C   UNL     1      44.698   3.845   8.703  0.00  0.00    +0.000 C 
BRANCH  10  11
ATOM     11  C   UNL     1      45.748   2.995   8.026  0.00  0.00    +0.000 A 
ATOM     12  C   UNL     1      46.543   3.512   6.994  0.00  0.00    +0.000 A 
ATOM     13  C   UNL     1      47.459   2.691   6.328  0.00  0.00    +0.000 A 
ATOM     14  C   UNL     1      47.583   1.349   6.684  0.00  0.00    +0.000 A 
ATOM     15  C   UNL     1      46.800   0.827   7.710  0.00  0.00    +0.000 A 
ATOM     16  C   UNL     1      45.891   1.646   8.380  0.00  0.00    +0.000 A 
ENDBRANCH  10  11
ENDBRANCH   9  10
ENDBRANCH   8   9
ENDBRANCH   5   8
ENDBRANCH   1   2
BRANCH   1  19
ATOM     17  C   UNL     1      48.820   6.276  16.334  0.00  0.00    +0.000 C 
ATOM     18  O   UNL     1      49.785   5.545  16.118  0.00  0.00    +0.000 OA
ATOM     19  N   UNL     1      48.061   6.810  15.324  0.00  0.00    +0.000 N 
ATOM     20  H   UNL     1      47.499   7.622  15.534  0.00  0.00    +0.000 HD
BRANCH  17  30
ATOM     21  C   UNL     1      48.500   4.325  18.831  0.00  0.00    +0.000 C 
ATOM     22  C   UNL     1      48.274   5.793  18.753  0.00  0.00    +0.000 A 
ATOM     23  N   UNL     1      47.856   6.508  19.847  0.00  0.00    +0.000 N 
ATOM     24  C   UNL     1      47.731   7.826  19.527  0.00  0.00    +0.000 A 
ATOM     25  N   UNL     1      47.324   8.767  20.398  0.00  0.00    +0.000 NA
ATOM     26  C   UNL     1      47.265  10.000  19.851  0.00  0.00    +0.000 A 
ATOM     27  C   UNL     1      47.580  10.317  18.540  0.00  0.00    +0.000 A 
ATOM     28  C   UNL     1      47.996   9.298  17.677  0.00  0.00    +0.000 A 
ATOM     29  C   UNL     1      48.082   7.988  18.188  0.00  0.00    +0.000 A 
ATOM     30  C   UNL     1      48.424   6.680  17.687  0.00  0.00    +0.000 A 
ATOM     31  H   UNL     1      47.654   6.139  20.763  0.00  0.00    +0.000 HD
ENDBRANCH  17  30
ENDBRANCH   1  19
TORSDOF 7
ENDMDL
MODEL 4
REMARK VINA RESULT:    -7.753      3.650      9.329
REMARK INTER + INTRA:         -12.044
REMARK INTER:                 -10.388
REMARK INTRA:                  -1.655
REMARK UNBOUND:                -1.118
REMARK  Name = 
REMARK  8 active torsions:
REMARK  status: ('A' for Active; 'I' for Inactive)
REMARK    1  A    between atoms: C_1  and  C_2
REMARK    2  A    between atoms: C_10  and  C_11
REMARK    3  A    between atoms: N_13  and  C_14
REMARK    4  A    between atoms: C_14  and  C_15
REMARK    5  A    between atoms: C_18  and  C_19
REMARK    6  A    between atoms: C_19  and  C_20
REMARK    7  A    between atoms: C_20  and  C_21
REMARK    8  A    between atoms: C_21  and  C_22
REMARK                            x       y       z     vdW  Elec       q    Type
REMARK                         _______ _______ _______ _____ _____    ______ ____
ROOT
ATOM      1  C   UNL     1      45.502   7.277  11.687  0.00  0.00    +0.000 C 
ENDROOT
BRANCH   1   2
ATOM      2  C   UNL     1      46.702   7.578  12.545  0.00  0.00    +0.000 A 
ATOM      3  C   UNL     1      47.876   6.827  12.396  0.00  0.00    +0.000 A 
ATOM      4  C   UNL     1      48.994   7.086  13.194  0.00  0.00    +0.000 A 
ATOM      5  C   UNL     1      48.964   8.104  14.160  0.00  0.00    +0.000 A 
ATOM      6  C   UNL     1      47.782   8.834  14.325  0.00  0.00    +0.000 A 
ATOM      7  C   UNL     1      46.664   8.580  13.523  0.00  0.00    +0.000 A 
BRANCH   5   8
ATOM      8  C   UNL     1      50.184   8.430  14.993  0.00  0.00    +0.000 C 
BRANCH   8   9
ATOM      9  C   UNL     1      50.582   7.255  15.891  0.00  0.00    +0.000 C 
BRANCH   9  10
ATOM     10  C   UNL     1      49.520   6.923  16.942  0.00  0.00    +0.000 C 
BRANCH  10  11
ATOM     11  C   UNL     1      49.157   5.458  16.879  0.00  0.00    +0.000 A 
ATOM     12  C   UNL     1      47.961   5.032  16.286  0.00  0.00    +0.000 A 
ATOM     13  C   UNL     1      47.605   3.679  16.302  0.00  0.00    +0.000 A 
ATOM     14  C   UNL     1      48.438   2.745  16.916  0.00  0.00    +0.000 A 
ATOM     15  C   UNL     1      49.630   3.157  17.505  0.00  0.00    +0.000 A 
ATOM     16  C   UNL     1      49.990   4.505  17.483  0.00  0.00    +0.000 A 
ENDBRANCH  10  11
ENDBRANCH   9  10
ENDBRANCH   8   9
ENDBRANCH   5   8
ENDBRANCH   1   2
BRANCH   1  19
ATOM     17  C   UNL     1      44.444   5.309  10.690  0.00  0.00    +0.000 C 
ATOM     18  O   UNL     1      43.334   5.837  10.733  0.00  0.00    +0.000 OA
ATOM     19  N   UNL     1      45.574   5.937  11.149  0.00  0.00    +0.000 N 
ATOM     20  H   UNL     1      46.468   5.603  10.816  0.00  0.00    +0.000 HD
BRANCH  17  30
ATOM     21  C   UNL     1      43.275   2.566  11.808  0.00  0.00    +0.000 C 
ATOM     22  C   UNL     1      44.153   2.801  10.631  0.00  0.00    +0.000 A 
ATOM     23  N   UNL     1      44.594   1.760   9.852  0.00  0.00    +0.000 N 
ATOM     24  C   UNL     1      45.371   2.228   8.836  0.00  0.00    +0.000 A 
ATOM     25  N   UNL     1      45.954   1.435   7.919  0.00  0.00    +0.000 NA
ATOM     26  C   UNL     1      46.687   2.124   7.018  0.00  0.00    +0.000 A 
ATOM     27  C   UNL     1      46.852   3.499   6.995  0.00  0.00    +0.000 A 
ATOM     28  C   UNL     1      46.225   4.275   7.974  0.00  0.00    +0.000 A 
ATOM     29  C   UNL     1      45.442   3.616   8.943  0.00  0.00    +0.000 A 
ATOM     30  C   UNL     1      44.666   3.984  10.101  0.00  0.00    +0.000 A 
ATOM     31  H   UNL     1      44.395   0.781   9.991  0.00  0.00    +0.000 HD
ENDBRANCH  17  30
ENDBRANCH   1  19
TORSDOF 7
ENDMDL
MODEL 5
REMARK VINA RESULT:    -7.652      1.671      2.518
REMARK INTER + INTRA:         -11.901
REMARK INTER:                 -10.637
REMARK INTRA:                  -1.265
REMARK UNBOUND:                -1.118
REMARK  Name = 
REMARK  8 active torsions:
REMARK  status: ('A' for Active; 'I' for Inactive)
REMARK    1  A    between atoms: C_1  and  C_2
REMARK    2  A    between atoms: C_10  and  C_11
REMARK    3  A    between atoms: N_13  and  C_14
REMARK    4  A    between atoms: C_14  and  C_15
REMARK    5  A    between atoms: C_18  and  C_19
REMARK    6  A    between atoms: C_19  and  C_20
REMARK    7  A    between atoms: C_20  and  C_21
REMARK    8  A    between atoms: C_21  and  C_22
REMARK                            x       y       z     vdW  Elec       q    Type
REMARK                         _______ _______ _______ _____ _____    ______ ____
ROOT
ATOM      1  C   UNL     1      47.823   4.410  14.902  0.00  0.00    +0.000 C 
ENDROOT
BRANCH   1   2
ATOM      2  C   UNL     1      46.793   4.526  13.810  0.00  0.00    +0.000 A 
ATOM      3  C   UNL     1      46.257   3.369  13.228  0.00  0.00    +0.000 A 
ATOM      4  C   UNL     1      45.309   3.460  12.204  0.00  0.00    +0.000 A 
ATOM      5  C   UNL     1      44.876   4.711  11.739  0.00  0.00    +0.000 A 
ATOM      6  C   UNL     1      45.433   5.864  12.303  0.00  0.00    +0.000 A 
ATOM      7  C   UNL     1      46.377   5.775  13.331  0.00  0.00    +0.000 A 
BRANCH   5   8
ATOM      8  C   UNL     1      43.811   4.823  10.669  0.00  0.00    +0.000 C 
BRANCH   8   9
ATOM      9  C   UNL     1      44.095   3.883   9.493  0.00  0.00    +0.000 C 
BRANCH   9  10
ATOM     10  C   UNL     1      45.199   4.403   8.569  0.00  0.00    +0.000 C 
BRANCH  10  11
ATOM     11  C   UNL     1      45.924   3.250   7.914  0.00  0.00    +0.000 A 
ATOM     12  C   UNL     1      45.841   1.951   8.434  0.00  0.00    +0.000 A 
ATOM     13  C   UNL     1      46.576   0.910   7.859  0.00  0.00    +0.000 A 
ATOM     14  C   UNL     1      47.403   1.159   6.765  0.00  0.00    +0.000 A 
ATOM     15  C   UNL     1      47.489   2.445   6.238  0.00  0.00    +0.000 A 
ATOM     16  C   UNL     1      46.750   3.484   6.806  0.00  0.00    +0.000 A 
ENDBRANCH  10  11
ENDBRANCH   9  10
ENDBRANCH   8   9
ENDBRANCH   5   8
ENDBRANCH   1   2
BRANCH   1  19
ATOM     17  C   UNL     1      48.677   5.827  16.704  0.00  0.00    +0.000 C 
ATOM     18  O   UNL     1      49.794   5.320  16.625  0.00  0.00    +0.000 OA
ATOM     19  N   UNL     1      47.634   5.435  15.903  0.00  0.00    +0.000 N 
ATOM     20  H   UNL     1      46.858   6.073  15.793  0.00  0.00    +0.000 HD
BRANCH  17  30
ATOM     21  C   UNL     1      48.816   8.928  15.994  0.00  0.00    +0.000 C 
ATOM     22  C   UNL     1      48.465   8.276  17.284  0.00  0.00    +0.000 A 
ATOM     23  N   UNL     1      48.151   9.018  18.395  0.00  0.00    +0.000 N 
ATOM     24  C   UNL     1      47.858   8.197  19.442  0.00  0.00    +0.000 A 
ATOM     25  N   UNL     1      47.527   8.644  20.667  0.00  0.00    +0.000 NA
ATOM     26  C   UNL     1      47.292   7.645  21.545  0.00  0.00    +0.000 A 
ATOM     27  C   UNL     1      47.370   6.291  21.266  0.00  0.00    +0.000 A 
ATOM     28  C   UNL     1      47.721   5.883  19.975  0.00  0.00    +0.000 A 
ATOM     29  C   UNL     1      47.975   6.878  19.010  0.00  0.00    +0.000 A 
ATOM     30  C   UNL     1      48.373   6.927  17.625  0.00  0.00    +0.000 A 
ATOM     31  H   UNL     1      48.139  10.025  18.460  0.00  0.00    +0.000 HD
ENDBRANCH  17  30
ENDBRANCH   1  19
TORSDOF 7
ENDMDL
MODEL 6
REMARK VINA RESULT:    -7.604      2.482      4.744
REMARK INTER + INTRA:         -11.834
REMARK INTER:                 -10.748
REMARK INTRA:                  -1.085
REMARK UNBOUND:                -1.118
REMARK  Name = 
REMARK  8 active torsions:
REMARK  status: ('A' for Active; 'I' for Inactive)
REMARK    1  A    between atoms: C_1  and  C_2
REMARK    2  A    between atoms: C_10  and  C_11
REMARK    3  A    between atoms: N_13  and  C_14
REMARK    4  A    between atoms: C_14  and  C_15
REMARK    5  A    between atoms: C_18  and  C_19
REMARK    6  A    between atoms: C_19  and  C_20
REMARK    7  A    between atoms: C_20  and  C_21
REMARK    8  A    between atoms: C_21  and  C_22
REMARK                            x       y       z     vdW  Elec       q    Type
REMARK                         _______ _______ _______ _____ _____    ______ ____
ROOT
ATOM      1  C   UNL     1      44.482   4.820  12.772  0.00  0.00    +0.000 C 
ENDROOT
BRANCH   1   2
ATOM      2  C   UNL     1      44.819   4.440  11.354  0.00  0.00    +0.000 A 
ATOM      3  C   UNL     1      45.388   5.387  10.492  0.00  0.00    +0.000 A 
ATOM      4  C   UNL     1      45.694   5.053   9.170  0.00  0.00    +0.000 A 
ATOM      5  C   UNL     1      45.439   3.764   8.680  0.00  0.00    +0.000 A 
ATOM      6  C   UNL     1      44.846   2.828   9.535  0.00  0.00    +0.000 A 
ATOM      7  C   UNL     1      44.544   3.159  10.860  0.00  0.00    +0.000 A 
BRANCH   5   8
ATOM      8  C   UNL     1      45.815   3.373   7.267  0.00  0.00    +0.000 C 
BRANCH   8   9
ATOM      9  C   UNL     1      46.741   2.153   7.248  0.00  0.00    +0.000 C 
BRANCH   9  10
ATOM     10  C   UNL     1      47.657   2.119   6.023  0.00  0.00    +0.000 C 
BRANCH  10  11
ATOM     11  C   UNL     1      47.074   1.226   4.953  0.00  0.00    +0.000 A 
ATOM     12  C   UNL     1      47.271  -0.161   4.979  0.00  0.00    +0.000 A 
ATOM     13  C   UNL     1      46.787  -0.964   3.941  0.00  0.00    +0.000 A 
ATOM     14  C   UNL     1      46.108  -0.387   2.869  0.00  0.00    +0.000 A 
ATOM     15  C   UNL     1      45.904   0.989   2.835  0.00  0.00    +0.000 A 
ATOM     16  C   UNL     1      46.380   1.791   3.873  0.00  0.00    +0.000 A 
ENDBRANCH  10  11
ENDBRANCH   9  10
ENDBRANCH   8   9
ENDBRANCH   5   8
ENDBRANCH   1   2
BRANCH   1  19
ATOM     17  C   UNL     1      46.621   4.812  13.958  0.00  0.00    +0.000 C 
ATOM     18  O   UNL     1      46.652   3.583  13.974  0.00  0.00    +0.000 OA
ATOM     19  N   UNL     1      45.585   5.515  13.398  0.00  0.00    +0.000 N 
ATOM     20  H   UNL     1      45.751   6.477  13.140  0.00  0.00    +0.000 HD
BRANCH  17  30
ATOM     21  C   UNL     1      47.671   4.773  16.964  0.00  0.00    +0.000 C 
ATOM     22  C   UNL     1      48.131   5.606  15.821  0.00  0.00    +0.000 A 
ATOM     23  N   UNL     1      49.134   6.530  15.972  0.00  0.00    +0.000 N 
ATOM     24  C   UNL     1      49.380   7.155  14.787  0.00  0.00    +0.000 A 
ATOM     25  N   UNL     1      50.305   8.120  14.633  0.00  0.00    +0.000 NA
ATOM     26  C   UNL     1      50.359   8.600  13.371  0.00  0.00    +0.000 A 
ATOM     27  C   UNL     1      49.572   8.177  12.313  0.00  0.00    +0.000 A 
ATOM     28  C   UNL     1      48.625   7.171  12.531  0.00  0.00    +0.000 A 
ATOM     29  C   UNL     1      48.521   6.626  13.826  0.00  0.00    +0.000 A 
ATOM     30  C   UNL     1      47.712   5.636  14.492  0.00  0.00    +0.000 A 
ATOM     31  H   UNL     1      49.631   6.744  16.824  0.00  0.00    +0.000 HD
ENDBRANCH  17  30
ENDBRANCH   1  19
TORSDOF 7
ENDMDL
MODEL 7
REMARK VINA RESULT:    -7.586      2.750      3.799
REMARK INTER + INTRA:         -11.808
REMARK INTER:                 -10.689
REMARK INTRA:                  -1.119
REMARK UNBOUND:                -1.118
REMARK  Name = 
REMARK  8 active torsions:
REMARK  status: ('A' for Active; 'I' for Inactive)
REMARK    1  A    between atoms: C_1  and  C_2
REMARK    2  A    between atoms: C_10  and  C_11
REMARK    3  A    between atoms: N_13  and  C_14
REMARK    4  A    between atoms: C_14  and  C_15
REMARK    5  A    between atoms: C_18  and  C_19
REMARK    6  A    between atoms: C_19  and  C_20
REMARK    7  A    between atoms: C_20  and  C_21
REMARK    8  A    between atoms: C_21  and  C_22
REMARK                            x       y       z     vdW  Elec       q    Type
REMARK                         _______ _______ _______ _____ _____    ______ ____
ROOT
ATOM      1  C   UNL     1      48.276   6.048  14.038  0.00  0.00    +0.000 C 
ENDROOT
BRANCH   1   2
ATOM      2  C   UNL     1      47.122   5.686  13.140  0.00  0.00    +0.000 A 
ATOM      3  C   UNL     1      46.310   4.587  13.453  0.00  0.00    +0.000 A 
ATOM      4  C   UNL     1      45.243   4.230  12.624  0.00  0.00    +0.000 A 
ATOM      5  C   UNL     1      44.963   4.965  11.461  0.00  0.00    +0.000 A 
ATOM      6  C   UNL     1      45.792   6.044  11.137  0.00  0.00    +0.000 A 
ATOM      7  C   UNL     1      46.856   6.406  11.969  0.00  0.00    +0.000 A 
BRANCH   5   8
ATOM      8  C   UNL     1      43.779   4.622  10.584  0.00  0.00    +0.000 C 
BRANCH   8   9
ATOM      9  C   UNL     1      44.226   4.053   9.233  0.00  0.00    +0.000 C 
BRANCH   9  10
ATOM     10  C   UNL     1      44.968   2.721   9.365  0.00  0.00    +0.000 C 
BRANCH  10  11
ATOM     11  C   UNL     1      45.802   2.458   8.133  0.00  0.00    +0.000 A 
ATOM     12  C   UNL     1      46.516   1.262   7.983  0.00  0.00    +0.000 A 
ATOM     13  C   UNL     1      47.342   1.065   6.871  0.00  0.00    +0.000 A 
ATOM     14  C   UNL     1      47.465   2.064   5.907  0.00  0.00    +0.000 A 
ATOM     15  C   UNL     1      46.758   3.255   6.045  0.00  0.00    +0.000 A 
ATOM     16  C   UNL     1      45.927   3.449   7.150  0.00  0.00    +0.000 A 
ENDBRANCH  10  11
ENDBRANCH   9  10
ENDBRANCH   8   9
ENDBRANCH   5   8
ENDBRANCH   1   2
BRANCH   1  19
ATOM     17  C   UNL     1      48.930   7.780  15.636  0.00  0.00    +0.000 C 
ATOM     18  O   UNL     1      49.989   7.206  15.883  0.00  0.00    +0.000 OA
ATOM     19  N   UNL     1      48.013   7.280  14.748  0.00  0.00    +0.000 N 
ATOM     20  H   UNL     1      47.334   7.919  14.359  0.00  0.00    +0.000 HD
BRANCH  17  30
ATOM     21  C   UNL     1      49.397  10.628  14.291  0.00  0.00    +0.000 C 
ATOM     22  C   UNL     1      48.815  10.303  15.620  0.00  0.00    +0.000 A 
ATOM     23  N   UNL     1      48.398  11.292  16.475  0.00  0.00    +0.000 N 
ATOM     24  C   UNL     1      47.896  10.745  17.618  0.00  0.00    +0.000 A 
ATOM     25  N   UNL     1      47.423  11.473  18.646  0.00  0.00    +0.000 NA
ATOM     26  C   UNL     1      46.991  10.712  19.674  0.00  0.00    +0.000 A 
ATOM     27  C   UNL     1      47.009   9.328  19.716  0.00  0.00    +0.000 A 
ATOM     28  C   UNL     1      47.514   8.622  18.620  0.00  0.00    +0.000 A 
ATOM     29  C   UNL     1      47.978   9.358  17.512  0.00  0.00    +0.000 A 
ATOM     30  C   UNL     1      48.576   9.073  16.231  0.00  0.00    +0.000 A 
ATOM     31  H   UNL     1      48.449  12.286  16.314  0.00  0.00    +0.000 HD
ENDBRANCH  17  30
ENDBRANCH   1  19
TORSDOF 7
ENDMDL
MODEL 8
REMARK VINA RESULT:    -7.488      3.184      4.759
REMARK INTER + INTRA:         -11.670
REMARK INTER:                 -10.392
REMARK INTRA:                  -1.278
REMARK UNBOUND:                -1.118
REMARK  Name = 
REMARK  8 active torsions:
REMARK  status: ('A' for Active; 'I' for Inactive)
REMARK    1  A    between atoms: C_1  and  C_2
REMARK    2  A    between atoms: C_10  and  C_11
REMARK    3  A    between atoms: N_13  and  C_14
REMARK    4  A    between atoms: C_14  and  C_15
REMARK    5  A    between atoms: C_18  and  C_19
REMARK    6  A    between atoms: C_19  and  C_20
REMARK    7  A    between atoms: C_20  and  C_21
REMARK    8  A    between atoms: C_21  and  C_22
REMARK                            x       y       z     vdW  Elec       q    Type
REMARK                         _______ _______ _______ _____ _____    ______ ____
ROOT
ATOM      1  C   UNL     1      47.491   5.285  14.820  0.00  0.00    +0.000 C 
ENDROOT
BRANCH   1   2
ATOM      2  C   UNL     1      46.496   4.866  13.770  0.00  0.00    +0.000 A 
ATOM      3  C   UNL     1      45.555   5.787  13.290  0.00  0.00    +0.000 A 
ATOM      4  C   UNL     1      44.617   5.411  12.325  0.00  0.00    +0.000 A 
ATOM      5  C   UNL     1      44.598   4.103  11.817  0.00  0.00    +0.000 A 
ATOM      6  C   UNL     1      45.521   3.178  12.318  0.00  0.00    +0.000 A 
ATOM      7  C   UNL     1      46.464   3.555  13.279  0.00  0.00    +0.000 A 
BRANCH   5   8
ATOM      8  C   UNL     1      43.623   3.697  10.733  0.00  0.00    +0.000 C 
BRANCH   8   9
ATOM      9  C   UNL     1      44.310   2.873   9.639  0.00  0.00    +0.000 C 
BRANCH   9  10
ATOM     10  C   UNL     1      44.972   3.742   8.567  0.00  0.00    +0.000 C 
BRANCH  10  11
ATOM     11  C   UNL     1      45.927   2.918   7.736  0.00  0.00    +0.000 A 
ATOM     12  C   UNL     1      46.452   3.410   6.533  0.00  0.00    +0.000 A 
ATOM     13  C   UNL     1      47.276   2.606   5.740  0.00  0.00    +0.000 A 
ATOM     14  C   UNL     1      47.576   1.304   6.139  0.00  0.00    +0.000 A 
ATOM     15  C   UNL     1      47.063   0.807   7.333  0.00  0.00    +0.000 A 
ATOM     16  C   UNL     1      46.246   1.611   8.130  0.00  0.00    +0.000 A 
ENDBRANCH  10  11
ENDBRANCH   9  10
ENDBRANCH   8   9
ENDBRANCH   5   8
ENDBRANCH   1   2
BRANCH   1  19
ATOM     17  C   UNL     1      48.580   7.271  13.897  0.00  0.00    +0.000 C 
ATOM     18  O   UNL     1      49.232   6.593  13.106  0.00  0.00    +0.000 OA
ATOM     19  N   UNL     1      47.702   6.715  14.792  0.00  0.00    +0.000 N 
ATOM     20  H   UNL     1      46.988   7.311  15.186  0.00  0.00    +0.000 HD
BRANCH  17  30
ATOM     21  C   UNL     1      46.679   9.237  12.266  0.00  0.00    +0.000 C 
ATOM     22  C   UNL     1      47.808   9.566  13.176  0.00  0.00    +0.000 A 
ATOM     23  N   UNL     1      48.178  10.866  13.410  0.00  0.00    +0.000 N 
ATOM     24  C   UNL     1      49.225  10.908  14.281  0.00  0.00    +0.000 A 
ATOM     25  N   UNL     1      49.810  12.049  14.687  0.00  0.00    +0.000 NA
ATOM     26  C   UNL     1      50.835  11.840  15.541  0.00  0.00    +0.000 A 
ATOM     27  C   UNL     1      51.275  10.604  15.985  0.00  0.00    +0.000 A 
ATOM     28  C   UNL     1      50.631   9.450  15.529  0.00  0.00    +0.000 A 
ATOM     29  C   UNL     1      49.551   9.600  14.637  0.00  0.00    +0.000 A 
ATOM     30  C   UNL     1      48.645   8.736  13.921  0.00  0.00    +0.000 A 
ATOM     31  H   UNL     1      47.762  11.691  13.005  0.00  0.00    +0.000 HD
ENDBRANCH  17  30
ENDBRANCH   1  19
TORSDOF 7
ENDMDL
MODEL 9
REMARK VINA RESULT:    -7.469      3.767     10.089
REMARK INTER + INTRA:         -11.644
REMARK INTER:                  -9.213
REMARK INTRA:                  -2.431
REMARK UNBOUND:                -1.118
REMARK  Name = 
REMARK  8 active torsions:
REMARK  status: ('A' for Active; 'I' for Inactive)
REMARK    1  A    between atoms: C_1  and  C_2
REMARK    2  A    between atoms: C_10  and  C_11
REMARK    3  A    between atoms: N_13  and  C_14
REMARK    4  A    between atoms: C_14  and  C_15
REMARK    5  A    between atoms: C_18  and  C_19
REMARK    6  A    between atoms: C_19  and  C_20
REMARK    7  A    between atoms: C_20  and  C_21
REMARK    8  A    between atoms: C_21  and  C_22
REMARK                            x       y       z     vdW  Elec       q    Type
REMARK                         _______ _______ _______ _____ _____    ______ ____
ROOT
ATOM      1  C   UNL     1      47.416   3.802  16.759  0.00  0.00    +0.000 C 
ENDROOT
BRANCH   1   2
ATOM      2  C   UNL     1      48.842   4.123  17.122  0.00  0.00    +0.000 A 
ATOM      3  C   UNL     1      49.331   5.425  16.952  0.00  0.00    +0.000 A 
ATOM      4  C   UNL     1      50.655   5.736  17.272  0.00  0.00    +0.000 A 
ATOM      5  C   UNL     1      51.522   4.751  17.770  0.00  0.00    +0.000 A 
ATOM      6  C   UNL     1      51.038   3.446  17.913  0.00  0.00    +0.000 A 
ATOM      7  C   UNL     1      49.711   3.134  17.599  0.00  0.00    +0.000 A 
BRANCH   5   8
ATOM      8  C   UNL     1      52.942   5.086  18.172  0.00  0.00    +0.000 C 
BRANCH   8   9
ATOM      9  C   UNL     1      52.986   6.260  19.155  0.00  0.00    +0.000 C 
BRANCH   9  10
ATOM     10  C   UNL     1      52.607   5.856  20.582  0.00  0.00    +0.000 C 
BRANCH  10  11
ATOM     11  C   UNL     1      51.111   5.947  20.776  0.00  0.00    +0.000 A 
ATOM     12  C   UNL     1      50.365   4.834  21.186  0.00  0.00    +0.000 A 
ATOM     13  C   UNL     1      48.972   4.915  21.290  0.00  0.00    +0.000 A 
ATOM     14  C   UNL     1      48.316   6.105  20.978  0.00  0.00    +0.000 A 
ATOM     15  C   UNL     1      49.049   7.217  20.573  0.00  0.00    +0.000 A 
ATOM     16  C   UNL     1      50.439   7.140  20.476  0.00  0.00    +0.000 A 
ENDBRANCH  10  11
ENDBRANCH   9  10
ENDBRANCH   8   9
ENDBRANCH   5   8
ENDBRANCH   1   2
BRANCH   1  19
ATOM     17  C   UNL     1      46.934   4.222  14.398  0.00  0.00    +0.000 C 
ATOM     18  O   UNL     1      47.334   3.105  14.077  0.00  0.00    +0.000 OA
ATOM     19  N   UNL     1      46.946   4.663  15.696  0.00  0.00    +0.000 N 
ATOM     20  H   UNL     1      46.340   5.434  15.939  0.00  0.00    +0.000 HD
BRANCH  17  30
ATOM     21  C   UNL     1      48.463   6.693  13.095  0.00  0.00    +0.000 C 
ATOM     22  C   UNL     1      47.059   6.248  12.894  0.00  0.00    +0.000 A 
ATOM     23  N   UNL     1      46.208   6.931  12.062  0.00  0.00    +0.000 N 
ATOM     24  C   UNL     1      44.987   6.326  12.037  0.00  0.00    +0.000 A 
ATOM     25  N   UNL     1      43.946   6.781  11.316  0.00  0.00    +0.000 NA
ATOM     26  C   UNL     1      42.837   6.024  11.460  0.00  0.00    +0.000 A 
ATOM     27  C   UNL     1      42.730   4.891  12.250  0.00  0.00    +0.000 A 
ATOM     28  C   UNL     1      43.844   4.465  12.979  0.00  0.00    +0.000 A 
ATOM     29  C   UNL     1      45.035   5.210  12.870  0.00  0.00    +0.000 A 
ATOM     30  C   UNL     1      46.364   5.164  13.428  0.00  0.00    +0.000 A 
ATOM     31  H   UNL     1      46.422   7.766  11.538  0.00  0.00    +0.000 HD
ENDBRANCH  17  30
ENDBRANCH   1  19
TORSDOF 7
ENDMDL
