MODEL 1
REMARK VINA RESULT:    -8.163      0.000      0.000
REMARK INTER + INTRA:         -12.300
REMARK INTER:                 -11.027
REMARK INTRA:                  -1.274
REMARK UNBOUND:                -1.274
REMARK  Name = 
REMARK  7 active torsions:
REMARK  status: ('A' for Active; 'I' for Inactive)
REMARK    1  A    between atoms: C_1  and  C_2
REMARK    2  A    between atoms: C_6  and  C_7
REMARK    3  A    between atoms: C_7  and  C_8
REMARK    4  A    between atoms: C_8  and  C_9
REMARK    5  A    between atoms: C_12  and  C_13
REMARK    6  A    between atoms: C_13  and  N_14
REMARK    7  A    between atoms: C_15  and  C_17
REMARK                            x       y       z     vdW  Elec       q    Type
REMARK                         _______ _______ _______ _____ _____    ______ ____
ROOT
ATOM      1  C   UNL     1      48.119   6.580  13.730  0.00  0.00    +0.000 C 
ENDROOT
BRANCH   1   5
ATOM      2  C   UNL     1      44.572   5.081  11.767  0.00  0.00    +0.000 A 
ATOM      3  C   UNL     1      45.044   4.474  12.934  0.00  0.00    +0.000 A 
ATOM      4  C   UNL     1      46.154   4.995  13.609  0.00  0.00    +0.000 A 
ATOM      5  C   UNL     1      46.803   6.145  13.141  0.00  0.00    +0.000 A 
ATOM      6  C   UNL     1      46.255   6.824  12.047  0.00  0.00    +0.000 A 
ATOM      7  C   UNL     1      45.154   6.297  11.368  0.00  0.00    +0.000 A 
BRANCH   2   8
ATOM      8  C   UNL     1      43.636   4.385  10.802  0.00  0.00    +0.000 C 
BRANCH   8   9
ATOM      9  C   UNL     1      44.001   2.997  10.254  0.00  0.00    +0.000 C 
BRANCH   9  15
ATOM     10  C   UNL     1      47.044   0.191   7.383  0.00  0.00    +0.000 C 
ATOM     11  C   UNL     1      46.511   1.536   7.782  0.00  0.00    +0.000 A 
ATOM     12  C   UNL     1      46.999   2.695   7.174  0.00  0.00    +0.000 A 
ATOM     13  C   UNL     1      46.421   3.931   7.454  0.00  0.00    +0.000 A 
ATOM     14  C   UNL     1      45.377   4.028   8.374  0.00  0.00    +0.000 A 
ATOM     15  C   UNL     1      44.927   2.898   9.062  0.00  0.00    +0.000 A 
ATOM     16  C   UNL     1      45.487   1.648   8.735  0.00  0.00    +0.000 A 
ENDBRANCH   9  15
ENDBRANCH   8   9
ENDBRANCH   2   8
ENDBRANCH   1   5
BRANCH   1  17
ATOM     17  N   UNL     1      48.105   6.480  15.177  0.00  0.00    +0.000 N 
ATOM     18  C   UNL     1      48.893   7.307  15.938  0.00  0.00    +0.000 C 
ATOM     19  O   UNL     1      49.614   8.158  15.419  0.00  0.00    +0.000 OA
ATOM     20  H   UNL     1      47.688   5.654  15.598  0.00  0.00    +0.000 HD
BRANCH  18  21
ATOM     21  C   UNL     1      48.808   7.187  17.403  0.00  0.00    +0.000 A 
ATOM     22  C   UNL     1      48.680   8.340  18.167  0.00  0.00    +0.000 A 
ATOM     23  S   UNL     1      48.548   8.049  19.842  0.00  0.00    +0.000 S 
ATOM     24  C   UNL     1      48.710   6.373  19.614  0.00  0.00    +0.000 A 
ATOM     25  N   UNL     1      48.708   5.522  20.677  0.00  0.00    +0.000 NA
ATOM     26  C   UNL     1      48.878   4.279  20.370  0.00  0.00    +0.000 A 
ATOM     27  N   UNL     1      49.045   3.814  19.093  0.00  0.00    +0.000 N 
ATOM     28  C   UNL     1      49.022   4.635  17.986  0.00  0.00    +0.000 A 
ATOM     29  O   UNL     1      49.132   4.178  16.851  0.00  0.00    +0.000 OA
ATOM     30  C   UNL     1      48.841   6.037  18.283  0.00  0.00    +0.000 A 
ATOM     31  H   UNL     1      49.172   2.826  18.916  0.00  0.00    +0.000 HD
ENDBRANCH  18  21
ENDBRANCH   1  17
TORSDOF 6
ENDMDL
MODEL 2
REMARK VINA RESULT:    -7.903      1.369      2.111
REMARK INTER + INTRA:         -11.949
REMARK INTER:                 -10.746
REMARK INTRA:                  -1.202
REMARK UNBOUND:                -1.274
REMARK  Name = 
REMARK  7 active torsions:
REMARK  status: ('A' for Active; 'I' for Inactive)
REMARK    1  A    between atoms: C_1  and  C_2
REMARK    2  A    between atoms: C_6  and  C_7
REMARK    3  A    between atoms: C_7  and  C_8
REMARK    4  A    between atoms: C_8  and  C_9
REMARK    5  A    between atoms: C_12  and  C_13
REMARK    6  A    between atoms: C_13  and  N_14
REMARK    7  A    between atoms: C_15  and  C_17
REMARK                            x       y       z     vdW  Elec       q    Type
REMARK                         _______ _______ _______ _____ _____    ______ ____
ROOT
ATOM      1  C   UNL     1      48.135   6.676  13.944  0.00  0.00    +0.000 C 
ENDROOT
BRANCH   1   5
ATOM      2  C   UNL     1      44.735   5.225  11.704  0.00  0.00    +0.000 A 
ATOM      3  C   UNL     1      45.351   4.412  12.660  0.00  0.00    +0.000 A 
ATOM      4  C   UNL     1      46.411   4.900  13.433  0.00  0.00    +0.000 A 
ATOM      5  C   UNL     1      46.864   6.216  13.279  0.00  0.00    +0.000 A 
ATOM      6  C   UNL     1      46.167   7.067  12.415  0.00  0.00    +0.000 A 
ATOM      7  C   UNL     1      45.116   6.576  11.636  0.00  0.00    +0.000 A 
BRANCH   2   8
ATOM      8  C   UNL     1      43.855   4.673  10.603  0.00  0.00    +0.000 C 
BRANCH   8   9
ATOM      9  C   UNL     1      44.070   3.235  10.106  0.00  0.00    +0.000 C 
BRANCH   9  15
ATOM     10  C   UNL     1      46.917   0.025   7.466  0.00  0.00    +0.000 C 
ATOM     11  C   UNL     1      46.495   1.431   7.779  0.00  0.00    +0.000 A 
ATOM     12  C   UNL     1      47.094   2.509   7.123  0.00  0.00    +0.000 A 
ATOM     13  C   UNL     1      46.619   3.803   7.322  0.00  0.00    +0.000 A 
ATOM     14  C   UNL     1      45.569   4.040   8.209  0.00  0.00    +0.000 A 
ATOM     15  C   UNL     1      45.008   2.991   8.944  0.00  0.00    +0.000 A 
ATOM     16  C   UNL     1      45.465   1.682   8.699  0.00  0.00    +0.000 A 
ENDBRANCH   9  15
ENDBRANCH   8   9
ENDBRANCH   2   8
ENDBRANCH   1   5
BRANCH   1  17
ATOM     17  N   UNL     1      48.041   6.569  15.387  0.00  0.00    +0.000 N 
ATOM     18  C   UNL     1      49.177   6.478  16.152  0.00  0.00    +0.000 C 
ATOM     19  O   UNL     1      50.295   6.499  15.640  0.00  0.00    +0.000 OA
ATOM     20  H   UNL     1      47.139   6.337  15.795  0.00  0.00    +0.000 HD
BRANCH  18  21
ATOM     21  C   UNL     1      49.022   6.413  17.615  0.00  0.00    +0.000 A 
ATOM     22  C   UNL     1      49.444   5.273  18.287  0.00  0.00    +0.000 A 
ATOM     23  S   UNL     1      49.244   5.354  19.978  0.00  0.00    +0.000 S 
ATOM     24  C   UNL     1      48.538   6.895  19.872  0.00  0.00    +0.000 A 
ATOM     25  N   UNL     1      48.103   7.541  20.989  0.00  0.00    +0.000 NA
ATOM     26  C   UNL     1      47.552   8.688  20.766  0.00  0.00    +0.000 A 
ATOM     27  N   UNL     1      47.402   9.244  19.524  0.00  0.00    +0.000 N 
ATOM     28  C   UNL     1      47.854   8.641  18.370  0.00  0.00    +0.000 A 
ATOM     29  O   UNL     1      47.741   9.189  17.277  0.00  0.00    +0.000 OA
ATOM     30  C   UNL     1      48.473   7.351  18.572  0.00  0.00    +0.000 A 
ATOM     31  H   UNL     1      46.961  10.149  19.414  0.00  0.00    +0.000 HD
ENDBRANCH  18  21
ENDBRANCH   1  17
TORSDOF 6
ENDMDL
MODEL 3
REMARK VINA RESULT:    -7.685      3.996      5.806
REMARK INTER + INTRA:         -11.655
REMARK INTER:                 -10.456
REMARK INTRA:                  -1.199
REMARK UNBOUND:                -1.274
REMARK  Name = 
REMARK  7 active torsions:
REMARK  status: ('A' for Active; 'I' for Inactive)
REMARK    1  A    between atoms: C_1  and  C_2
REMARK    2  A    between atoms: C_6  and  C_7
REMARK    3  A    between atoms: C_7  and  C_8
REMARK    4  A    between atoms: C_8  and  C_9
REMARK    5  A    between atoms: C_12  and  C_13
REMARK    6  A    between atoms: C_13  and  N_14
REMARK    7  A    between atoms: C_15  and  C_17
REMARK                            x       y       z     vdW  Elec       q    Type
REMARK                         _______ _______ _______ _____ _____    ______ ____
ROOT
ATOM      1  C   UNL     1      47.909   6.492  13.659  0.00  0.00    +0.000 C 
ENDROOT
BRANCH   1   5
ATOM      2  C   UNL     1      44.519   4.234  12.213  0.00  0.00    +0.000 A 
ATOM      3  C   UNL     1      45.602   3.580  12.807  0.00  0.00    +0.000 A 
ATOM      4  C   UNL     1      46.672   4.312  13.335  0.00  0.00    +0.000 A 
ATOM      5  C   UNL     1      46.673   5.712  13.296  0.00  0.00    +0.000 A 
ATOM      6  C   UNL     1      45.534   6.368  12.817  0.00  0.00    +0.000 A 
ATOM      7  C   UNL     1      44.470   5.637  12.281  0.00  0.00    +0.000 A 
BRANCH   2   8
ATOM      8  C   UNL     1      43.527   3.527  11.315  0.00  0.00    +0.000 C 
BRANCH   8   9
ATOM      9  C   UNL     1      44.012   2.410  10.376  0.00  0.00    +0.000 C 
BRANCH   9  15
ATOM     10  C   UNL     1      47.412   1.019   6.930  0.00  0.00    +0.000 C 
ATOM     11  C   UNL     1      46.631   2.098   7.621  0.00  0.00    +0.000 A 
ATOM     12  C   UNL     1      46.827   3.438   7.281  0.00  0.00    +0.000 A 
ATOM     13  C   UNL     1      46.017   4.428   7.831  0.00  0.00    +0.000 A 
ATOM     14  C   UNL     1      45.030   4.096   8.759  0.00  0.00    +0.000 A 
ATOM     15  C   UNL     1      44.868   2.774   9.184  0.00  0.00    +0.000 A 
ATOM     16  C   UNL     1      45.661   1.776   8.584  0.00  0.00    +0.000 A 
ENDBRANCH   9  15
ENDBRANCH   8   9
ENDBRANCH   2   8
ENDBRANCH   1   5
BRANCH   1  17
ATOM     17  N   UNL     1      47.788   7.882  13.264  0.00  0.00    +0.000 N 
ATOM     18  C   UNL     1      48.395   8.334  12.119  0.00  0.00    +0.000 C 
ATOM     19  O   UNL     1      49.040   7.577  11.396  0.00  0.00    +0.000 OA
ATOM     20  H   UNL     1      47.447   8.550  13.951  0.00  0.00    +0.000 HD
BRANCH  18  21
ATOM     21  C   UNL     1      48.205   9.746  11.746  0.00  0.00    +0.000 A 
ATOM     22  C   UNL     1      49.302  10.486  11.327  0.00  0.00    +0.000 A 
ATOM     23  S   UNL     1      48.927  12.090  10.886  0.00  0.00    +0.000 S 
ATOM     24  C   UNL     1      47.291  11.872  11.289  0.00  0.00    +0.000 A 
ATOM     25  N   UNL     1      46.401  12.895  11.167  0.00  0.00    +0.000 NA
ATOM     26  C   UNL     1      45.199  12.608  11.543  0.00  0.00    +0.000 A 
ATOM     27  N   UNL     1      44.811  11.386  12.026  0.00  0.00    +0.000 N 
ATOM     28  C   UNL     1      45.670  10.315  12.136  0.00  0.00    +0.000 A 
ATOM     29  O   UNL     1      45.278   9.221  12.533  0.00  0.00    +0.000 OA
ATOM     30  C   UNL     1      47.029  10.592  11.733  0.00  0.00    +0.000 A 
ATOM     31  H   UNL     1      43.851  11.223  12.303  0.00  0.00    +0.000 HD
ENDBRANCH  18  21
ENDBRANCH   1  17
TORSDOF 6
ENDMDL
MODEL 4
REMARK VINA RESULT:    -7.621      1.733      3.199
REMARK INTER + INTRA:         -11.568
REMARK INTER:                 -10.298
REMARK INTRA:                  -1.270
REMARK UNBOUND:                -1.274
REMARK  Name = 
REMARK  7 active torsions:
REMARK  status: ('A' for Active; 'I' for Inactive)
REMARK    1  A    between atoms: C_1  and  C_2
REMARK    2  A    between atoms: C_6  and  C_7
REMARK    3  A    between atoms: C_7  and  C_8
REMARK    4  A    between atoms: C_8  and  C_9
REMARK    5  A    between atoms: C_12  and  C_13
REMARK    6  A    between atoms: C_13  and  N_14
REMARK    7  A    between atoms: C_15  and  C_17
REMARK                            x       y       z     vdW  Elec       q    Type
REMARK                         _______ _______ _______ _____ _____    ______ ____
ROOT
ATOM      1  C   UNL     1      46.978   4.247  14.861  0.00  0.00    +0.000 C 
ENDROOT
BRANCH   1   5
ATOM      2  C   UNL     1      45.501   5.107  10.891  0.00  0.00    +0.000 A 
ATOM      3  C   UNL     1      45.065   3.969  11.576  0.00  0.00    +0.000 A 
ATOM      4  C   UNL     1      45.491   3.721  12.886  0.00  0.00    +0.000 A 
ATOM      5  C   UNL     1      46.345   4.615  13.544  0.00  0.00    +0.000 A 
ATOM      6  C   UNL     1      46.679   5.814  12.906  0.00  0.00    +0.000 A 
ATOM      7  C   UNL     1      46.263   6.056  11.594  0.00  0.00    +0.000 A 
BRANCH   2   8
ATOM      8  C   UNL     1      45.387   5.252   9.388  0.00  0.00    +0.000 C 
BRANCH   8   9
ATOM      9  C   UNL     1      44.790   4.107   8.555  0.00  0.00    +0.000 C 
BRANCH   9  15
ATOM     10  C   UNL     1      47.756   2.448   4.838  0.00  0.00    +0.000 C 
ATOM     11  C   UNL     1      47.023   2.198   6.123  0.00  0.00    +0.000 A 
ATOM     12  C   UNL     1      47.052   0.934   6.716  0.00  0.00    +0.000 A 
ATOM     13  C   UNL     1      46.476   0.734   7.969  0.00  0.00    +0.000 A 
ATOM     14  C   UNL     1      45.829   1.782   8.623  0.00  0.00    +0.000 A 
ATOM     15  C   UNL     1      45.709   3.035   8.015  0.00  0.00    +0.000 A 
ATOM     16  C   UNL     1      46.337   3.238   6.770  0.00  0.00    +0.000 A 
ENDBRANCH   9  15
ENDBRANCH   8   9
ENDBRANCH   2   8
ENDBRANCH   1   5
BRANCH   1  17
ATOM     17  N   UNL     1      47.421   5.427  15.578  0.00  0.00    +0.000 N 
ATOM     18  C   UNL     1      48.447   5.343  16.486  0.00  0.00    +0.000 C 
ATOM     19  O   UNL     1      49.022   4.278  16.703  0.00  0.00    +0.000 OA
ATOM     20  H   UNL     1      46.824   6.250  15.568  0.00  0.00    +0.000 HD
BRANCH  18  21
ATOM     21  C   UNL     1      48.882   6.581  17.155  0.00  0.00    +0.000 A 
ATOM     22  C   UNL     1      48.828   6.653  18.541  0.00  0.00    +0.000 A 
ATOM     23  S   UNL     1      49.403   8.126  19.179  0.00  0.00    +0.000 S 
ATOM     24  C   UNL     1      49.697   8.744  17.624  0.00  0.00    +0.000 A 
ATOM     25  N   UNL     1      50.182  10.005  17.456  0.00  0.00    +0.000 NA
ATOM     26  C   UNL     1      50.324  10.365  16.223  0.00  0.00    +0.000 A 
ATOM     27  N   UNL     1      50.026   9.572  15.147  0.00  0.00    +0.000 N 
ATOM     28  C   UNL     1      49.563   8.280  15.271  0.00  0.00    +0.000 A 
ATOM     29  O   UNL     1      49.347   7.583  14.283  0.00  0.00    +0.000 OA
ATOM     30  C   UNL     1      49.382   7.836  16.634  0.00  0.00    +0.000 A 
ATOM     31  H   UNL     1      50.161   9.912  14.203  0.00  0.00    +0.000 HD
ENDBRANCH  18  21
ENDBRANCH   1  17
TORSDOF 6
ENDMDL
MODEL 5
REMARK VINA RESULT:    -7.506      3.788      8.611
REMARK INTER + INTRA:         -11.412
REMARK INTER:                  -9.826
REMARK INTRA:                  -1.586
REMARK UNBOUND:                -1.274
REMARK  Name = 
REMARK  7 active torsions:
REMARK  status: ('A' for Active; 'I' for Inactive)
REMARK    1  A    between atoms: C_1  and  C_2
REMARK    2  A    between atoms: C_6  and  C_7
REMARK    3  A    between atoms: C_7  and  C_8
REMARK    4  A    between atoms: C_8  and  C_9
REMARK    5  A    between atoms: C_12  and  C_13
REMARK    6  A    between atoms: C_13  and  N_14
REMARK    7  A    between atoms: C_15  and  C_17
REMARK                            x       y       z     vdW  Elec       q    Type
REMARK                         _______ _______ _______ _____ _____    ______ ____
ROOT
ATOM      1  C   UNL     1      47.642   8.012  11.904  0.00  0.00    +0.000 C 
ENDROOT
BRANCH   1   5
ATOM      2  C   UNL     1      49.526   7.867  15.791  0.00  0.00    +0.000 A 
ATOM      3  C   UNL     1      50.167   7.323  14.674  0.00  0.00    +0.000 A 
ATOM      4  C   UNL     1      49.590   7.425  13.403  0.00  0.00    +0.000 A 
ATOM      5  C   UNL     1      48.370   8.089  13.220  0.00  0.00    +0.000 A 
ATOM      6  C   UNL     1      47.793   8.741  14.315  0.00  0.00    +0.000 A 
ATOM      7  C   UNL     1      48.364   8.630  15.585  0.00  0.00    +0.000 A 
BRANCH   2   8
ATOM      8  C   UNL     1      49.890   7.487  17.211  0.00  0.00    +0.000 C 
BRANCH   8   9
ATOM      9  C   UNL     1      48.863   6.756  18.091  0.00  0.00    +0.000 C 
BRANCH   9  15
ATOM     10  C   UNL     1      50.847   2.202  17.258  0.00  0.00    +0.000 C 
ATOM     11  C   UNL     1      49.647   3.099  17.345  0.00  0.00    +0.000 A 
ATOM     12  C   UNL     1      48.371   2.597  17.076  0.00  0.00    +0.000 A 
ATOM     13  C   UNL     1      47.247   3.396  17.276  0.00  0.00    +0.000 A 
ATOM     14  C   UNL     1      47.387   4.715  17.705  0.00  0.00    +0.000 A 
ATOM     15  C   UNL     1      48.656   5.271  17.898  0.00  0.00    +0.000 A 
ATOM     16  C   UNL     1      49.782   4.439  17.739  0.00  0.00    +0.000 A 
ENDBRANCH   9  15
ENDBRANCH   8   9
ENDBRANCH   2   8
ENDBRANCH   1   5
BRANCH   1  17
ATOM     17  N   UNL     1      46.998   6.723  11.735  0.00  0.00    +0.000 N 
ATOM     18  C   UNL     1      45.634   6.611  11.835  0.00  0.00    +0.000 C 
ATOM     19  O   UNL     1      44.925   7.592  12.054  0.00  0.00    +0.000 OA
ATOM     20  H   UNL     1      47.576   5.888  11.769  0.00  0.00    +0.000 HD
BRANCH  18  21
ATOM     21  C   UNL     1      45.031   5.285  11.614  0.00  0.00    +0.000 A 
ATOM     22  C   UNL     1      44.364   4.665  12.662  0.00  0.00    +0.000 A 
ATOM     23  S   UNL     1      43.680   3.158  12.251  0.00  0.00    +0.000 S 
ATOM     24  C   UNL     1      44.295   3.253  10.671  0.00  0.00    +0.000 A 
ATOM     25  N   UNL     1      44.086   2.244   9.780  0.00  0.00    +0.000 NA
ATOM     26  C   UNL     1      44.639   2.424   8.627  0.00  0.00    +0.000 A 
ATOM     27  N   UNL     1      45.378   3.526   8.287  0.00  0.00    +0.000 N 
ATOM     28  C   UNL     1      45.588   4.584   9.145  0.00  0.00    +0.000 A 
ATOM     29  O   UNL     1      46.220   5.576   8.792  0.00  0.00    +0.000 OA
ATOM     30  C   UNL     1      44.993   4.423  10.451  0.00  0.00    +0.000 A 
ATOM     31  H   UNL     1      45.785   3.609   7.363  0.00  0.00    +0.000 HD
ENDBRANCH  18  21
ENDBRANCH   1  17
TORSDOF 6
ENDMDL
MODEL 6
REMARK VINA RESULT:    -7.473      3.884      8.278
REMARK INTER + INTRA:         -11.368
REMARK INTER:                  -9.029
REMARK INTRA:                  -2.339
REMARK UNBOUND:                -1.274
REMARK  Name = 
REMARK  7 active torsions:
REMARK  status: ('A' for Active; 'I' for Inactive)
REMARK    1  A    between atoms: C_1  and  C_2
REMARK    2  A    between atoms: C_6  and  C_7
REMARK    3  A    between atoms: C_7  and  C_8
REMARK    4  A    between atoms: C_8  and  C_9
REMARK    5  A    between atoms: C_12  and  C_13
REMARK    6  A    between atoms: C_13  and  N_14
REMARK    7  A    between atoms: C_15  and  C_17
REMARK                            x       y       z     vdW  Elec       q    Type
REMARK                         _______ _______ _______ _____ _____    ______ ____
ROOT
ATOM      1  C   UNL     1      48.573   8.523  14.356  0.00  0.00    +0.000 C 
ENDROOT
BRANCH   1   5
ATOM      2  C   UNL     1      49.445   7.556  18.477  0.00  0.00    +0.000 A 
ATOM      3  C   UNL     1      50.333   7.190  17.462  0.00  0.00    +0.000 A 
ATOM      4  C   UNL     1      50.087   7.557  16.134  0.00  0.00    +0.000 A 
ATOM      5  C   UNL     1      48.957   8.314  15.797  0.00  0.00    +0.000 A 
ATOM      6  C   UNL     1      48.137   8.787  16.827  0.00  0.00    +0.000 A 
ATOM      7  C   UNL     1      48.378   8.411  18.151  0.00  0.00    +0.000 A 
BRANCH   2   8
ATOM      8  C   UNL     1      49.444   6.901  19.842  0.00  0.00    +0.000 C 
BRANCH   8   9
ATOM      9  C   UNL     1      48.588   5.648  20.086  0.00  0.00    +0.000 C 
BRANCH   9  15
ATOM     10  C   UNL     1      50.279   2.004  17.048  0.00  0.00    +0.000 C 
ATOM     11  C   UNL     1      49.242   3.034  17.387  0.00  0.00    +0.000 A 
ATOM     12  C   UNL     1      48.142   3.229  16.548  0.00  0.00    +0.000 A 
ATOM     13  C   UNL     1      47.119   4.096  16.923  0.00  0.00    +0.000 A 
ATOM     14  C   UNL     1      47.202   4.809  18.119  0.00  0.00    +0.000 A 
ATOM     15  C   UNL     1      48.331   4.699  18.936  0.00  0.00    +0.000 A 
ATOM     16  C   UNL     1      49.337   3.784  18.570  0.00  0.00    +0.000 A 
ENDBRANCH   9  15
ENDBRANCH   8   9
ENDBRANCH   2   8
ENDBRANCH   1   5
BRANCH   1  17
ATOM     17  N   UNL     1      47.476   7.654  13.973  0.00  0.00    +0.000 N 
ATOM     18  C   UNL     1      47.717   6.502  13.268  0.00  0.00    +0.000 C 
ATOM     19  O   UNL     1      48.860   6.170  12.957  0.00  0.00    +0.000 OA
ATOM     20  H   UNL     1      46.530   8.020  14.033  0.00  0.00    +0.000 HD
BRANCH  18  21
ATOM     21  C   UNL     1      46.570   5.639  12.942  0.00  0.00    +0.000 A 
ATOM     22  C   UNL     1      46.654   4.278  13.206  0.00  0.00    +0.000 A 
ATOM     23  S   UNL     1      45.239   3.410  12.820  0.00  0.00    +0.000 S 
ATOM     24  C   UNL     1      44.478   4.811  12.235  0.00  0.00    +0.000 A 
ATOM     25  N   UNL     1      43.219   4.757  11.719  0.00  0.00    +0.000 NA
ATOM     26  C   UNL     1      42.772   5.884  11.275  0.00  0.00    +0.000 A 
ATOM     27  N   UNL     1      43.473   7.060  11.306  0.00  0.00    +0.000 N 
ATOM     28  C   UNL     1      44.736   7.167  11.847  0.00  0.00    +0.000 A 
ATOM     29  O   UNL     1      45.319   8.247  11.898  0.00  0.00    +0.000 OA
ATOM     30  C   UNL     1      45.280   5.927  12.351  0.00  0.00    +0.000 A 
ATOM     31  H   UNL     1      43.066   7.913  10.943  0.00  0.00    +0.000 HD
ENDBRANCH  18  21
ENDBRANCH   1  17
TORSDOF 6
ENDMDL
MODEL 7
REMARK VINA RESULT:    -7.264      2.996      4.921
REMARK INTER + INTRA:         -11.086
REMARK INTER:                  -9.892
REMARK INTRA:                  -1.194
REMARK UNBOUND:                -1.274
REMARK  Name = 
REMARK  7 active torsions:
REMARK  status: ('A' for Active; 'I' for Inactive)
REMARK    1  A    between atoms: C_1  and  C_2
REMARK    2  A    between atoms: C_6  and  C_7
REMARK    3  A    between atoms: C_7  and  C_8
REMARK    4  A    between atoms: C_8  and  C_9
REMARK    5  A    between atoms: C_12  and  C_13
REMARK    6  A    between atoms: C_13  and  N_14
REMARK    7  A    between atoms: C_15  and  C_17
REMARK                            x       y       z     vdW  Elec       q    Type
REMARK                         _______ _______ _______ _____ _____    ______ ____
ROOT
ATOM      1  C   UNL     1      47.248   5.666  14.472  0.00  0.00    +0.000 C 
ENDROOT
BRANCH   1   5
ATOM      2  C   UNL     1      45.136   4.456  10.900  0.00  0.00    +0.000 A 
ATOM      3  C   UNL     1      45.853   5.655  10.925  0.00  0.00    +0.000 A 
ATOM      4  C   UNL     1      46.592   6.020  12.057  0.00  0.00    +0.000 A 
ATOM      5  C   UNL     1      46.642   5.184  13.180  0.00  0.00    +0.000 A 
ATOM      6  C   UNL     1      46.029   3.929  13.108  0.00  0.00    +0.000 A 
ATOM      7  C   UNL     1      45.284   3.570  11.982  0.00  0.00    +0.000 A 
BRANCH   2   8
ATOM      8  C   UNL     1      44.046   4.173   9.888  0.00  0.00    +0.000 C 
BRANCH   8   9
ATOM      9  C   UNL     1      44.404   4.049   8.399  0.00  0.00    +0.000 C 
BRANCH   9  15
ATOM     10  C   UNL     1      47.788   2.521   4.995  0.00  0.00    +0.000 C 
ATOM     11  C   UNL     1      46.976   2.255   6.228  0.00  0.00    +0.000 A 
ATOM     12  C   UNL     1      47.059   1.018   6.873  0.00  0.00    +0.000 A 
ATOM     13  C   UNL     1      46.402   0.813   8.084  0.00  0.00    +0.000 A 
ATOM     14  C   UNL     1      45.621   1.824   8.642  0.00  0.00    +0.000 A 
ATOM     15  C   UNL     1      45.449   3.041   7.976  0.00  0.00    +0.000 A 
ATOM     16  C   UNL     1      46.157   3.254   6.777  0.00  0.00    +0.000 A 
ENDBRANCH   9  15
ENDBRANCH   8   9
ENDBRANCH   2   8
ENDBRANCH   1   5
BRANCH   1  17
ATOM     17  N   UNL     1      47.515   7.091  14.427  0.00  0.00    +0.000 N 
ATOM     18  C   UNL     1      48.798   7.561  14.554  0.00  0.00    +0.000 C 
ATOM     19  O   UNL     1      49.749   6.793  14.692  0.00  0.00    +0.000 OA
ATOM     20  H   UNL     1      46.731   7.731  14.529  0.00  0.00    +0.000 HD
BRANCH  18  21
ATOM     21  C   UNL     1      49.014   9.014  14.460  0.00  0.00    +0.000 A 
ATOM     22  C   UNL     1      49.120   9.757  15.630  0.00  0.00    +0.000 A 
ATOM     23  S   UNL     1      49.413  11.416  15.371  0.00  0.00    +0.000 S 
ATOM     24  C   UNL     1      49.357  11.215  13.685  0.00  0.00    +0.000 A 
ATOM     25  N   UNL     1      49.512  12.280  12.851  0.00  0.00    +0.000 NA
ATOM     26  C   UNL     1      49.410  11.997  11.594  0.00  0.00    +0.000 A 
ATOM     27  N   UNL     1      49.171  10.741  11.102  0.00  0.00    +0.000 N 
ATOM     28  C   UNL     1      49.039   9.631  11.907  0.00  0.00    +0.000 A 
ATOM     29  O   UNL     1      48.869   8.513  11.429  0.00  0.00    +0.000 OA
ATOM     30  C   UNL     1      49.140   9.902  13.323  0.00  0.00    +0.000 A 
ATOM     31  H   UNL     1      49.103  10.583  10.104  0.00  0.00    +0.000 HD
ENDBRANCH  18  21
ENDBRANCH   1  17
TORSDOF 6
ENDMDL
MODEL 8
REMARK VINA RESULT:    -7.063      3.771      5.912
REMARK INTER + INTRA:         -10.814
REMARK INTER:                  -9.775
REMARK INTRA:                  -1.039
REMARK UNBOUND:                -1.274
REMARK  Name = 
REMARK  7 active torsions:
REMARK  status: ('A' for Active; 'I' for Inactive)
REMARK    1  A    between atoms: C_1  and  C_2
REMARK    2  A    between atoms: C_6  and  C_7
REMARK    3  A    between atoms: C_7  and  C_8
REMARK    4  A    between atoms: C_8  and  C_9
REMARK    5  A    between atoms: C_12  and  C_13
REMARK    6  A    between atoms: C_13  and  N_14
REMARK    7  A    between atoms: C_15  and  C_17
REMARK                            x       y       z     vdW  Elec       q    Type
REMARK                         _______ _______ _______ _____ _____    ______ ____
ROOT
ATOM      1  C   UNL     1      47.685   6.445  13.988  0.00  0.00    +0.000 C 
ENDROOT
BRANCH   1   5
ATOM      2  C   UNL     1      44.991   4.229  11.435  0.00  0.00    +0.000 A 
ATOM      3  C   UNL     1      45.402   3.697  12.661  0.00  0.00    +0.000 A 
ATOM      4  C   UNL     1      46.222   4.438  13.520  0.00  0.00    +0.000 A 
ATOM      5  C   UNL     1      46.633   5.733  13.179  0.00  0.00    +0.000 A 
ATOM      6  C   UNL     1      46.121   6.313  12.013  0.00  0.00    +0.000 A 
ATOM      7  C   UNL     1      45.311   5.569  11.152  0.00  0.00    +0.000 A 
BRANCH   2   8
ATOM      8  C   UNL     1      44.428   3.377  10.319  0.00  0.00    +0.000 C 
BRANCH   8   9
ATOM      9  C   UNL     1      44.643   3.797   8.856  0.00  0.00    +0.000 C 
BRANCH   9  15
ATOM     10  C   UNL     1      46.816  -0.591   7.679  0.00  0.00    +0.000 C 
ATOM     11  C   UNL     1      46.771   0.904   7.572  0.00  0.00    +0.000 A 
ATOM     12  C   UNL     1      47.744   1.588   6.839  0.00  0.00    +0.000 A 
ATOM     13  C   UNL     1      47.633   2.962   6.637  0.00  0.00    +0.000 A 
ATOM     14  C   UNL     1      46.575   3.674   7.199  0.00  0.00    +0.000 A 
ATOM     15  C   UNL     1      45.634   3.031   8.010  0.00  0.00    +0.000 A 
ATOM     16  C   UNL     1      45.730   1.635   8.167  0.00  0.00    +0.000 A 
ENDBRANCH   9  15
ENDBRANCH   8   9
ENDBRANCH   2   8
ENDBRANCH   1   5
BRANCH   1  17
ATOM     17  N   UNL     1      48.683   7.056  13.131  0.00  0.00    +0.000 N 
ATOM     18  C   UNL     1      48.914   8.408  13.189  0.00  0.00    +0.000 C 
ATOM     19  O   UNL     1      48.297   9.128  13.972  0.00  0.00    +0.000 OA
ATOM     20  H   UNL     1      49.037   6.518  12.345  0.00  0.00    +0.000 HD
BRANCH  18  21
ATOM     21  C   UNL     1      49.966   8.967  12.325  0.00  0.00    +0.000 A 
ATOM     22  C   UNL     1      51.260   8.473  12.432  0.00  0.00    +0.000 A 
ATOM     23  S   UNL     1      52.363   9.180  11.342  0.00  0.00    +0.000 S 
ATOM     24  C   UNL     1      51.166  10.212  10.721  0.00  0.00    +0.000 A 
ATOM     25  N   UNL     1      51.462  11.117   9.748  0.00  0.00    +0.000 NA
ATOM     26  C   UNL     1      50.472  11.866   9.391  0.00  0.00    +0.000 A 
ATOM     27  N   UNL     1      49.211  11.784   9.921  0.00  0.00    +0.000 N 
ATOM     28  C   UNL     1      48.859  10.863  10.884  0.00  0.00    +0.000 A 
ATOM     29  O   UNL     1      47.708  10.790  11.305  0.00  0.00    +0.000 OA
ATOM     30  C   UNL     1      49.939  10.008  11.318  0.00  0.00    +0.000 A 
ATOM     31  H   UNL     1      48.475  12.400   9.597  0.00  0.00    +0.000 HD
ENDBRANCH  18  21
ENDBRANCH   1  17
TORSDOF 6
ENDMDL
MODEL 9
REMARK VINA RESULT:    -7.058      3.951      5.915
REMARK INTER + INTRA:         -10.807
REMARK INTER:                  -9.394
REMARK INTRA:                  -1.413
REMARK UNBOUND:                -1.274
REMARK  Name = 
REMARK  7 active torsions:
REMARK  status: ('A' for Active; 'I' for Inactive)
REMARK    1  A    between atoms: C_1  and  C_2
REMARK    2  A    between atoms: C_6  and  C_7
REMARK    3  A    between atoms: C_7  and  C_8
REMARK    4  A    between atoms: C_8  and  C_9
REMARK    5  A    between atoms: C_12  and  C_13
REMARK    6  A    between atoms: C_13  and  N_14
REMARK    7  A    between atoms: C_15  and  C_17
REMARK                            x       y       z     vdW  Elec       q    Type
REMARK                         _______ _______ _______ _____ _____    ______ ____
ROOT
ATOM      1  C   UNL     1      48.355   6.597  13.688  0.00  0.00    +0.000 C 
ENDROOT
BRANCH   1   5
ATOM      2  C   UNL     1      45.168   3.979  12.397  0.00  0.00    +0.000 A 
ATOM      3  C   UNL     1      46.212   3.486  13.184  0.00  0.00    +0.000 A 
ATOM      4  C   UNL     1      47.212   4.343  13.658  0.00  0.00    +0.000 A 
ATOM      5  C   UNL     1      47.177   5.714  13.371  0.00  0.00    +0.000 A 
ATOM      6  C   UNL     1      46.067   6.227  12.691  0.00  0.00    +0.000 A 
ATOM      7  C   UNL     1      45.075   5.369  12.209  0.00  0.00    +0.000 A 
BRANCH   2   8
ATOM      8  C   UNL     1      44.279   3.083  11.560  0.00  0.00    +0.000 C 
BRANCH   8   9
ATOM      9  C   UNL     1      43.901   3.505  10.131  0.00  0.00    +0.000 C 
BRANCH   9  15
ATOM     10  C   UNL     1      46.871   0.296   7.631  0.00  0.00    +0.000 C 
ATOM     11  C   UNL     1      46.427   1.700   7.915  0.00  0.00    +0.000 A 
ATOM     12  C   UNL     1      47.044   2.778   7.274  0.00  0.00    +0.000 A 
ATOM     13  C   UNL     1      46.552   4.070   7.444  0.00  0.00    +0.000 A 
ATOM     14  C   UNL     1      45.467   4.306   8.287  0.00  0.00    +0.000 A 
ATOM     15  C   UNL     1      44.885   3.260   9.009  0.00  0.00    +0.000 A 
ATOM     16  C   UNL     1      45.360   1.951   8.793  0.00  0.00    +0.000 A 
ENDBRANCH   9  15
ENDBRANCH   8   9
ENDBRANCH   2   8
ENDBRANCH   1   5
BRANCH   1  17
ATOM     17  N   UNL     1      48.527   7.626  12.680  0.00  0.00    +0.000 N 
ATOM     18  C   UNL     1      48.467   8.953  13.025  0.00  0.00    +0.000 C 
ATOM     19  O   UNL     1      48.284   9.302  14.190  0.00  0.00    +0.000 OA
ATOM     20  H   UNL     1      48.464   7.356  11.702  0.00  0.00    +0.000 HD
BRANCH  18  21
ATOM     21  C   UNL     1      48.690   9.953  11.968  0.00  0.00    +0.000 A 
ATOM     22  C   UNL     1      47.652  10.810  11.622  0.00  0.00    +0.000 A 
ATOM     23  S   UNL     1      48.065  11.942  10.416  0.00  0.00    +0.000 S 
ATOM     24  C   UNL     1      49.629  11.297  10.273  0.00  0.00    +0.000 A 
ATOM     25  N   UNL     1      50.514  11.807   9.372  0.00  0.00    +0.000 NA
ATOM     26  C   UNL     1      51.654  11.201   9.337  0.00  0.00    +0.000 A 
ATOM     27  N   UNL     1      51.986  10.133  10.128  0.00  0.00    +0.000 N 
ATOM     28  C   UNL     1      51.135   9.605  11.075  0.00  0.00    +0.000 A 
ATOM     29  O   UNL     1      51.482   8.675  11.796  0.00  0.00    +0.000 OA
ATOM     30  C   UNL     1      49.843  10.248  11.144  0.00  0.00    +0.000 A 
ATOM     31  H   UNL     1      52.899   9.702  10.055  0.00  0.00    +0.000 HD
ENDBRANCH  18  21
ENDBRANCH   1  17
TORSDOF 6
ENDMDL
