MODEL 1
REMARK VINA RESULT:    -8.018      0.000      0.000
REMARK INTER + INTRA:         -12.088
REMARK INTER:                 -11.298
REMARK INTRA:                  -0.790
REMARK UNBOUND:                -0.790
REMARK  Name = 
REMARK  7 active torsions:
REMARK  status: ('A' for Active; 'I' for Inactive)
REMARK    1  A    between atoms: C_2  and  C_20
REMARK    2  A    between atoms: N_3  and  C_4
REMARK    3  A    between atoms: C_4  and  C_5
REMARK    4  A    between atoms: C_8  and  C_9
REMARK    5  A    between atoms: C_9  and  C_10
REMARK    6  A    between atoms: C_10  and  N_11
REMARK    7  A    between atoms: N_11  and  C_12
REMARK                            x       y       z     vdW  Elec       q    Type
REMARK                         _______ _______ _______ _____ _____    ______ ____
ROOT
ATOM      1  C   UNL     1      46.924   5.999  13.157  0.00  0.00    +0.000 A 
ATOM      2  C   UNL     1      46.838   6.547  11.878  0.00  0.00    +0.000 A 
ATOM      3  C   UNL     1      45.855   6.115  10.992  0.00  0.00    +0.000 A 
ATOM      4  C   UNL     1      44.915   5.137  11.360  0.00  0.00    +0.000 A 
ATOM      5  C   UNL     1      45.006   4.589  12.647  0.00  0.00    +0.000 A 
ATOM      6  C   UNL     1      45.997   5.019  13.538  0.00  0.00    +0.000 A 
ENDROOT
BRANCH   1   7
ATOM      7  C   UNL     1      47.992   6.474  14.095  0.00  0.00    +0.000 C 
BRANCH   7  10
ATOM      8  O   UNL     1      49.979   6.129  15.972  0.00  0.00    +0.000 OA
ATOM      9  C   UNL     1      48.827   5.901  16.310  0.00  0.00    +0.000 C 
ATOM     10  N   UNL     1      47.765   6.026  15.440  0.00  0.00    +0.000 N 
ATOM     11  H   UNL     1      46.833   5.835  15.792  0.00  0.00    +0.000 HD
BRANCH   9  12
ATOM     12  C   UNL     1      48.475   5.482  17.670  0.00  0.00    +0.000 A 
ATOM     13  N   UNL     1      48.376   4.193  18.060  0.00  0.00    +0.000 NA
ATOM     14  N   UNL     1      48.103   4.283  19.379  0.00  0.00    +0.000 N 
ATOM     15  C   UNL     1      47.924   5.560  19.834  0.00  0.00    +0.000 A 
ATOM     16  C   UNL     1      47.584   6.084  21.078  0.00  0.00    +0.000 A 
ATOM     17  C   UNL     1      47.483   7.469  21.113  0.00  0.00    +0.000 A 
ATOM     18  N   UNL     1      47.706   8.295  20.066  0.00  0.00    +0.000 NA
ATOM     19  C   UNL     1      48.059   7.758  18.871  0.00  0.00    +0.000 A 
ATOM     20  C   UNL     1      48.165   6.370  18.732  0.00  0.00    +0.000 A 
ATOM     21  H   UNL     1      48.044   3.424  19.918  0.00  0.00    +0.000 HD
ENDBRANCH   9  12
ENDBRANCH   7  10
ENDBRANCH   1   7
BRANCH   4  22
ATOM     22  C   UNL     1      43.807   4.670  10.428  0.00  0.00    +0.000 C 
BRANCH  22  23
ATOM     23  C   UNL     1      44.328   4.153   9.085  0.00  0.00    +0.000 C 
BRANCH  23  24
ATOM     24  N   UNL     1      44.976   2.853   9.164  0.00  0.00    +0.000 N 
ATOM     25  H   UNL     1      45.385   2.603  10.061  0.00  0.00    +0.000 HD
BRANCH  24  26
ATOM     26  C   UNL     1      45.787   2.470   8.085  0.00  0.00    +0.000 A 
ATOM     27  C   UNL     1      46.461   1.240   8.007  0.00  0.00    +0.000 A 
ATOM     28  C   UNL     1      47.319   0.944   6.945  0.00  0.00    +0.000 A 
ATOM     29  C   UNL     1      47.540   1.887   5.950  0.00  0.00    +0.000 A 
ATOM     30  C   UNL     1      46.889   3.117   6.010  0.00  0.00    +0.000 A 
ATOM     31  C   UNL     1      46.025   3.404   7.071  0.00  0.00    +0.000 A 
ENDBRANCH  24  26
ENDBRANCH  23  24
ENDBRANCH  22  23
ENDBRANCH   4  22
TORSDOF 7
ENDMDL
MODEL 2
REMARK VINA RESULT:    -7.845      1.425      2.344
REMARK INTER + INTRA:         -11.845
REMARK INTER:                 -10.916
REMARK INTRA:                  -0.929
REMARK UNBOUND:                -0.790
REMARK  Name = 
REMARK  7 active torsions:
REMARK  status: ('A' for Active; 'I' for Inactive)
REMARK    1  A    between atoms: C_2  and  C_20
REMARK    2  A    between atoms: N_3  and  C_4
REMARK    3  A    between atoms: C_4  and  C_5
REMARK    4  A    between atoms: C_8  and  C_9
REMARK    5  A    between atoms: C_9  and  C_10
REMARK    6  A    between atoms: C_10  and  N_11
REMARK    7  A    between atoms: N_11  and  C_12
REMARK                            x       y       z     vdW  Elec       q    Type
REMARK                         _______ _______ _______ _____ _____    ______ ____
ROOT
ATOM      1  C   UNL     1      46.408   6.217  12.561  0.00  0.00    +0.000 A 
ATOM      2  C   UNL     1      46.184   5.053  13.293  0.00  0.00    +0.000 A 
ATOM      3  C   UNL     1      45.384   4.038  12.774  0.00  0.00    +0.000 A 
ATOM      4  C   UNL     1      44.800   4.145  11.500  0.00  0.00    +0.000 A 
ATOM      5  C   UNL     1      45.030   5.318  10.768  0.00  0.00    +0.000 A 
ATOM      6  C   UNL     1      45.830   6.342  11.290  0.00  0.00    +0.000 A 
ENDROOT
BRANCH   1   7
ATOM      7  C   UNL     1      47.268   7.300  13.140  0.00  0.00    +0.000 C 
BRANCH   7  10
ATOM      8  O   UNL     1      49.819   6.969  14.129  0.00  0.00    +0.000 OA
ATOM      9  C   UNL     1      48.889   6.925  14.920  0.00  0.00    +0.000 C 
ATOM     10  N   UNL     1      47.575   7.060  14.522  0.00  0.00    +0.000 N 
ATOM     11  H   UNL     1      46.854   7.029  15.235  0.00  0.00    +0.000 HD
BRANCH   9  12
ATOM     12  C   UNL     1      49.089   6.732  16.360  0.00  0.00    +0.000 A 
ATOM     13  N   UNL     1      49.630   7.660  17.178  0.00  0.00    +0.000 NA
ATOM     14  N   UNL     1      49.556   7.086  18.398  0.00  0.00    +0.000 N 
ATOM     15  C   UNL     1      49.087   5.802  18.392  0.00  0.00    +0.000 A 
ATOM     16  C   UNL     1      48.908   4.854  19.395  0.00  0.00    +0.000 A 
ATOM     17  C   UNL     1      48.413   3.634  18.954  0.00  0.00    +0.000 A 
ATOM     18  N   UNL     1      48.093   3.337  17.674  0.00  0.00    +0.000 NA
ATOM     19  C   UNL     1      48.256   4.288  16.721  0.00  0.00    +0.000 A 
ATOM     20  C   UNL     1      48.768   5.543  17.065  0.00  0.00    +0.000 A 
ATOM     21  H   UNL     1      49.852   7.630  19.204  0.00  0.00    +0.000 HD
ENDBRANCH   9  12
ENDBRANCH   7  10
ENDBRANCH   1   7
BRANCH   4  22
ATOM     22  C   UNL     1      43.952   3.040  10.889  0.00  0.00    +0.000 C 
BRANCH  22  23
ATOM     23  C   UNL     1      44.326   2.726   9.438  0.00  0.00    +0.000 C 
BRANCH  23  24
ATOM     24  N   UNL     1      45.623   2.084   9.288  0.00  0.00    +0.000 N 
ATOM     25  H   UNL     1      46.320   2.295   9.998  0.00  0.00    +0.000 HD
BRANCH  24  26
ATOM     26  C   UNL     1      46.175   2.038   7.999  0.00  0.00    +0.000 A 
ATOM     27  C   UNL     1      46.869   0.932   7.481  0.00  0.00    +0.000 A 
ATOM     28  C   UNL     1      47.467   0.971   6.219  0.00  0.00    +0.000 A 
ATOM     29  C   UNL     1      47.403   2.132   5.458  0.00  0.00    +0.000 A 
ATOM     30  C   UNL     1      46.726   3.243   5.954  0.00  0.00    +0.000 A 
ATOM     31  C   UNL     1      46.124   3.196   7.215  0.00  0.00    +0.000 A 
ENDBRANCH  24  26
ENDBRANCH  23  24
ENDBRANCH  22  23
ENDBRANCH   4  22
TORSDOF 7
ENDMDL
MODEL 3
REMARK VINA RESULT:    -7.376      2.282      9.081
REMARK INTER + INTRA:         -11.185
REMARK INTER:                  -9.655
REMARK INTRA:                  -1.530
REMARK UNBOUND:                -0.790
REMARK  Name = 
REMARK  7 active torsions:
REMARK  status: ('A' for Active; 'I' for Inactive)
REMARK    1  A    between atoms: C_2  and  C_20
REMARK    2  A    between atoms: N_3  and  C_4
REMARK    3  A    between atoms: C_4  and  C_5
REMARK    4  A    between atoms: C_8  and  C_9
REMARK    5  A    between atoms: C_9  and  C_10
REMARK    6  A    between atoms: C_10  and  N_11
REMARK    7  A    between atoms: N_11  and  C_12
REMARK                            x       y       z     vdW  Elec       q    Type
REMARK                         _______ _______ _______ _____ _____    ______ ____
ROOT
ATOM      1  C   UNL     1      47.871   7.814  13.778  0.00  0.00    +0.000 A 
ATOM      2  C   UNL     1      48.513   6.675  14.260  0.00  0.00    +0.000 A 
ATOM      3  C   UNL     1      49.086   6.675  15.529  0.00  0.00    +0.000 A 
ATOM      4  C   UNL     1      49.019   7.803  16.364  0.00  0.00    +0.000 A 
ATOM      5  C   UNL     1      48.372   8.946  15.873  0.00  0.00    +0.000 A 
ATOM      6  C   UNL     1      47.799   8.950  14.596  0.00  0.00    +0.000 A 
ENDROOT
BRANCH   1   7
ATOM      7  C   UNL     1      47.265   7.796  12.407  0.00  0.00    +0.000 C 
BRANCH   7  10
ATOM      8  O   UNL     1      44.766   6.758  12.924  0.00  0.00    +0.000 OA
ATOM      9  C   UNL     1      45.561   6.058  12.316  0.00  0.00    +0.000 C 
ATOM     10  N   UNL     1      46.841   6.478  12.024  0.00  0.00    +0.000 N 
ATOM     11  H   UNL     1      47.444   5.851  11.502  0.00  0.00    +0.000 HD
BRANCH   9  12
ATOM     12  C   UNL     1      45.220   4.714  11.837  0.00  0.00    +0.000 A 
ATOM     13  N   UNL     1      44.932   3.675  12.650  0.00  0.00    +0.000 NA
ATOM     14  N   UNL     1      44.621   2.680  11.792  0.00  0.00    +0.000 N 
ATOM     15  C   UNL     1      44.789   2.998  10.472  0.00  0.00    +0.000 A 
ATOM     16  C   UNL     1      44.639   2.270   9.296  0.00  0.00    +0.000 A 
ATOM     17  C   UNL     1      44.936   2.977   8.138  0.00  0.00    +0.000 A 
ATOM     18  N   UNL     1      45.322   4.272   8.091  0.00  0.00    +0.000 NA
ATOM     19  C   UNL     1      45.437   4.965   9.252  0.00  0.00    +0.000 A 
ATOM     20  C   UNL     1      45.180   4.331  10.472  0.00  0.00    +0.000 A 
ATOM     21  H   UNL     1      44.303   1.795  12.176  0.00  0.00    +0.000 HD
ENDBRANCH   9  12
ENDBRANCH   7  10
ENDBRANCH   1   7
BRANCH   4  22
ATOM     22  C   UNL     1      49.602   7.823  17.769  0.00  0.00    +0.000 C 
BRANCH  22  23
ATOM     23  C   UNL     1      48.590   7.428  18.847  0.00  0.00    +0.000 C 
BRANCH  23  24
ATOM     24  N   UNL     1      48.859   6.139  19.466  0.00  0.00    +0.000 N 
ATOM     25  H   UNL     1      49.687   6.082  20.055  0.00  0.00    +0.000 HD
BRANCH  24  26
ATOM     26  C   UNL     1      48.691   4.995  18.672  0.00  0.00    +0.000 A 
ATOM     27  C   UNL     1      49.740   4.140  18.296  0.00  0.00    +0.000 A 
ATOM     28  C   UNL     1      49.528   3.058  17.437  0.00  0.00    +0.000 A 
ATOM     29  C   UNL     1      48.261   2.827  16.915  0.00  0.00    +0.000 A 
ATOM     30  C   UNL     1      47.207   3.666  17.268  0.00  0.00    +0.000 A 
ATOM     31  C   UNL     1      47.425   4.743  18.134  0.00  0.00    +0.000 A 
ENDBRANCH  24  26
ENDBRANCH  23  24
ENDBRANCH  22  23
ENDBRANCH   4  22
TORSDOF 7
ENDMDL
MODEL 4
REMARK VINA RESULT:    -7.332      4.533      6.797
REMARK INTER + INTRA:         -11.123
REMARK INTER:                 -10.322
REMARK INTRA:                  -0.801
REMARK UNBOUND:                -0.790
REMARK  Name = 
REMARK  7 active torsions:
REMARK  status: ('A' for Active; 'I' for Inactive)
REMARK    1  A    between atoms: C_2  and  C_20
REMARK    2  A    between atoms: N_3  and  C_4
REMARK    3  A    between atoms: C_4  and  C_5
REMARK    4  A    between atoms: C_8  and  C_9
REMARK    5  A    between atoms: C_9  and  C_10
REMARK    6  A    between atoms: C_10  and  N_11
REMARK    7  A    between atoms: N_11  and  C_12
REMARK                            x       y       z     vdW  Elec       q    Type
REMARK                         _______ _______ _______ _____ _____    ______ ____
ROOT
ATOM      1  C   UNL     1      45.592   6.638  12.553  0.00  0.00    +0.000 A 
ATOM      2  C   UNL     1      44.609   6.852  11.587  0.00  0.00    +0.000 A 
ATOM      3  C   UNL     1      44.282   8.146  11.192  0.00  0.00    +0.000 A 
ATOM      4  C   UNL     1      44.938   9.265  11.731  0.00  0.00    +0.000 A 
ATOM      5  C   UNL     1      45.925   9.044  12.702  0.00  0.00    +0.000 A 
ATOM      6  C   UNL     1      46.253   7.744  13.104  0.00  0.00    +0.000 A 
ENDROOT
BRANCH   1   7
ATOM      7  C   UNL     1      45.926   5.237  12.969  0.00  0.00    +0.000 C 
BRANCH   7  10
ATOM      8  O   UNL     1      47.355   3.178  14.115  0.00  0.00    +0.000 OA
ATOM      9  C   UNL     1      46.981   4.088  14.840  0.00  0.00    +0.000 C 
ATOM     10  N   UNL     1      46.244   5.153  14.366  0.00  0.00    +0.000 N 
ATOM     11  H   UNL     1      45.980   5.881  15.022  0.00  0.00    +0.000 HD
BRANCH   9  12
ATOM     12  C   UNL     1      47.287   4.128  16.273  0.00  0.00    +0.000 A 
ATOM     13  N   UNL     1      46.746   3.290  17.184  0.00  0.00    +0.000 NA
ATOM     14  N   UNL     1      47.355   3.643  18.337  0.00  0.00    +0.000 N 
ATOM     15  C   UNL     1      48.184   4.725  18.231  0.00  0.00    +0.000 A 
ATOM     16  C   UNL     1      48.943   5.432  19.160  0.00  0.00    +0.000 A 
ATOM     17  C   UNL     1      49.645   6.507  18.632  0.00  0.00    +0.000 A 
ATOM     18  N   UNL     1      49.650   6.874  17.330  0.00  0.00    +0.000 NA
ATOM     19  C   UNL     1      48.920   6.153  16.443  0.00  0.00    +0.000 A 
ATOM     20  C   UNL     1      48.161   5.064  16.884  0.00  0.00    +0.000 A 
ATOM     21  H   UNL     1      47.153   3.101  19.172  0.00  0.00    +0.000 HD
ENDBRANCH   9  12
ENDBRANCH   7  10
ENDBRANCH   1   7
BRANCH   4  22
ATOM     22  C   UNL     1      44.629  10.689  11.294  0.00  0.00    +0.000 C 
BRANCH  22  23
ATOM     23  C   UNL     1      43.138  10.936  11.055  0.00  0.00    +0.000 C 
BRANCH  23  24
ATOM     24  N   UNL     1      42.389  11.246  12.264  0.00  0.00    +0.000 N 
ATOM     25  H   UNL     1      42.750  10.859  13.133  0.00  0.00    +0.000 HD
BRANCH  24  26
ATOM     26  C   UNL     1      40.990  11.177  12.192  0.00  0.00    +0.000 A 
ATOM     27  C   UNL     1      40.125  11.850  13.069  0.00  0.00    +0.000 A 
ATOM     28  C   UNL     1      38.739  11.683  13.001  0.00  0.00    +0.000 A 
ATOM     29  C   UNL     1      38.193  10.814  12.065  0.00  0.00    +0.000 A 
ATOM     30  C   UNL     1      39.032  10.129  11.189  0.00  0.00    +0.000 A 
ATOM     31  C   UNL     1      40.417  10.307  11.258  0.00  0.00    +0.000 A 
ENDBRANCH  24  26
ENDBRANCH  23  24
ENDBRANCH  22  23
ENDBRANCH   4  22
TORSDOF 7
ENDMDL
MODEL 5
REMARK VINA RESULT:    -7.311      3.754      6.821
REMARK INTER + INTRA:         -11.093
REMARK INTER:                 -10.294
REMARK INTRA:                  -0.799
REMARK UNBOUND:                -0.790
REMARK  Name = 
REMARK  7 active torsions:
REMARK  status: ('A' for Active; 'I' for Inactive)
REMARK    1  A    between atoms: C_2  and  C_20
REMARK    2  A    between atoms: N_3  and  C_4
REMARK    3  A    between atoms: C_4  and  C_5
REMARK    4  A    between atoms: C_8  and  C_9
REMARK    5  A    between atoms: C_9  and  C_10
REMARK    6  A    between atoms: C_10  and  N_11
REMARK    7  A    between atoms: N_11  and  C_12
REMARK                            x       y       z     vdW  Elec       q    Type
REMARK                         _______ _______ _______ _____ _____    ______ ____
ROOT
ATOM      1  C   UNL     1      45.489   2.550   8.583  0.00  0.00    +0.000 A 
ATOM      2  C   UNL     1      46.067   1.294   8.402  0.00  0.00    +0.000 A 
ATOM      3  C   UNL     1      46.715   0.983   7.210  0.00  0.00    +0.000 A 
ATOM      4  C   UNL     1      46.826   1.921   6.169  0.00  0.00    +0.000 A 
ATOM      5  C   UNL     1      46.243   3.183   6.357  0.00  0.00    +0.000 A 
ATOM      6  C   UNL     1      45.587   3.496   7.553  0.00  0.00    +0.000 A 
ENDROOT
BRANCH   1   7
ATOM      7  C   UNL     1      44.791   2.863   9.872  0.00  0.00    +0.000 C 
BRANCH   7  10
ATOM      8  O   UNL     1      43.680   4.008  12.118  0.00  0.00    +0.000 OA
ATOM      9  C   UNL     1      44.492   4.665  11.484  0.00  0.00    +0.000 C 
ATOM     10  N   UNL     1      45.090   4.189  10.336  0.00  0.00    +0.000 N 
ATOM     11  H   UNL     1      45.768   4.781   9.869  0.00  0.00    +0.000 HD
BRANCH   9  12
ATOM     12  C   UNL     1      44.906   6.011  11.892  0.00  0.00    +0.000 A 
ATOM     13  N   UNL     1      44.231   7.136  11.573  0.00  0.00    +0.000 NA
ATOM     14  N   UNL     1      44.925   8.108  12.203  0.00  0.00    +0.000 N 
ATOM     15  C   UNL     1      46.063   7.678  12.827  0.00  0.00    +0.000 A 
ATOM     16  C   UNL     1      47.067   8.340  13.528  0.00  0.00    +0.000 A 
ATOM     17  C   UNL     1      48.083   7.517  13.996  0.00  0.00    +0.000 A 
ATOM     18  N   UNL     1      48.136   6.175  13.836  0.00  0.00    +0.000 NA
ATOM     19  C   UNL     1      47.132   5.554  13.170  0.00  0.00    +0.000 A 
ATOM     20  C   UNL     1      46.075   6.302  12.642  0.00  0.00    +0.000 A 
ATOM     21  H   UNL     1      44.566   9.059  12.162  0.00  0.00    +0.000 HD
ENDBRANCH   9  12
ENDBRANCH   7  10
ENDBRANCH   1   7
BRANCH   4  22
ATOM     22  C   UNL     1      47.559   1.626   4.870  0.00  0.00    +0.000 C 
BRANCH  22  23
ATOM     23  C   UNL     1      46.653   1.027   3.790  0.00  0.00    +0.000 C 
BRANCH  23  24
ATOM     24  N   UNL     1      47.356   0.199   2.822  0.00  0.00    +0.000 N 
ATOM     25  H   UNL     1      47.282   0.477   1.847  0.00  0.00    +0.000 HD
BRANCH  24  26
ATOM     26  C   UNL     1      47.277  -1.193   2.986  0.00  0.00    +0.000 A 
ATOM     27  C   UNL     1      46.551  -1.822   4.010  0.00  0.00    +0.000 A 
ATOM     28  C   UNL     1      46.571  -3.210   4.173  0.00  0.00    +0.000 A 
ATOM     29  C   UNL     1      47.344  -3.995   3.326  0.00  0.00    +0.000 A 
ATOM     30  C   UNL     1      48.078  -3.391   2.307  0.00  0.00    +0.000 A 
ATOM     31  C   UNL     1      48.048  -2.003   2.145  0.00  0.00    +0.000 A 
ENDBRANCH  24  26
ENDBRANCH  23  24
ENDBRANCH  22  23
ENDBRANCH   4  22
TORSDOF 7
ENDMDL
MODEL 6
REMARK VINA RESULT:    -7.191      3.561      8.482
REMARK INTER + INTRA:         -10.923
REMARK INTER:                  -8.963
REMARK INTRA:                  -1.961
REMARK UNBOUND:                -0.790
REMARK  Name = 
REMARK  7 active torsions:
REMARK  status: ('A' for Active; 'I' for Inactive)
REMARK    1  A    between atoms: C_2  and  C_20
REMARK    2  A    between atoms: N_3  and  C_4
REMARK    3  A    between atoms: C_4  and  C_5
REMARK    4  A    between atoms: C_8  and  C_9
REMARK    5  A    between atoms: C_9  and  C_10
REMARK    6  A    between atoms: C_10  and  N_11
REMARK    7  A    between atoms: N_11  and  C_12
REMARK                            x       y       z     vdW  Elec       q    Type
REMARK                         _______ _______ _______ _____ _____    ______ ____
ROOT
ATOM      1  C   UNL     1      49.453   7.575  16.119  0.00  0.00    +0.000 A 
ATOM      2  C   UNL     1      50.436   6.624  16.390  0.00  0.00    +0.000 A 
ATOM      3  C   UNL     1      50.652   6.189  17.695  0.00  0.00    +0.000 A 
ATOM      4  C   UNL     1      49.882   6.673  18.766  0.00  0.00    +0.000 A 
ATOM      5  C   UNL     1      48.895   7.629  18.487  0.00  0.00    +0.000 A 
ATOM      6  C   UNL     1      48.679   8.071  17.177  0.00  0.00    +0.000 A 
ENDROOT
BRANCH   1   7
ATOM      7  C   UNL     1      49.239   8.034  14.708  0.00  0.00    +0.000 C 
BRANCH   7  10
ATOM      8  O   UNL     1      48.509   6.094  12.892  0.00  0.00    +0.000 OA
ATOM      9  C   UNL     1      47.627   6.795  13.366  0.00  0.00    +0.000 C 
ATOM     10  N   UNL     1      47.892   7.805  14.267  0.00  0.00    +0.000 N 
ATOM     11  H   UNL     1      47.109   8.337  14.632  0.00  0.00    +0.000 HD
BRANCH   9  12
ATOM     12  C   UNL     1      46.213   6.619  13.022  0.00  0.00    +0.000 A 
ATOM     13  N   UNL     1      45.352   7.642  12.825  0.00  0.00    +0.000 NA
ATOM     14  N   UNL     1      44.205   7.023  12.472  0.00  0.00    +0.000 N 
ATOM     15  C   UNL     1      44.257   5.658  12.527  0.00  0.00    +0.000 A 
ATOM     16  C   UNL     1      43.310   4.664  12.302  0.00  0.00    +0.000 A 
ATOM     17  C   UNL     1      43.777   3.369  12.489  0.00  0.00    +0.000 A 
ATOM     18  N   UNL     1      45.040   3.037  12.837  0.00  0.00    +0.000 NA
ATOM     19  C   UNL     1      45.949   4.026  13.027  0.00  0.00    +0.000 A 
ATOM     20  C   UNL     1      45.567   5.364  12.883  0.00  0.00    +0.000 A 
ATOM     21  H   UNL     1      43.410   7.599  12.207  0.00  0.00    +0.000 HD
ENDBRANCH   9  12
ENDBRANCH   7  10
ENDBRANCH   1   7
BRANCH   4  22
ATOM     22  C   UNL     1      50.069   6.191  20.197  0.00  0.00    +0.000 C 
BRANCH  22  23
ATOM     23  C   UNL     1      49.904   4.677  20.349  0.00  0.00    +0.000 C 
BRANCH  23  24
ATOM     24  N   UNL     1      48.574   4.191  20.015  0.00  0.00    +0.000 N 
ATOM     25  H   UNL     1      48.126   3.587  20.700  0.00  0.00    +0.000 HD
BRANCH  24  26
ATOM     26  C   UNL     1      48.359   3.755  18.699  0.00  0.00    +0.000 A 
ATOM     27  C   UNL     1      49.184   2.836  18.032  0.00  0.00    +0.000 A 
ATOM     28  C   UNL     1      48.968   2.497  16.694  0.00  0.00    +0.000 A 
ATOM     29  C   UNL     1      47.931   3.094  15.988  0.00  0.00    +0.000 A 
ATOM     30  C   UNL     1      47.104   4.015  16.627  0.00  0.00    +0.000 A 
ATOM     31  C   UNL     1      47.321   4.344  17.968  0.00  0.00    +0.000 A 
ENDBRANCH  24  26
ENDBRANCH  23  24
ENDBRANCH  22  23
ENDBRANCH   4  22
TORSDOF 7
ENDMDL
MODEL 7
REMARK VINA RESULT:    -7.145      2.531      9.532
REMARK INTER + INTRA:         -10.859
REMARK INTER:                  -9.678
REMARK INTRA:                  -1.181
REMARK UNBOUND:                -0.790
REMARK  Name = 
REMARK  7 active torsions:
REMARK  status: ('A' for Active; 'I' for Inactive)
REMARK    1  A    between atoms: C_2  and  C_20
REMARK    2  A    between atoms: N_3  and  C_4
REMARK    3  A    between atoms: C_4  and  C_5
REMARK    4  A    between atoms: C_8  and  C_9
REMARK    5  A    between atoms: C_9  and  C_10
REMARK    6  A    between atoms: C_10  and  N_11
REMARK    7  A    between atoms: N_11  and  C_12
REMARK                            x       y       z     vdW  Elec       q    Type
REMARK                         _______ _______ _______ _____ _____    ______ ____
ROOT
ATOM      1  C   UNL     1      46.225   7.170  12.781  0.00  0.00    +0.000 A 
ATOM      2  C   UNL     1      46.502   8.479  13.170  0.00  0.00    +0.000 A 
ATOM      3  C   UNL     1      47.492   8.739  14.114  0.00  0.00    +0.000 A 
ATOM      4  C   UNL     1      48.249   7.702  14.685  0.00  0.00    +0.000 A 
ATOM      5  C   UNL     1      47.966   6.386  14.291  0.00  0.00    +0.000 A 
ATOM      6  C   UNL     1      46.969   6.123  13.345  0.00  0.00    +0.000 A 
ENDROOT
BRANCH   1   7
ATOM      7  C   UNL     1      45.152   6.911  11.767  0.00  0.00    +0.000 C 
BRANCH   7  10
ATOM      8  O   UNL     1      43.094   5.429  10.691  0.00  0.00    +0.000 OA
ATOM      9  C   UNL     1      44.229   4.986  10.593  0.00  0.00    +0.000 C 
ATOM     10  N   UNL     1      45.324   5.643  11.115  0.00  0.00    +0.000 N 
ATOM     11  H   UNL     1      46.239   5.226  10.983  0.00  0.00    +0.000 HD
BRANCH   9  12
ATOM     12  C   UNL     1      44.526   3.724   9.909  0.00  0.00    +0.000 A 
ATOM     13  N   UNL     1      44.027   2.527  10.285  0.00  0.00    +0.000 NA
ATOM     14  N   UNL     1      44.503   1.679   9.348  0.00  0.00    +0.000 N 
ATOM     15  C   UNL     1      45.359   2.252   8.449  0.00  0.00    +0.000 A 
ATOM     16  C   UNL     1      46.096   1.741   7.385  0.00  0.00    +0.000 A 
ATOM     17  C   UNL     1      46.877   2.679   6.721  0.00  0.00    +0.000 A 
ATOM     18  N   UNL     1      46.940   3.996   7.021  0.00  0.00    +0.000 NA
ATOM     19  C   UNL     1      46.192   4.470   8.048  0.00  0.00    +0.000 A 
ATOM     20  C   UNL     1      45.390   3.598   8.791  0.00  0.00    +0.000 A 
ATOM     21  H   UNL     1      44.206   0.708   9.383  0.00  0.00    +0.000 HD
ENDBRANCH   9  12
ENDBRANCH   7  10
ENDBRANCH   1   7
BRANCH   4  22
ATOM     22  C   UNL     1      49.362   7.954  15.692  0.00  0.00    +0.000 C 
BRANCH  22  23
ATOM     23  C   UNL     1      48.910   7.784  17.145  0.00  0.00    +0.000 C 
BRANCH  23  24
ATOM     24  N   UNL     1      49.613   6.732  17.862  0.00  0.00    +0.000 N 
ATOM     25  H   UNL     1      50.630   6.777  17.854  0.00  0.00    +0.000 HD
BRANCH  24  26
ATOM     26  C   UNL     1      49.138   5.420  17.713  0.00  0.00    +0.000 A 
ATOM     27  C   UNL     1      49.962   4.310  17.465  0.00  0.00    +0.000 A 
ATOM     28  C   UNL     1      49.428   3.038  17.247  0.00  0.00    +0.000 A 
ATOM     29  C   UNL     1      48.050   2.857  17.246  0.00  0.00    +0.000 A 
ATOM     30  C   UNL     1      47.213   3.945  17.482  0.00  0.00    +0.000 A 
ATOM     31  C   UNL     1      47.754   5.214  17.708  0.00  0.00    +0.000 A 
ENDBRANCH  24  26
ENDBRANCH  23  24
ENDBRANCH  22  23
ENDBRANCH   4  22
TORSDOF 7
ENDMDL
MODEL 8
REMARK VINA RESULT:    -6.900      1.472      2.190
REMARK INTER + INTRA:         -10.514
REMARK INTER:                  -9.731
REMARK INTRA:                  -0.783
REMARK UNBOUND:                -0.790
REMARK  Name = 
REMARK  7 active torsions:
REMARK  status: ('A' for Active; 'I' for Inactive)
REMARK    1  A    between atoms: C_2  and  C_20
REMARK    2  A    between atoms: N_3  and  C_4
REMARK    3  A    between atoms: C_4  and  C_5
REMARK    4  A    between atoms: C_8  and  C_9
REMARK    5  A    between atoms: C_9  and  C_10
REMARK    6  A    between atoms: C_10  and  N_11
REMARK    7  A    between atoms: N_11  and  C_12
REMARK                            x       y       z     vdW  Elec       q    Type
REMARK                         _______ _______ _______ _____ _____    ______ ____
ROOT
ATOM      1  C   UNL     1      46.840   4.360  14.191  0.00  0.00    +0.000 A 
ATOM      2  C   UNL     1      46.870   5.691  13.781  0.00  0.00    +0.000 A 
ATOM      3  C   UNL     1      46.235   6.080  12.605  0.00  0.00    +0.000 A 
ATOM      4  C   UNL     1      45.532   5.157  11.812  0.00  0.00    +0.000 A 
ATOM      5  C   UNL     1      45.504   3.818  12.230  0.00  0.00    +0.000 A 
ATOM      6  C   UNL     1      46.147   3.425  13.410  0.00  0.00    +0.000 A 
ENDROOT
BRANCH   1   7
ATOM      7  C   UNL     1      47.535   3.961  15.458  0.00  0.00    +0.000 C 
BRANCH   7  10
ATOM      8  O   UNL     1      49.108   4.109  17.715  0.00  0.00    +0.000 OA
ATOM      9  C   UNL     1      48.229   4.946  17.575  0.00  0.00    +0.000 C 
ATOM     10  N   UNL     1      47.378   4.946  16.491  0.00  0.00    +0.000 N 
ATOM     11  H   UNL     1      46.680   5.681  16.430  0.00  0.00    +0.000 HD
BRANCH   9  12
ATOM     12  C   UNL     1      48.008   6.025  18.543  0.00  0.00    +0.000 A 
ATOM     13  N   UNL     1      47.597   5.825  19.814  0.00  0.00    +0.000 NA
ATOM     14  N   UNL     1      47.596   7.067  20.344  0.00  0.00    +0.000 N 
ATOM     15  C   UNL     1      47.890   8.062  19.453  0.00  0.00    +0.000 A 
ATOM     16  C   UNL     1      47.943   9.448  19.565  0.00  0.00    +0.000 A 
ATOM     17  C   UNL     1      48.270  10.110  18.389  0.00  0.00    +0.000 A 
ATOM     18  N   UNL     1      48.545   9.513  17.207  0.00  0.00    +0.000 NA
ATOM     19  C   UNL     1      48.509   8.159  17.133  0.00  0.00    +0.000 A 
ATOM     20  C   UNL     1      48.169   7.406  18.261  0.00  0.00    +0.000 A 
ATOM     21  H   UNL     1      47.377   7.169  21.331  0.00  0.00    +0.000 HD
ENDBRANCH   9  12
ENDBRANCH   7  10
ENDBRANCH   1   7
BRANCH   4  22
ATOM     22  C   UNL     1      44.796   5.555  10.542  0.00  0.00    +0.000 C 
BRANCH  22  23
ATOM     23  C   UNL     1      45.593   5.264   9.268  0.00  0.00    +0.000 C 
BRANCH  23  24
ATOM     24  N   UNL     1      44.976   4.275   8.398  0.00  0.00    +0.000 N 
ATOM     25  H   UNL     1      44.069   3.917   8.688  0.00  0.00    +0.000 HD
BRANCH  24  26
ATOM     26  C   UNL     1      45.802   3.269   7.876  0.00  0.00    +0.000 A 
ATOM     27  C   UNL     1      46.604   3.425   6.734  0.00  0.00    +0.000 A 
ATOM     28  C   UNL     1      47.348   2.363   6.213  0.00  0.00    +0.000 A 
ATOM     29  C   UNL     1      47.282   1.112   6.813  0.00  0.00    +0.000 A 
ATOM     30  C   UNL     1      46.487   0.931   7.943  0.00  0.00    +0.000 A 
ATOM     31  C   UNL     1      45.751   2.000   8.464  0.00  0.00    +0.000 A 
ENDBRANCH  24  26
ENDBRANCH  23  24
ENDBRANCH  22  23
ENDBRANCH   4  22
TORSDOF 7
ENDMDL
MODEL 9
REMARK VINA RESULT:    -6.799      2.464      3.526
REMARK INTER + INTRA:         -10.371
REMARK INTER:                  -9.212
REMARK INTRA:                  -1.159
REMARK UNBOUND:                -0.790
REMARK  Name = 
REMARK  7 active torsions:
REMARK  status: ('A' for Active; 'I' for Inactive)
REMARK    1  A    between atoms: C_2  and  C_20
REMARK    2  A    between atoms: N_3  and  C_4
REMARK    3  A    between atoms: C_4  and  C_5
REMARK    4  A    between atoms: C_8  and  C_9
REMARK    5  A    between atoms: C_9  and  C_10
REMARK    6  A    between atoms: C_10  and  N_11
REMARK    7  A    between atoms: N_11  and  C_12
REMARK                            x       y       z     vdW  Elec       q    Type
REMARK                         _______ _______ _______ _____ _____    ______ ____
ROOT
ATOM      1  C   UNL     1      48.288   7.091  12.613  0.00  0.00    +0.000 A 
ATOM      2  C   UNL     1      47.904   6.099  13.513  0.00  0.00    +0.000 A 
ATOM      3  C   UNL     1      46.790   5.306  13.253  0.00  0.00    +0.000 A 
ATOM      4  C   UNL     1      46.036   5.464  12.078  0.00  0.00    +0.000 A 
ATOM      5  C   UNL     1      46.427   6.464  11.176  0.00  0.00    +0.000 A 
ATOM      6  C   UNL     1      47.545   7.266  11.438  0.00  0.00    +0.000 A 
ENDROOT
BRANCH   1   7
ATOM      7  C   UNL     1      49.488   7.938  12.914  0.00  0.00    +0.000 C 
BRANCH   7  10
ATOM      8  O   UNL     1      50.337   9.113  15.258  0.00  0.00    +0.000 OA
ATOM      9  C   UNL     1      50.718   7.977  15.017  0.00  0.00    +0.000 C 
ATOM     10  N   UNL     1      50.364   7.310  13.863  0.00  0.00    +0.000 N 
ATOM     11  H   UNL     1      50.704   6.363  13.735  0.00  0.00    +0.000 HD
BRANCH   9  12
ATOM     12  C   UNL     1      51.577   7.224  15.936  0.00  0.00    +0.000 A 
ATOM     13  N   UNL     1      52.888   7.488  16.129  0.00  0.00    +0.000 NA
ATOM     14  N   UNL     1      53.247   6.607  17.088  0.00  0.00    +0.000 N 
ATOM     15  C   UNL     1      52.263   5.730  17.449  0.00  0.00    +0.000 A 
ATOM     16  C   UNL     1      52.228   4.657  18.335  0.00  0.00    +0.000 A 
ATOM     17  C   UNL     1      51.008   3.997  18.394  0.00  0.00    +0.000 A 
ATOM     18  N   UNL     1      49.903   4.333  17.691  0.00  0.00    +0.000 NA
ATOM     19  C   UNL     1      49.959   5.398  16.853  0.00  0.00    +0.000 A 
ATOM     20  C   UNL     1      51.152   6.113  16.709  0.00  0.00    +0.000 A 
ATOM     21  H   UNL     1      54.194   6.655  17.453  0.00  0.00    +0.000 HD
ENDBRANCH   9  12
ENDBRANCH   7  10
ENDBRANCH   1   7
BRANCH   4  22
ATOM     22  C   UNL     1      44.836   4.591  11.746  0.00  0.00    +0.000 C 
BRANCH  22  23
ATOM     23  C   UNL     1      43.970   5.159  10.619  0.00  0.00    +0.000 C 
BRANCH  23  24
ATOM     24  N   UNL     1      43.675   4.203   9.562  0.00  0.00    +0.000 N 
ATOM     25  H   UNL     1      42.923   3.542   9.744  0.00  0.00    +0.000 HD
BRANCH  24  26
ATOM     26  C   UNL     1      44.764   3.605   8.911  0.00  0.00    +0.000 A 
ATOM     27  C   UNL     1      45.652   4.295   8.070  0.00  0.00    +0.000 A 
ATOM     28  C   UNL     1      46.672   3.632   7.384  0.00  0.00    +0.000 A 
ATOM     29  C   UNL     1      46.808   2.255   7.508  0.00  0.00    +0.000 A 
ATOM     30  C   UNL     1      45.934   1.548   8.330  0.00  0.00    +0.000 A 
ATOM     31  C   UNL     1      44.919   2.218   9.020  0.00  0.00    +0.000 A 
ENDBRANCH  24  26
ENDBRANCH  23  24
ENDBRANCH  22  23
ENDBRANCH   4  22
TORSDOF 7
ENDMDL
