MODEL 1
REMARK VINA RESULT:    -8.275      0.000      0.000
REMARK INTER + INTRA:         -12.038
REMARK INTER:                 -11.177
REMARK INTRA:                  -0.861
REMARK UNBOUND:                -0.861
REMARK  Name = 
REMARK  7 active torsions:
REMARK  status: ('A' for Active; 'I' for Inactive)
REMARK    1  A    between atoms: C_1  and  C_2
REMARK    2  A    between atoms: C_2  and  C_3
REMARK    3  A    between atoms: C_2  and  C_13
REMARK    4  A    between atoms: C_3  and  C_4
REMARK    5  A    between atoms: C_7  and  C_8
REMARK    6  A    between atoms: C_17  and  O_18
REMARK    7  A    between atoms: O_18  and  C_19
REMARK                            x       y       z     vdW  Elec       q    Type
REMARK                         _______ _______ _______ _____ _____    ______ ____
ROOT
ATOM      1  C   UNL     1      42.802   6.048  11.414  0.00  0.00    +0.000 C 
ATOM      2  C   UNL     1      44.088   5.453  10.820  0.00  0.00    +0.000 C 
ENDROOT
BRANCH   2   3
ATOM      3  C   UNL     1      45.298   5.539  11.766  0.00  0.00    +0.000 A 
ATOM      4  C   UNL     1      46.311   6.478  11.499  0.00  0.00    +0.000 A 
ATOM      5  C   UNL     1      47.438   6.580  12.319  0.00  0.00    +0.000 A 
ATOM      6  C   UNL     1      47.557   5.777  13.451  0.00  0.00    +0.000 A 
ATOM      7  C   UNL     1      46.541   4.879  13.770  0.00  0.00    +0.000 A 
ATOM      8  C   UNL     1      45.445   4.734  12.911  0.00  0.00    +0.000 A 
BRANCH   7   9
ATOM      9  O   UNL     1      46.553   4.080  14.886  0.00  0.00    +0.000 OA
BRANCH   9  10
ATOM     10  C   UNL     1      47.702   4.262  15.730  0.00  0.00    +0.000 C 
ATOM     11  C   UNL     1      48.135   2.934  16.310  0.00  0.00    +0.000 C 
ATOM     12  C   UNL     1      47.317   2.818  17.578  0.00  0.00    +0.000 C 
ATOM     13  O   UNL     1      47.062   4.143  18.046  0.00  0.00    +0.000 OA
ATOM     14  C   UNL     1      47.311   5.062  16.970  0.00  0.00    +0.000 C 
ENDBRANCH   9  10
ENDBRANCH   7   9
ENDBRANCH   2   3
BRANCH   2  15
ATOM     15  C   UNL     1      43.872   3.984  10.372  0.00  0.00    +0.000 C 
BRANCH  15  16
ATOM     16  C   UNL     1      44.748   3.437   9.263  0.00  0.00    +0.000 A 
ATOM     17  C   UNL     1      45.032   2.071   9.249  0.00  0.00    +0.000 A 
ATOM     18  C   UNL     1      45.958   1.572   8.331  0.00  0.00    +0.000 A 
ATOM     19  C   UNL     1      46.587   2.439   7.443  0.00  0.00    +0.000 A 
ATOM     20  C   UNL     1      46.236   3.778   7.511  0.00  0.00    +0.000 A 
ATOM     21  N   UNL     1      45.345   4.297   8.404  0.00  0.00    +0.000 NA
BRANCH  19  22
ATOM     22  C   UNL     1      47.604   1.889   6.508  0.00  0.00    +0.000 C 
ATOM     23  N   UNL     1      48.753   2.589   6.276  0.00  0.00    +0.000 N 
ATOM     24  O   UNL     1      47.428   0.806   5.953  0.00  0.00    +0.000 OA
ATOM     25  H   UNL     1      48.992   3.487   6.664  0.00  0.00    +0.000 HD
ATOM     26  H   UNL     1      49.419   2.161   5.643  0.00  0.00    +0.000 HD
ENDBRANCH  19  22
ENDBRANCH  15  16
ENDBRANCH   2  15
TORSDOF 6
ENDMDL
MODEL 2
REMARK VINA RESULT:    -7.457      1.291      1.775
REMARK INTER + INTRA:         -10.933
REMARK INTER:                 -10.232
REMARK INTRA:                  -0.701
REMARK UNBOUND:                -0.861
REMARK  Name = 
REMARK  7 active torsions:
REMARK  status: ('A' for Active; 'I' for Inactive)
REMARK    1  A    between atoms: C_1  and  C_2
REMARK    2  A    between atoms: C_2  and  C_3
REMARK    3  A    between atoms: C_2  and  C_13
REMARK    4  A    between atoms: C_3  and  C_4
REMARK    5  A    between atoms: C_7  and  C_8
REMARK    6  A    between atoms: C_17  and  O_18
REMARK    7  A    between atoms: O_18  and  C_19
REMARK                            x       y       z     vdW  Elec       q    Type
REMARK                         _______ _______ _______ _____ _____    ______ ____
ROOT
ATOM      1  C   UNL     1      43.541   2.774  12.316  0.00  0.00    +0.000 C 
ATOM      2  C   UNL     1      43.678   4.270  11.993  0.00  0.00    +0.000 C 
ENDROOT
BRANCH   2   3
ATOM      3  C   UNL     1      44.970   4.900  12.541  0.00  0.00    +0.000 A 
ATOM      4  C   UNL     1      45.291   6.224  12.186  0.00  0.00    +0.000 A 
ATOM      5  C   UNL     1      46.462   6.832  12.644  0.00  0.00    +0.000 A 
ATOM      6  C   UNL     1      47.318   6.148  13.505  0.00  0.00    +0.000 A 
ATOM      7  C   UNL     1      46.995   4.857  13.916  0.00  0.00    +0.000 A 
ATOM      8  C   UNL     1      45.855   4.228  13.404  0.00  0.00    +0.000 A 
BRANCH   7   9
ATOM      9  O   UNL     1      47.757   4.125  14.793  0.00  0.00    +0.000 OA
BRANCH   9  10
ATOM     10  C   UNL     1      47.379   4.275  16.172  0.00  0.00    +0.000 C 
ATOM     11  C   UNL     1      48.279   5.285  16.847  0.00  0.00    +0.000 C 
ATOM     12  C   UNL     1      49.443   4.451  17.337  0.00  0.00    +0.000 C 
ATOM     13  O   UNL     1      48.949   3.137  17.595  0.00  0.00    +0.000 OA
ATOM     14  C   UNL     1      47.681   2.988  16.935  0.00  0.00    +0.000 C 
ENDBRANCH   9  10
ENDBRANCH   7   9
ENDBRANCH   2   3
BRANCH   2  15
ATOM     15  C   UNL     1      43.572   4.526  10.467  0.00  0.00    +0.000 C 
BRANCH  15  16
ATOM     16  C   UNL     1      44.626   3.919   9.563  0.00  0.00    +0.000 A 
ATOM     17  C   UNL     1      45.425   4.773   8.802  0.00  0.00    +0.000 A 
ATOM     18  C   UNL     1      46.294   4.233   7.851  0.00  0.00    +0.000 A 
ATOM     19  C   UNL     1      46.351   2.855   7.672  0.00  0.00    +0.000 A 
ATOM     20  C   UNL     1      45.538   2.077   8.480  0.00  0.00    +0.000 A 
ATOM     21  N   UNL     1      44.671   2.575   9.408  0.00  0.00    +0.000 NA
BRANCH  19  22
ATOM     22  C   UNL     1      47.250   2.310   6.620  0.00  0.00    +0.000 C 
ATOM     23  N   UNL     1      48.122   1.307   6.933  0.00  0.00    +0.000 N 
ATOM     24  O   UNL     1      47.207   2.742   5.469  0.00  0.00    +0.000 OA
ATOM     25  H   UNL     1      48.251   0.893   7.842  0.00  0.00    +0.000 HD
ATOM     26  H   UNL     1      48.700   0.961   6.177  0.00  0.00    +0.000 HD
ENDBRANCH  19  22
ENDBRANCH  15  16
ENDBRANCH   2  15
TORSDOF 6
ENDMDL
MODEL 3
REMARK VINA RESULT:    -7.381      2.388      4.070
REMARK INTER + INTRA:         -10.832
REMARK INTER:                 -10.123
REMARK INTRA:                  -0.709
REMARK UNBOUND:                -0.861
REMARK  Name = 
REMARK  7 active torsions:
REMARK  status: ('A' for Active; 'I' for Inactive)
REMARK    1  A    between atoms: C_1  and  C_2
REMARK    2  A    between atoms: C_2  and  C_3
REMARK    3  A    between atoms: C_2  and  C_13
REMARK    4  A    between atoms: C_3  and  C_4
REMARK    5  A    between atoms: C_7  and  C_8
REMARK    6  A    between atoms: C_17  and  O_18
REMARK    7  A    between atoms: O_18  and  C_19
REMARK                            x       y       z     vdW  Elec       q    Type
REMARK                         _______ _______ _______ _____ _____    ______ ____
ROOT
ATOM      1  C   UNL     1      43.513   2.786  12.100  0.00  0.00    +0.000 C 
ATOM      2  C   UNL     1      43.788   4.233  11.662  0.00  0.00    +0.000 C 
ENDROOT
BRANCH   2   3
ATOM      3  C   UNL     1      45.114   4.796  12.201  0.00  0.00    +0.000 A 
ATOM      4  C   UNL     1      45.767   4.125  13.252  0.00  0.00    +0.000 A 
ATOM      5  C   UNL     1      46.964   4.609  13.786  0.00  0.00    +0.000 A 
ATOM      6  C   UNL     1      47.560   5.749  13.253  0.00  0.00    +0.000 A 
ATOM      7  C   UNL     1      46.964   6.400  12.175  0.00  0.00    +0.000 A 
ATOM      8  C   UNL     1      45.733   5.950  11.685  0.00  0.00    +0.000 A 
BRANCH   7   9
ATOM      9  O   UNL     1      47.501   7.504  11.560  0.00  0.00    +0.000 OA
BRANCH   9  10
ATOM     10  C   UNL     1      48.258   8.357  12.434  0.00  0.00    +0.000 C 
ATOM     11  C   UNL     1      47.395   9.502  12.914  0.00  0.00    +0.000 C 
ATOM     12  C   UNL     1      47.582  10.559  11.846  0.00  0.00    +0.000 C 
ATOM     13  O   UNL     1      48.885  10.377  11.289  0.00  0.00    +0.000 OA
ATOM     14  C   UNL     1      49.354   9.066  11.643  0.00  0.00    +0.000 C 
ENDBRANCH   9  10
ENDBRANCH   7   9
ENDBRANCH   2   3
BRANCH   2  15
ATOM     15  C   UNL     1      43.746   4.369  10.117  0.00  0.00    +0.000 C 
BRANCH  15  16
ATOM     16  C   UNL     1      44.812   3.660   9.306  0.00  0.00    +0.000 A 
ATOM     17  C   UNL     1      45.598   4.413   8.434  0.00  0.00    +0.000 A 
ATOM     18  C   UNL     1      46.478   3.762   7.567  0.00  0.00    +0.000 A 
ATOM     19  C   UNL     1      46.560   2.373   7.581  0.00  0.00    +0.000 A 
ATOM     20  C   UNL     1      45.758   1.701   8.489  0.00  0.00    +0.000 A 
ATOM     21  N   UNL     1      44.881   2.308   9.339  0.00  0.00    +0.000 NA
BRANCH  19  22
ATOM     22  C   UNL     1      47.470   1.703   6.615  0.00  0.00    +0.000 C 
ATOM     23  N   UNL     1      48.508   2.404   6.071  0.00  0.00    +0.000 N 
ATOM     24  O   UNL     1      47.308   0.523   6.311  0.00  0.00    +0.000 OA
ATOM     25  H   UNL     1      48.723   3.374   6.238  0.00  0.00    +0.000 HD
ATOM     26  H   UNL     1      49.108   1.896   5.432  0.00  0.00    +0.000 HD
ENDBRANCH  19  22
ENDBRANCH  15  16
ENDBRANCH   2  15
TORSDOF 6
ENDMDL
MODEL 4
REMARK VINA RESULT:    -7.380      3.208      4.988
REMARK INTER + INTRA:         -10.829
REMARK INTER:                 -10.222
REMARK INTRA:                  -0.608
REMARK UNBOUND:                -0.861
REMARK  Name = 
REMARK  7 active torsions:
REMARK  status: ('A' for Active; 'I' for Inactive)
REMARK    1  A    between atoms: C_1  and  C_2
REMARK    2  A    between atoms: C_2  and  C_3
REMARK    3  A    between atoms: C_2  and  C_13
REMARK    4  A    between atoms: C_3  and  C_4
REMARK    5  A    between atoms: C_7  and  C_8
REMARK    6  A    between atoms: C_17  and  O_18
REMARK    7  A    between atoms: O_18  and  C_19
REMARK                            x       y       z     vdW  Elec       q    Type
REMARK                         _______ _______ _______ _____ _____    ______ ____
ROOT
ATOM      1  C   UNL     1      45.121   3.370  12.211  0.00  0.00    +0.000 C 
ATOM      2  C   UNL     1      44.387   4.649  11.779  0.00  0.00    +0.000 C 
ENDROOT
BRANCH   2   3
ATOM      3  C   UNL     1      45.244   5.921  11.905  0.00  0.00    +0.000 A 
ATOM      4  C   UNL     1      46.638   5.827  11.739  0.00  0.00    +0.000 A 
ATOM      5  C   UNL     1      47.458   6.952  11.862  0.00  0.00    +0.000 A 
ATOM      6  C   UNL     1      46.900   8.204  12.108  0.00  0.00    +0.000 A 
ATOM      7  C   UNL     1      45.517   8.334  12.219  0.00  0.00    +0.000 A 
ATOM      8  C   UNL     1      44.705   7.196  12.160  0.00  0.00    +0.000 A 
BRANCH   7   9
ATOM      9  O   UNL     1      44.878   9.532  12.419  0.00  0.00    +0.000 OA
BRANCH   9  10
ATOM     10  C   UNL     1      44.429  10.171  11.212  0.00  0.00    +0.000 C 
ATOM     11  C   UNL     1      45.404  11.253  10.807  0.00  0.00    +0.000 C 
ATOM     12  C   UNL     1      44.906  12.475  11.547  0.00  0.00    +0.000 C 
ATOM     13  O   UNL     1      43.494  12.330  11.710  0.00  0.00    +0.000 OA
ATOM     14  C   UNL     1      43.148  10.954  11.486  0.00  0.00    +0.000 C 
ENDBRANCH   9  10
ENDBRANCH   7   9
ENDBRANCH   2   3
BRANCH   2  15
ATOM     15  C   UNL     1      43.841   4.521  10.334  0.00  0.00    +0.000 C 
BRANCH  15  16
ATOM     16  C   UNL     1      44.711   3.840   9.296  0.00  0.00    +0.000 A 
ATOM     17  C   UNL     1      44.780   2.447   9.293  0.00  0.00    +0.000 A 
ATOM     18  C   UNL     1      45.691   1.807   8.450  0.00  0.00    +0.000 A 
ATOM     19  C   UNL     1      46.519   2.563   7.626  0.00  0.00    +0.000 A 
ATOM     20  C   UNL     1      46.375   3.940   7.677  0.00  0.00    +0.000 A 
ATOM     21  N   UNL     1      45.504   4.594   8.498  0.00  0.00    +0.000 NA
BRANCH  19  22
ATOM     22  C   UNL     1      47.512   1.858   6.773  0.00  0.00    +0.000 C 
ATOM     23  N   UNL     1      48.662   2.498   6.410  0.00  0.00    +0.000 N 
ATOM     24  O   UNL     1      47.317   0.702   6.403  0.00  0.00    +0.000 OA
ATOM     25  H   UNL     1      48.915   3.445   6.643  0.00  0.00    +0.000 HD
ATOM     26  H   UNL     1      49.312   1.968   5.843  0.00  0.00    +0.000 HD
ENDBRANCH  19  22
ENDBRANCH  15  16
ENDBRANCH   2  15
TORSDOF 6
ENDMDL
MODEL 5
REMARK VINA RESULT:    -7.319      2.296      3.674
REMARK INTER + INTRA:         -10.747
REMARK INTER:                  -9.796
REMARK INTRA:                  -0.951
REMARK UNBOUND:                -0.861
REMARK  Name = 
REMARK  7 active torsions:
REMARK  status: ('A' for Active; 'I' for Inactive)
REMARK    1  A    between atoms: C_1  and  C_2
REMARK    2  A    between atoms: C_2  and  C_3
REMARK    3  A    between atoms: C_2  and  C_13
REMARK    4  A    between atoms: C_3  and  C_4
REMARK    5  A    between atoms: C_7  and  C_8
REMARK    6  A    between atoms: C_17  and  O_18
REMARK    7  A    between atoms: O_18  and  C_19
REMARK                            x       y       z     vdW  Elec       q    Type
REMARK                         _______ _______ _______ _____ _____    ______ ____
ROOT
ATOM      1  C   UNL     1      42.476   5.576  11.795  0.00  0.00    +0.000 C 
ATOM      2  C   UNL     1      43.790   5.189  11.100  0.00  0.00    +0.000 C 
ENDROOT
BRANCH   2   3
ATOM      3  C   UNL     1      45.024   5.304  12.012  0.00  0.00    +0.000 A 
ATOM      4  C   UNL     1      45.323   4.251  12.897  0.00  0.00    +0.000 A 
ATOM      5  C   UNL     1      46.422   4.320  13.757  0.00  0.00    +0.000 A 
ATOM      6  C   UNL     1      47.274   5.421  13.720  0.00  0.00    +0.000 A 
ATOM      7  C   UNL     1      47.033   6.450  12.814  0.00  0.00    +0.000 A 
ATOM      8  C   UNL     1      45.895   6.409  12.000  0.00  0.00    +0.000 A 
BRANCH   7   9
ATOM      9  O   UNL     1      47.841   7.552  12.680  0.00  0.00    +0.000 OA
BRANCH   9  10
ATOM     10  C   UNL     1      49.248   7.266  12.759  0.00  0.00    +0.000 C 
ATOM     11  C   UNL     1      49.897   8.149  13.801  0.00  0.00    +0.000 C 
ATOM     12  C   UNL     1      50.273   9.393  13.027  0.00  0.00    +0.000 C 
ATOM     13  O   UNL     1      50.513   9.000  11.675  0.00  0.00    +0.000 OA
ATOM     14  C   UNL     1      49.938   7.700  11.469  0.00  0.00    +0.000 C 
ENDBRANCH   9  10
ENDBRANCH   7   9
ENDBRANCH   2   3
BRANCH   2  15
ATOM     15  C   UNL     1      43.708   3.760  10.502  0.00  0.00    +0.000 C 
BRANCH  15  16
ATOM     16  C   UNL     1      44.775   3.335   9.512  0.00  0.00    +0.000 A 
ATOM     17  C   UNL     1      45.351   4.307   8.693  0.00  0.00    +0.000 A 
ATOM     18  C   UNL     1      46.220   3.916   7.673  0.00  0.00    +0.000 A 
ATOM     19  C   UNL     1      46.500   2.567   7.482  0.00  0.00    +0.000 A 
ATOM     20  C   UNL     1      45.901   1.668   8.350  0.00  0.00    +0.000 A 
ATOM     21  N   UNL     1      45.039   2.017   9.348  0.00  0.00    +0.000 NA
BRANCH  19  22
ATOM     22  C   UNL     1      47.392   2.175   6.359  0.00  0.00    +0.000 C 
ATOM     23  N   UNL     1      46.905   2.174   5.083  0.00  0.00    +0.000 N 
ATOM     24  O   UNL     1      48.564   1.867   6.563  0.00  0.00    +0.000 OA
ATOM     25  H   UNL     1      45.962   2.393   4.805  0.00  0.00    +0.000 HD
ATOM     26  H   UNL     1      47.558   1.915   4.353  0.00  0.00    +0.000 HD
ENDBRANCH  19  22
ENDBRANCH  15  16
ENDBRANCH   2  15
TORSDOF 6
ENDMDL
MODEL 6
REMARK VINA RESULT:    -6.962      2.481      3.060
REMARK INTER + INTRA:         -10.265
REMARK INTER:                  -9.687
REMARK INTRA:                  -0.578
REMARK UNBOUND:                -0.861
REMARK  Name = 
REMARK  7 active torsions:
REMARK  status: ('A' for Active; 'I' for Inactive)
REMARK    1  A    between atoms: C_1  and  C_2
REMARK    2  A    between atoms: C_2  and  C_3
REMARK    3  A    between atoms: C_2  and  C_13
REMARK    4  A    between atoms: C_3  and  C_4
REMARK    5  A    between atoms: C_7  and  C_8
REMARK    6  A    between atoms: C_17  and  O_18
REMARK    7  A    between atoms: O_18  and  C_19
REMARK                            x       y       z     vdW  Elec       q    Type
REMARK                         _______ _______ _______ _____ _____    ______ ____
ROOT
ATOM      1  C   UNL     1      45.280   3.223  12.173  0.00  0.00    +0.000 C 
ATOM      2  C   UNL     1      44.428   4.443  11.791  0.00  0.00    +0.000 C 
ENDROOT
BRANCH   2   3
ATOM      3  C   UNL     1      45.173   5.781  11.937  0.00  0.00    +0.000 A 
ATOM      4  C   UNL     1      44.523   6.972  11.561  0.00  0.00    +0.000 A 
ATOM      5  C   UNL     1      45.166   8.208  11.658  0.00  0.00    +0.000 A 
ATOM      6  C   UNL     1      46.456   8.290  12.177  0.00  0.00    +0.000 A 
ATOM      7  C   UNL     1      47.100   7.134  12.610  0.00  0.00    +0.000 A 
ATOM      8  C   UNL     1      46.479   5.889  12.451  0.00  0.00    +0.000 A 
BRANCH   7   9
ATOM      9  O   UNL     1      48.353   7.124  13.172  0.00  0.00    +0.000 OA
BRANCH   9  10
ATOM     10  C   UNL     1      48.694   8.330  13.876  0.00  0.00    +0.000 C 
ATOM     11  C   UNL     1      50.074   8.793  13.470  0.00  0.00    +0.000 C 
ATOM     12  C   UNL     1      50.989   8.065  14.430  0.00  0.00    +0.000 C 
ATOM     13  O   UNL     1      50.259   7.851  15.638  0.00  0.00    +0.000 OA
ATOM     14  C   UNL     1      48.860   8.030  15.364  0.00  0.00    +0.000 C 
ENDBRANCH   9  10
ENDBRANCH   7   9
ENDBRANCH   2   3
BRANCH   2  15
ATOM     15  C   UNL     1      43.866   4.307  10.352  0.00  0.00    +0.000 C 
BRANCH  15  16
ATOM     16  C   UNL     1      44.757   3.696   9.289  0.00  0.00    +0.000 A 
ATOM     17  C   UNL     1      44.908   2.310   9.259  0.00  0.00    +0.000 A 
ATOM     18  C   UNL     1      45.841   1.739   8.391  0.00  0.00    +0.000 A 
ATOM     19  C   UNL     1      46.609   2.557   7.568  0.00  0.00    +0.000 A 
ATOM     20  C   UNL     1      46.385   3.922   7.646  0.00  0.00    +0.000 A 
ATOM     21  N   UNL     1      45.491   4.509   8.492  0.00  0.00    +0.000 NA
BRANCH  19  22
ATOM     22  C   UNL     1      47.627   1.926   6.687  0.00  0.00    +0.000 C 
ATOM     23  N   UNL     1      48.750   2.626   6.349  0.00  0.00    +0.000 N 
ATOM     24  O   UNL     1      47.478   0.779   6.272  0.00  0.00    +0.000 OA
ATOM     25  H   UNL     1      48.965   3.572   6.619  0.00  0.00    +0.000 HD
ATOM     26  H   UNL     1      49.419   2.145   5.760  0.00  0.00    +0.000 HD
ENDBRANCH  19  22
ENDBRANCH  15  16
ENDBRANCH   2  15
TORSDOF 6
ENDMDL
MODEL 7
REMARK VINA RESULT:    -6.691      3.006      4.487
REMARK INTER + INTRA:          -9.899
REMARK INTER:                  -8.813
REMARK INTRA:                  -1.086
REMARK UNBOUND:                -0.861
REMARK  Name = 
REMARK  7 active torsions:
REMARK  status: ('A' for Active; 'I' for Inactive)
REMARK    1  A    between atoms: C_1  and  C_2
REMARK    2  A    between atoms: C_2  and  C_3
REMARK    3  A    between atoms: C_2  and  C_13
REMARK    4  A    between atoms: C_3  and  C_4
REMARK    5  A    between atoms: C_7  and  C_8
REMARK    6  A    between atoms: C_17  and  O_18
REMARK    7  A    between atoms: O_18  and  C_19
REMARK                            x       y       z     vdW  Elec       q    Type
REMARK                         _______ _______ _______ _____ _____    ______ ____
ROOT
ATOM      1  C   UNL     1      47.586   9.862  12.195  0.00  0.00    +0.000 C 
ATOM      2  C   UNL     1      47.338   8.429  12.688  0.00  0.00    +0.000 C 
ENDROOT
BRANCH   2   3
ATOM      3  C   UNL     1      47.935   8.146  14.078  0.00  0.00    +0.000 A 
ATOM      4  C   UNL     1      47.986   9.185  15.026  0.00  0.00    +0.000 A 
ATOM      5  C   UNL     1      48.536   8.981  16.294  0.00  0.00    +0.000 A 
ATOM      6  C   UNL     1      49.005   7.722  16.661  0.00  0.00    +0.000 A 
ATOM      7  C   UNL     1      48.913   6.662  15.762  0.00  0.00    +0.000 A 
ATOM      8  C   UNL     1      48.422   6.886  14.470  0.00  0.00    +0.000 A 
BRANCH   7   9
ATOM      9  O   UNL     1      49.311   5.381  16.052  0.00  0.00    +0.000 OA
BRANCH   9  10
ATOM     10  C   UNL     1      48.680   4.815  17.213  0.00  0.00    +0.000 C 
ATOM     11  C   UNL     1      49.385   3.539  17.614  0.00  0.00    +0.000 C 
ATOM     12  C   UNL     1      48.678   2.473  16.805  0.00  0.00    +0.000 C 
ATOM     13  O   UNL     1      47.338   2.918  16.590  0.00  0.00    +0.000 OA
ATOM     14  C   UNL     1      47.278   4.329  16.854  0.00  0.00    +0.000 C 
ENDBRANCH   9  10
ENDBRANCH   7   9
ENDBRANCH   2   3
BRANCH   2  15
ATOM     15  C   UNL     1      45.825   8.087  12.684  0.00  0.00    +0.000 C 
BRANCH  15  16
ATOM     16  C   UNL     1      45.411   6.672  12.334  0.00  0.00    +0.000 A 
ATOM     17  C   UNL     1      45.854   6.125  11.130  0.00  0.00    +0.000 A 
ATOM     18  C   UNL     1      45.361   4.886  10.717  0.00  0.00    +0.000 A 
ATOM     19  C   UNL     1      44.435   4.212  11.507  0.00  0.00    +0.000 A 
ATOM     20  C   UNL     1      44.060   4.816  12.697  0.00  0.00    +0.000 A 
ATOM     21  N   UNL     1      44.514   6.030  13.121  0.00  0.00    +0.000 NA
BRANCH  19  22
ATOM     22  C   UNL     1      43.890   2.917  11.021  0.00  0.00    +0.000 C 
ATOM     23  N   UNL     1      44.452   2.319   9.929  0.00  0.00    +0.000 N 
ATOM     24  O   UNL     1      42.952   2.372  11.597  0.00  0.00    +0.000 OA
ATOM     25  H   UNL     1      45.211   2.683   9.375  0.00  0.00    +0.000 HD
ATOM     26  H   UNL     1      44.054   1.430   9.649  0.00  0.00    +0.000 HD
ENDBRANCH  19  22
ENDBRANCH  15  16
ENDBRANCH   2  15
TORSDOF 6
ENDMDL
MODEL 8
REMARK VINA RESULT:    -6.407      3.681      7.351
REMARK INTER + INTRA:          -9.516
REMARK INTER:                  -8.555
REMARK INTRA:                  -0.961
REMARK UNBOUND:                -0.861
REMARK  Name = 
REMARK  7 active torsions:
REMARK  status: ('A' for Active; 'I' for Inactive)
REMARK    1  A    between atoms: C_1  and  C_2
REMARK    2  A    between atoms: C_2  and  C_3
REMARK    3  A    between atoms: C_2  and  C_13
REMARK    4  A    between atoms: C_3  and  C_4
REMARK    5  A    between atoms: C_7  and  C_8
REMARK    6  A    between atoms: C_17  and  O_18
REMARK    7  A    between atoms: O_18  and  C_19
REMARK                            x       y       z     vdW  Elec       q    Type
REMARK                         _______ _______ _______ _____ _____    ______ ____
ROOT
ATOM      1  C   UNL     1      48.800   9.780  12.753  0.00  0.00    +0.000 C 
ATOM      2  C   UNL     1      47.786   8.710  13.183  0.00  0.00    +0.000 C 
ENDROOT
BRANCH   2   3
ATOM      3  C   UNL     1      46.442   8.804  12.441  0.00  0.00    +0.000 A 
ATOM      4  C   UNL     1      46.011  10.054  11.959  0.00  0.00    +0.000 A 
ATOM      5  C   UNL     1      44.789  10.192  11.296  0.00  0.00    +0.000 A 
ATOM      6  C   UNL     1      43.990   9.076  11.058  0.00  0.00    +0.000 A 
ATOM      7  C   UNL     1      44.420   7.819  11.474  0.00  0.00    +0.000 A 
ATOM      8  C   UNL     1      45.613   7.694  12.195  0.00  0.00    +0.000 A 
BRANCH   7   9
ATOM      9  O   UNL     1      43.719   6.660  11.246  0.00  0.00    +0.000 OA
BRANCH   9  10
ATOM     10  C   UNL     1      44.349   5.477  11.767  0.00  0.00    +0.000 C 
ATOM     11  C   UNL     1      45.011   4.708  10.646  0.00  0.00    +0.000 C 
ATOM     12  C   UNL     1      43.909   3.805  10.137  0.00  0.00    +0.000 C 
ATOM     13  O   UNL     1      43.037   3.533  11.235  0.00  0.00    +0.000 OA
ATOM     14  C   UNL     1      43.285   4.502  12.266  0.00  0.00    +0.000 C 
ENDBRANCH   9  10
ENDBRANCH   7   9
ENDBRANCH   2   3
BRANCH   2  15
ATOM     15  C   UNL     1      48.376   7.284  13.027  0.00  0.00    +0.000 C 
BRANCH  15  16
ATOM     16  C   UNL     1      48.219   6.313  14.180  0.00  0.00    +0.000 A 
ATOM     17  C   UNL     1      47.267   5.298  14.074  0.00  0.00    +0.000 A 
ATOM     18  C   UNL     1      46.999   4.491  15.181  0.00  0.00    +0.000 A 
ATOM     19  C   UNL     1      47.681   4.707  16.375  0.00  0.00    +0.000 A 
ATOM     20  C   UNL     1      48.622   5.723  16.391  0.00  0.00    +0.000 A 
ATOM     21  N   UNL     1      48.897   6.536  15.331  0.00  0.00    +0.000 NA
BRANCH  19  22
ATOM     22  C   UNL     1      47.342   3.863  17.552  0.00  0.00    +0.000 C 
ATOM     23  N   UNL     1      47.744   4.253  18.797  0.00  0.00    +0.000 N 
ATOM     24  O   UNL     1      46.693   2.827  17.419  0.00  0.00    +0.000 OA
ATOM     25  H   UNL     1      48.290   5.070  19.018  0.00  0.00    +0.000 HD
ATOM     26  H   UNL     1      47.473   3.651  19.566  0.00  0.00    +0.000 HD
ENDBRANCH  19  22
ENDBRANCH  15  16
ENDBRANCH   2  15
TORSDOF 6
ENDMDL
MODEL 9
REMARK VINA RESULT:    -5.799      3.774      8.294
REMARK INTER + INTRA:          -8.694
REMARK INTER:                  -7.857
REMARK INTRA:                  -0.838
REMARK UNBOUND:                -0.861
REMARK  Name = 
REMARK  7 active torsions:
REMARK  status: ('A' for Active; 'I' for Inactive)
REMARK    1  A    between atoms: C_1  and  C_2
REMARK    2  A    between atoms: C_2  and  C_3
REMARK    3  A    between atoms: C_2  and  C_13
REMARK    4  A    between atoms: C_3  and  C_4
REMARK    5  A    between atoms: C_7  and  C_8
REMARK    6  A    between atoms: C_17  and  O_18
REMARK    7  A    between atoms: O_18  and  C_19
REMARK                            x       y       z     vdW  Elec       q    Type
REMARK                         _______ _______ _______ _____ _____    ______ ____
ROOT
ATOM      1  C   UNL     1      49.857   8.712  11.536  0.00  0.00    +0.000 C 
ATOM      2  C   UNL     1      48.989   8.393  12.763  0.00  0.00    +0.000 C 
ENDROOT
BRANCH   2   3
ATOM      3  C   UNL     1      47.528   8.064  12.412  0.00  0.00    +0.000 A 
ATOM      4  C   UNL     1      46.549   9.067  12.544  0.00  0.00    +0.000 A 
ATOM      5  C   UNL     1      45.206   8.809  12.255  0.00  0.00    +0.000 A 
ATOM      6  C   UNL     1      44.817   7.558  11.784  0.00  0.00    +0.000 A 
ATOM      7  C   UNL     1      45.775   6.565  11.591  0.00  0.00    +0.000 A 
ATOM      8  C   UNL     1      47.108   6.805  11.943  0.00  0.00    +0.000 A 
BRANCH   7   9
ATOM      9  O   UNL     1      45.489   5.318  11.093  0.00  0.00    +0.000 OA
BRANCH   9  10
ATOM     10  C   UNL     1      44.098   5.102  10.804  0.00  0.00    +0.000 C 
ATOM     11  C   UNL     1      43.391   4.569  12.030  0.00  0.00    +0.000 C 
ATOM     12  C   UNL     1      43.568   3.070  11.918  0.00  0.00    +0.000 C 
ATOM     13  O   UNL     1      43.659   2.753  10.528  0.00  0.00    +0.000 OA
ATOM     14  C   UNL     1      43.949   3.958   9.803  0.00  0.00    +0.000 C 
ENDBRANCH   9  10
ENDBRANCH   7   9
ENDBRANCH   2   3
BRANCH   2  15
ATOM     15  C   UNL     1      49.603   7.241  13.600  0.00  0.00    +0.000 C 
BRANCH  15  16
ATOM     16  C   UNL     1      49.068   7.008  14.999  0.00  0.00    +0.000 A 
ATOM     17  C   UNL     1      48.985   8.094  15.872  0.00  0.00    +0.000 A 
ATOM     18  C   UNL     1      48.643   7.876  17.208  0.00  0.00    +0.000 A 
ATOM     19  C   UNL     1      48.390   6.582  17.654  0.00  0.00    +0.000 A 
ATOM     20  C   UNL     1      48.477   5.563  16.720  0.00  0.00    +0.000 A 
ATOM     21  N   UNL     1      48.821   5.742  15.412  0.00  0.00    +0.000 NA
BRANCH  19  22
ATOM     22  C   UNL     1      48.074   6.373  19.092  0.00  0.00    +0.000 C 
ATOM     23  N   UNL     1      47.010   5.591  19.440  0.00  0.00    +0.000 N 
ATOM     24  O   UNL     1      48.766   6.884  19.970  0.00  0.00    +0.000 OA
ATOM     25  H   UNL     1      46.371   5.138  18.805  0.00  0.00    +0.000 HD
ATOM     26  H   UNL     1      46.849   5.467  20.432  0.00  0.00    +0.000 HD
ENDBRANCH  19  22
ENDBRANCH  15  16
ENDBRANCH   2  15
TORSDOF 6
ENDMDL
