MODEL 1
REMARK VINA RESULT:    -7.803      0.000      0.000
REMARK INTER + INTRA:         -11.002
REMARK INTER:                 -10.540
REMARK INTRA:                  -0.462
REMARK UNBOUND:                -0.462
REMARK  Name = 
REMARK  6 active torsions:
REMARK  status: ('A' for Active; 'I' for Inactive)
REMARK    1  A    between atoms: C_2  and  C_3
REMARK    2  A    between atoms: C_3  and  C_4
REMARK    3  A    between atoms: C_7  and  N_8
REMARK    4  A    between atoms: N_8  and  C_9
REMARK    5  A    between atoms: C_9  and  C_10
REMARK    6  A    between atoms: C_15  and  C_16
REMARK                            x       y       z     vdW  Elec       q    Type
REMARK                         _______ _______ _______ _____ _____    ______ ____
ROOT
ATOM      1  C   UNL     1      43.891   5.449  11.011  0.00  0.00    +0.000 C 
ATOM      2  C   UNL     1      42.512   5.039  11.513  0.00  0.00    +0.000 C 
ATOM      3  C   UNL     1      42.851   6.489  11.401  0.00  0.00    +0.000 C 
ENDROOT
BRANCH   1   4
ATOM      4  C   UNL     1      45.148   5.391  11.891  0.00  0.00    +0.000 A 
ATOM      5  C   UNL     1      45.222   4.505  12.984  0.00  0.00    +0.000 A 
ATOM      6  C   UNL     1      46.296   4.524  13.869  0.00  0.00    +0.000 A 
ATOM      7  C   UNL     1      47.327   5.438  13.682  0.00  0.00    +0.000 A 
ATOM      8  F   UNL     1      48.338   5.387  14.559  0.00  0.00    +0.000 F 
ATOM      9  C   UNL     1      47.313   6.362  12.632  0.00  0.00    +0.000 A 
ATOM     10  C   UNL     1      46.232   6.276  11.729  0.00  0.00    +0.000 A 
BRANCH   9  11
ATOM     11  C   UNL     1      48.386   7.412  12.367  0.00  0.00    +0.000 C 
ATOM     12  C   UNL     1      49.242   7.858  13.566  0.00  0.00    +0.000 C 
ATOM     13  C   UNL     1      48.494   8.822  14.490  0.00  0.00    +0.000 C 
ATOM     14  N   UNL     1      48.017  10.007  13.775  0.00  0.00    +0.000 NA
ATOM     15  C   UNL     1      47.145   9.632  12.661  0.00  0.00    +0.000 C 
ATOM     16  C   UNL     1      47.845   8.693  11.680  0.00  0.00    +0.000 C 
ATOM     17  H   UNL     1      48.821  10.523  13.414  0.00  0.00    +0.000 HD
ENDBRANCH   9  11
ENDBRANCH   1   4
BRANCH   1  18
ATOM     18  N   UNL     1      44.162   5.199   9.595  0.00  0.00    +0.000 N 
ATOM     19  H   UNL     1      43.458   5.441   8.906  0.00  0.00    +0.000 HD
BRANCH  18  23
ATOM     20  C   UNL     1      46.375   2.123   7.938  0.00  0.00    +0.000 A 
ATOM     21  C   UNL     1      46.493   3.456   7.596  0.00  0.00    +0.000 A 
ATOM     22  N   UNL     1      45.759   4.432   8.166  0.00  0.00    +0.000 NA
ATOM     23  C   UNL     1      44.863   4.085   9.127  0.00  0.00    +0.000 A 
ATOM     24  C   UNL     1      44.711   2.758   9.551  0.00  0.00    +0.000 A 
ATOM     25 CL   UNL     1      43.689   2.152  10.798  0.00  0.00    +0.000 Cl
ATOM     26  C   UNL     1      45.467   1.774   8.928  0.00  0.00    +0.000 A 
BRANCH  20  27
ATOM     27  C   UNL     1      47.166   1.063   7.284  0.00  0.00    +0.000 C 
BRANCH  27  29
ATOM     28  N   UNL     1      47.759   1.658   4.632  0.00  0.00    +0.000 NA
ATOM     29  C   UNL     1      47.490   1.389   5.835  0.00  0.00    +0.000 C 
ENDBRANCH  27  29
ENDBRANCH  20  27
ENDBRANCH  18  23
ENDBRANCH   1  18
TORSDOF 6
ENDMDL
MODEL 2
REMARK VINA RESULT:    -7.488      2.188      2.976
REMARK INTER + INTRA:         -10.576
REMARK INTER:                 -10.180
REMARK INTRA:                  -0.396
REMARK UNBOUND:                -0.462
REMARK  Name = 
REMARK  6 active torsions:
REMARK  status: ('A' for Active; 'I' for Inactive)
REMARK    1  A    between atoms: C_2  and  C_3
REMARK    2  A    between atoms: C_3  and  C_4
REMARK    3  A    between atoms: C_7  and  N_8
REMARK    4  A    between atoms: N_8  and  C_9
REMARK    5  A    between atoms: C_9  and  C_10
REMARK    6  A    between atoms: C_15  and  C_16
REMARK                            x       y       z     vdW  Elec       q    Type
REMARK                         _______ _______ _______ _____ _____    ______ ____
ROOT
ATOM      1  C   UNL     1      44.004   5.074  10.846  0.00  0.00    +0.000 C 
ATOM      2  C   UNL     1      43.706   3.907  11.778  0.00  0.00    +0.000 C 
ATOM      3  C   UNL     1      42.710   5.010  11.642  0.00  0.00    +0.000 C 
ENDROOT
BRANCH   1   4
ATOM      4  C   UNL     1      44.968   6.211  11.217  0.00  0.00    +0.000 A 
ATOM      5  C   UNL     1      46.315   5.941  11.530  0.00  0.00    +0.000 A 
ATOM      6  C   UNL     1      47.172   6.935  11.991  0.00  0.00    +0.000 A 
ATOM      7  C   UNL     1      46.698   8.232  12.154  0.00  0.00    +0.000 A 
ATOM      8  F   UNL     1      47.583   9.143  12.582  0.00  0.00    +0.000 F 
ATOM      9  C   UNL     1      45.368   8.572  11.883  0.00  0.00    +0.000 A 
ATOM     10  C   UNL     1      44.546   7.547  11.370  0.00  0.00    +0.000 A 
BRANCH   9  11
ATOM     11  C   UNL     1      44.760   9.959  12.056  0.00  0.00    +0.000 C 
ATOM     12  C   UNL     1      43.480  10.268  11.260  0.00  0.00    +0.000 C 
ATOM     13  C   UNL     1      43.766  10.553   9.783  0.00  0.00    +0.000 C 
ATOM     14  N   UNL     1      44.715  11.655   9.612  0.00  0.00    +0.000 NA
ATOM     15  C   UNL     1      45.975  11.375  10.303  0.00  0.00    +0.000 C 
ATOM     16  C   UNL     1      45.762  11.113  11.793  0.00  0.00    +0.000 C 
ATOM     17  H   UNL     1      44.305  12.509   9.993  0.00  0.00    +0.000 HD
ENDBRANCH   9  11
ENDBRANCH   1   4
BRANCH   1  18
ATOM     18  N   UNL     1      43.983   4.776   9.413  0.00  0.00    +0.000 N 
ATOM     19  H   UNL     1      43.096   4.585   8.961  0.00  0.00    +0.000 HD
BRANCH  18  23
ATOM     20  C   UNL     1      47.026   2.901   7.333  0.00  0.00    +0.000 A 
ATOM     21  C   UNL     1      46.881   4.269   7.462  0.00  0.00    +0.000 A 
ATOM     22  N   UNL     1      45.880   4.842   8.156  0.00  0.00    +0.000 NA
ATOM     23  C   UNL     1      44.971   4.034   8.763  0.00  0.00    +0.000 A 
ATOM     24  C   UNL     1      45.072   2.637   8.706  0.00  0.00    +0.000 A 
ATOM     25 CL   UNL     1      44.064   1.468   9.471  0.00  0.00    +0.000 Cl
ATOM     26  C   UNL     1      46.103   2.078   7.963  0.00  0.00    +0.000 A 
BRANCH  20  27
ATOM     27  C   UNL     1      48.112   2.289   6.544  0.00  0.00    +0.000 C 
BRANCH  27  29
ATOM     28  N   UNL     1      47.179   1.025   4.249  0.00  0.00    +0.000 NA
ATOM     29  C   UNL     1      47.603   1.597   5.290  0.00  0.00    +0.000 C 
ENDBRANCH  27  29
ENDBRANCH  20  27
ENDBRANCH  18  23
ENDBRANCH   1  18
TORSDOF 6
ENDMDL
MODEL 3
REMARK VINA RESULT:    -6.981      2.082      2.873
REMARK INTER + INTRA:          -9.892
REMARK INTER:                  -9.922
REMARK INTRA:                   0.030
REMARK UNBOUND:                -0.462
REMARK  Name = 
REMARK  6 active torsions:
REMARK  status: ('A' for Active; 'I' for Inactive)
REMARK    1  A    between atoms: C_2  and  C_3
REMARK    2  A    between atoms: C_3  and  C_4
REMARK    3  A    between atoms: C_7  and  N_8
REMARK    4  A    between atoms: N_8  and  C_9
REMARK    5  A    between atoms: C_9  and  C_10
REMARK    6  A    between atoms: C_15  and  C_16
REMARK                            x       y       z     vdW  Elec       q    Type
REMARK                         _______ _______ _______ _____ _____    ______ ____
ROOT
ATOM      1  C   UNL     1      43.880   5.712  11.714  0.00  0.00    +0.000 C 
ATOM      2  C   UNL     1      44.255   4.626  12.714  0.00  0.00    +0.000 C 
ATOM      3  C   UNL     1      42.925   5.294  12.821  0.00  0.00    +0.000 C 
ENDROOT
BRANCH   1   4
ATOM      4  C   UNL     1      44.425   7.146  11.800  0.00  0.00    +0.000 A 
ATOM      5  C   UNL     1      43.790   8.200  11.113  0.00  0.00    +0.000 A 
ATOM      6  C   UNL     1      44.336   9.479  11.072  0.00  0.00    +0.000 A 
ATOM      7  C   UNL     1      45.540   9.735  11.720  0.00  0.00    +0.000 A 
ATOM      8  F   UNL     1      45.997  10.994  11.657  0.00  0.00    +0.000 F 
ATOM      9  C   UNL     1      46.237   8.735  12.405  0.00  0.00    +0.000 A 
ATOM     10  C   UNL     1      45.625   7.466  12.465  0.00  0.00    +0.000 A 
BRANCH   9  11
ATOM     11  C   UNL     1      47.570   8.922  13.120  0.00  0.00    +0.000 C 
ATOM     12  C   UNL     1      48.808   9.181  12.243  0.00  0.00    +0.000 C 
ATOM     13  C   UNL     1      49.322   7.906  11.569  0.00  0.00    +0.000 C 
ATOM     14  N   UNL     1      49.637   6.861  12.545  0.00  0.00    +0.000 NA
ATOM     15  C   UNL     1      48.467   6.537  13.363  0.00  0.00    +0.000 C 
ATOM     16  C   UNL     1      47.922   7.765  14.090  0.00  0.00    +0.000 C 
ATOM     17  H   UNL     1      50.391   7.187  13.151  0.00  0.00    +0.000 HD
ENDBRANCH   9  11
ENDBRANCH   1   4
BRANCH   1  18
ATOM     18  N   UNL     1      43.631   5.267  10.342  0.00  0.00    +0.000 N 
ATOM     19  H   UNL     1      42.675   5.128  10.034  0.00  0.00    +0.000 HD
BRANCH  18  23
ATOM     20  C   UNL     1      46.144   2.853   8.115  0.00  0.00    +0.000 A 
ATOM     21  C   UNL     1      46.103   4.231   8.044  0.00  0.00    +0.000 A 
ATOM     22  N   UNL     1      45.275   4.985   8.793  0.00  0.00    +0.000 NA
ATOM     23  C   UNL     1      44.444   4.356   9.665  0.00  0.00    +0.000 A 
ATOM     24  C   UNL     1      44.452   2.962   9.818  0.00  0.00    +0.000 A 
ATOM     25 CL   UNL     1      43.530   2.010  10.919  0.00  0.00    +0.000 Cl
ATOM     26  C   UNL     1      45.301   2.214   9.015  0.00  0.00    +0.000 A 
BRANCH  20  27
ATOM     27  C   UNL     1      47.036   2.040   7.266  0.00  0.00    +0.000 C 
BRANCH  27  29
ATOM     28  N   UNL     1      46.750  -0.688   7.730  0.00  0.00    +0.000 NA
ATOM     29  C   UNL     1      46.880   0.549   7.519  0.00  0.00    +0.000 C 
ENDBRANCH  27  29
ENDBRANCH  20  27
ENDBRANCH  18  23
ENDBRANCH   1  18
TORSDOF 6
ENDMDL
MODEL 4
REMARK VINA RESULT:    -6.716      3.218      5.286
REMARK INTER + INTRA:          -9.534
REMARK INTER:                  -9.000
REMARK INTRA:                  -0.534
REMARK UNBOUND:                -0.462
REMARK  Name = 
REMARK  6 active torsions:
REMARK  status: ('A' for Active; 'I' for Inactive)
REMARK    1  A    between atoms: C_2  and  C_3
REMARK    2  A    between atoms: C_3  and  C_4
REMARK    3  A    between atoms: C_7  and  N_8
REMARK    4  A    between atoms: N_8  and  C_9
REMARK    5  A    between atoms: C_9  and  C_10
REMARK    6  A    between atoms: C_15  and  C_16
REMARK                            x       y       z     vdW  Elec       q    Type
REMARK                         _______ _______ _______ _____ _____    ______ ____
ROOT
ATOM      1  C   UNL     1      47.870   7.374  13.349  0.00  0.00    +0.000 C 
ATOM      2  C   UNL     1      47.773   8.599  12.449  0.00  0.00    +0.000 C 
ATOM      3  C   UNL     1      48.378   7.342  11.916  0.00  0.00    +0.000 C 
ENDROOT
BRANCH   1   4
ATOM      4  C   UNL     1      48.936   7.229  14.446  0.00  0.00    +0.000 A 
ATOM      5  C   UNL     1      50.197   7.841  14.310  0.00  0.00    +0.000 A 
ATOM      6  C   UNL     1      51.220   7.619  15.227  0.00  0.00    +0.000 A 
ATOM      7  C   UNL     1      51.005   6.771  16.307  0.00  0.00    +0.000 A 
ATOM      8  F   UNL     1      52.026   6.619  17.162  0.00  0.00    +0.000 F 
ATOM      9  C   UNL     1      49.786   6.112  16.497  0.00  0.00    +0.000 A 
ATOM     10  C   UNL     1      48.760   6.403  15.574  0.00  0.00    +0.000 A 
BRANCH   9  11
ATOM     11  C   UNL     1      49.472   5.149  17.636  0.00  0.00    +0.000 C 
ATOM     12  C   UNL     1      48.464   4.023  17.347  0.00  0.00    +0.000 C 
ATOM     13  C   UNL     1      47.017   4.524  17.342  0.00  0.00    +0.000 C 
ATOM     14  N   UNL     1      46.659   5.176  18.603  0.00  0.00    +0.000 NA
ATOM     15  C   UNL     1      47.557   6.296  18.888  0.00  0.00    +0.000 C 
ATOM     16  C   UNL     1      49.019   5.856  18.940  0.00  0.00    +0.000 C 
ATOM     17  H   UNL     1      46.722   4.494  19.360  0.00  0.00    +0.000 HD
ENDBRANCH   9  11
ENDBRANCH   1   4
BRANCH   1  18
ATOM     18  N   UNL     1      46.605   6.715  13.679  0.00  0.00    +0.000 N 
ATOM     19  H   UNL     1      46.395   6.506  14.648  0.00  0.00    +0.000 HD
BRANCH  18  23
ATOM     20  C   UNL     1      44.645   4.064  11.182  0.00  0.00    +0.000 A 
ATOM     21  C   UNL     1      44.537   5.440  11.118  0.00  0.00    +0.000 A 
ATOM     22  N   UNL     1      45.199   6.271  11.944  0.00  0.00    +0.000 NA
ATOM     23  C   UNL     1      46.018   5.728  12.884  0.00  0.00    +0.000 A 
ATOM     24  C   UNL     1      46.205   4.343  12.988  0.00  0.00    +0.000 A 
ATOM     25 CL   UNL     1      47.252   3.491  14.058  0.00  0.00    +0.000 Cl
ATOM     26  C   UNL     1      45.490   3.513  12.135  0.00  0.00    +0.000 A 
BRANCH  20  27
ATOM     27  C   UNL     1      43.890   3.165  10.287  0.00  0.00    +0.000 C 
BRANCH  27  29
ATOM     28  N   UNL     1      45.552   1.650   8.651  0.00  0.00    +0.000 NA
ATOM     29  C   UNL     1      44.798   2.337   9.393  0.00  0.00    +0.000 C 
ENDBRANCH  27  29
ENDBRANCH  20  27
ENDBRANCH  18  23
ENDBRANCH   1  18
TORSDOF 6
ENDMDL
MODEL 5
REMARK VINA RESULT:    -6.705      3.467      5.545
REMARK INTER + INTRA:          -9.519
REMARK INTER:                  -8.845
REMARK INTRA:                  -0.674
REMARK UNBOUND:                -0.462
REMARK  Name = 
REMARK  6 active torsions:
REMARK  status: ('A' for Active; 'I' for Inactive)
REMARK    1  A    between atoms: C_2  and  C_3
REMARK    2  A    between atoms: C_3  and  C_4
REMARK    3  A    between atoms: C_7  and  N_8
REMARK    4  A    between atoms: N_8  and  C_9
REMARK    5  A    between atoms: C_9  and  C_10
REMARK    6  A    between atoms: C_15  and  C_16
REMARK                            x       y       z     vdW  Elec       q    Type
REMARK                         _______ _______ _______ _____ _____    ______ ____
ROOT
ATOM      1  C   UNL     1      47.837   7.271  13.446  0.00  0.00    +0.000 C 
ATOM      2  C   UNL     1      47.959   8.474  12.520  0.00  0.00    +0.000 C 
ATOM      3  C   UNL     1      48.432   7.138  12.053  0.00  0.00    +0.000 C 
ENDROOT
BRANCH   1   4
ATOM      4  C   UNL     1      48.800   7.020  14.616  0.00  0.00    +0.000 A 
ATOM      5  C   UNL     1      50.062   7.646  14.658  0.00  0.00    +0.000 A 
ATOM      6  C   UNL     1      50.999   7.337  15.639  0.00  0.00    +0.000 A 
ATOM      7  C   UNL     1      50.695   6.386  16.607  0.00  0.00    +0.000 A 
ATOM      8  F   UNL     1      51.635   6.153  17.533  0.00  0.00    +0.000 F 
ATOM      9  C   UNL     1      49.471   5.709  16.618  0.00  0.00    +0.000 A 
ATOM     10  C   UNL     1      48.530   6.088  15.637  0.00  0.00    +0.000 A 
BRANCH   9  11
ATOM     11  C   UNL     1      49.064   4.639  17.625  0.00  0.00    +0.000 C 
ATOM     12  C   UNL     1      50.151   3.643  18.067  0.00  0.00    +0.000 C 
ATOM     13  C   UNL     1      50.428   2.573  17.007  0.00  0.00    +0.000 C 
ATOM     14  N   UNL     1      49.217   1.833  16.647  0.00  0.00    +0.000 NA
ATOM     15  C   UNL     1      48.174   2.738  16.160  0.00  0.00    +0.000 C 
ATOM     16  C   UNL     1      47.827   3.813  17.188  0.00  0.00    +0.000 C 
ATOM     17  H   UNL     1      48.874   1.336  17.471  0.00  0.00    +0.000 HD
ENDBRANCH   9  11
ENDBRANCH   1   4
BRANCH   1  18
ATOM     18  N   UNL     1      46.479   6.786  13.698  0.00  0.00    +0.000 N 
ATOM     19  H   UNL     1      46.196   6.580  14.649  0.00  0.00    +0.000 HD
BRANCH  18  23
ATOM     20  C   UNL     1      44.659   3.926  11.329  0.00  0.00    +0.000 A 
ATOM     21  C   UNL     1      45.451   3.656  12.428  0.00  0.00    +0.000 A 
ATOM     22  N   UNL     1      46.020   4.617  13.181  0.00  0.00    +0.000 NA
ATOM     23  C   UNL     1      45.799   5.915  12.844  0.00  0.00    +0.000 A 
ATOM     24  C   UNL     1      44.979   6.267  11.763  0.00  0.00    +0.000 A 
ATOM     25 CL   UNL     1      44.530   7.847  11.243  0.00  0.00    +0.000 Cl
ATOM     26  C   UNL     1      44.426   5.253  10.994  0.00  0.00    +0.000 A 
BRANCH  20  27
ATOM     27  C   UNL     1      44.066   2.861  10.497  0.00  0.00    +0.000 C 
BRANCH  27  29
ATOM     28  N   UNL     1      45.790   1.993   8.494  0.00  0.00    +0.000 NA
ATOM     29  C   UNL     1      45.008   2.386   9.402  0.00  0.00    +0.000 C 
ENDBRANCH  27  29
ENDBRANCH  20  27
ENDBRANCH  18  23
ENDBRANCH   1  18
TORSDOF 6
ENDMDL
MODEL 6
REMARK VINA RESULT:    -6.532      4.334      6.961
REMARK INTER + INTRA:          -9.285
REMARK INTER:                  -8.780
REMARK INTRA:                  -0.505
REMARK UNBOUND:                -0.462
REMARK  Name = 
REMARK  6 active torsions:
REMARK  status: ('A' for Active; 'I' for Inactive)
REMARK    1  A    between atoms: C_2  and  C_3
REMARK    2  A    between atoms: C_3  and  C_4
REMARK    3  A    between atoms: C_7  and  N_8
REMARK    4  A    between atoms: N_8  and  C_9
REMARK    5  A    between atoms: C_9  and  C_10
REMARK    6  A    between atoms: C_15  and  C_16
REMARK                            x       y       z     vdW  Elec       q    Type
REMARK                         _______ _______ _______ _____ _____    ______ ____
ROOT
ATOM      1  C   UNL     1      49.327   7.845  14.856  0.00  0.00    +0.000 C 
ATOM      2  C   UNL     1      48.366   8.935  15.313  0.00  0.00    +0.000 C 
ATOM      3  C   UNL     1      49.699   9.317  14.761  0.00  0.00    +0.000 C 
ENDROOT
BRANCH   1   4
ATOM      4  C   UNL     1      50.156   7.002  15.836  0.00  0.00    +0.000 A 
ATOM      5  C   UNL     1      51.564   7.049  15.815  0.00  0.00    +0.000 A 
ATOM      6  C   UNL     1      52.336   6.201  16.604  0.00  0.00    +0.000 A 
ATOM      7  C   UNL     1      51.713   5.279  17.437  0.00  0.00    +0.000 A 
ATOM      8  F   UNL     1      52.516   4.509  18.184  0.00  0.00    +0.000 F 
ATOM      9  C   UNL     1      50.321   5.160  17.497  0.00  0.00    +0.000 A 
ATOM     10  C   UNL     1      49.575   6.071  16.720  0.00  0.00    +0.000 A 
BRANCH   9  11
ATOM     11  C   UNL     1      49.557   4.163  18.362  0.00  0.00    +0.000 C 
ATOM     12  C   UNL     1      49.246   2.790  17.741  0.00  0.00    +0.000 C 
ATOM     13  C   UNL     1      48.084   2.850  16.746  0.00  0.00    +0.000 C 
ATOM     14  N   UNL     1      46.867   3.387  17.356  0.00  0.00    +0.000 NA
ATOM     15  C   UNL     1      47.102   4.724  17.907  0.00  0.00    +0.000 C 
ATOM     16  C   UNL     1      48.231   4.726  18.935  0.00  0.00    +0.000 C 
ATOM     17  H   UNL     1      46.568   2.763  18.107  0.00  0.00    +0.000 HD
ENDBRANCH   9  11
ENDBRANCH   1   4
BRANCH   1  18
ATOM     18  N   UNL     1      48.949   7.119  13.643  0.00  0.00    +0.000 N 
ATOM     19  H   UNL     1      49.280   7.451  12.744  0.00  0.00    +0.000 HD
BRANCH  18  23
ATOM     20  C   UNL     1      45.396   5.048  13.199  0.00  0.00    +0.000 A 
ATOM     21  C   UNL     1      46.522   4.562  13.834  0.00  0.00    +0.000 A 
ATOM     22  N   UNL     1      47.659   5.271  13.966  0.00  0.00    +0.000 NA
ATOM     23  C   UNL     1      47.697   6.529  13.454  0.00  0.00    +0.000 A 
ATOM     24  C   UNL     1      46.583   7.104  12.826  0.00  0.00    +0.000 A 
ATOM     25 CL   UNL     1      46.428   8.698  12.191  0.00  0.00    +0.000 Cl
ATOM     26  C   UNL     1      45.434   6.338  12.686  0.00  0.00    +0.000 A 
BRANCH  20  27
ATOM     27  C   UNL     1      44.167   4.248  13.037  0.00  0.00    +0.000 C 
BRANCH  27  29
ATOM     28  N   UNL     1      42.122   5.676  11.806  0.00  0.00    +0.000 NA
ATOM     29  C   UNL     1      43.049   5.028  12.364  0.00  0.00    +0.000 C 
ENDBRANCH  27  29
ENDBRANCH  20  27
ENDBRANCH  18  23
ENDBRANCH   1  18
TORSDOF 6
ENDMDL
MODEL 7
REMARK VINA RESULT:    -6.510      4.138      7.511
REMARK INTER + INTRA:          -9.256
REMARK INTER:                  -8.757
REMARK INTRA:                  -0.499
REMARK UNBOUND:                -0.462
REMARK  Name = 
REMARK  6 active torsions:
REMARK  status: ('A' for Active; 'I' for Inactive)
REMARK    1  A    between atoms: C_2  and  C_3
REMARK    2  A    between atoms: C_3  and  C_4
REMARK    3  A    between atoms: C_7  and  N_8
REMARK    4  A    between atoms: N_8  and  C_9
REMARK    5  A    between atoms: C_9  and  C_10
REMARK    6  A    between atoms: C_15  and  C_16
REMARK                            x       y       z     vdW  Elec       q    Type
REMARK                         _______ _______ _______ _____ _____    ______ ____
ROOT
ATOM      1  C   UNL     1      48.295   7.808  13.286  0.00  0.00    +0.000 C 
ATOM      2  C   UNL     1      49.493   7.090  12.677  0.00  0.00    +0.000 C 
ATOM      3  C   UNL     1      49.472   8.583  12.714  0.00  0.00    +0.000 C 
ENDROOT
BRANCH   1   4
ATOM      4  C   UNL     1      46.958   7.972  12.546  0.00  0.00    +0.000 A 
ATOM      5  C   UNL     1      46.345   9.235  12.437  0.00  0.00    +0.000 A 
ATOM      6  C   UNL     1      45.076   9.387  11.885  0.00  0.00    +0.000 A 
ATOM      7  C   UNL     1      44.386   8.270  11.429  0.00  0.00    +0.000 A 
ATOM      8  F   UNL     1      43.179   8.491  10.890  0.00  0.00    +0.000 F 
ATOM      9  C   UNL     1      44.922   6.981  11.522  0.00  0.00    +0.000 A 
ATOM     10  C   UNL     1      46.229   6.877  12.041  0.00  0.00    +0.000 A 
BRANCH   9  11
ATOM     11  C   UNL     1      44.226   5.702  11.070  0.00  0.00    +0.000 C 
ATOM     12  C   UNL     1      42.837   5.411  11.664  0.00  0.00    +0.000 C 
ATOM     13  C   UNL     1      42.915   4.887  13.101  0.00  0.00    +0.000 C 
ATOM     14  N   UNL     1      43.741   3.682  13.200  0.00  0.00    +0.000 NA
ATOM     15  C   UNL     1      45.095   3.932  12.702  0.00  0.00    +0.000 C 
ATOM     16  C   UNL     1      45.088   4.427  11.257  0.00  0.00    +0.000 C 
ATOM     17  H   UNL     1      43.311   2.939  12.648  0.00  0.00    +0.000 HD
ENDBRANCH   9  11
ENDBRANCH   1   4
BRANCH   1  18
ATOM     18  N   UNL     1      48.145   7.695  14.737  0.00  0.00    +0.000 N 
ATOM     19  H   UNL     1      48.416   8.475  15.324  0.00  0.00    +0.000 HD
BRANCH  18  23
ATOM     20  C   UNL     1      48.494   4.077  16.709  0.00  0.00    +0.000 A 
ATOM     21  C   UNL     1      47.548   4.365  15.745  0.00  0.00    +0.000 A 
ATOM     22  N   UNL     1      47.472   5.554  15.118  0.00  0.00    +0.000 NA
ATOM     23  C   UNL     1      48.374   6.515  15.448  0.00  0.00    +0.000 A 
ATOM     24  C   UNL     1      49.384   6.286  16.392  0.00  0.00    +0.000 A 
ATOM     25 CL   UNL     1      50.648   7.353  16.875  0.00  0.00    +0.000 Cl
ATOM     26  C   UNL     1      49.421   5.057  17.037  0.00  0.00    +0.000 A 
BRANCH  20  27
ATOM     27  C   UNL     1      48.547   2.778  17.408  0.00  0.00    +0.000 C 
BRANCH  27  29
ATOM     28  N   UNL     1      50.951   1.442  16.994  0.00  0.00    +0.000 NA
ATOM     29  C   UNL     1      49.861   2.048  17.182  0.00  0.00    +0.000 C 
ENDBRANCH  27  29
ENDBRANCH  20  27
ENDBRANCH  18  23
ENDBRANCH   1  18
TORSDOF 6
ENDMDL
MODEL 8
REMARK VINA RESULT:    -6.398      5.031      8.780
REMARK INTER + INTRA:          -9.104
REMARK INTER:                  -8.571
REMARK INTRA:                  -0.534
REMARK UNBOUND:                -0.462
REMARK  Name = 
REMARK  6 active torsions:
REMARK  status: ('A' for Active; 'I' for Inactive)
REMARK    1  A    between atoms: C_2  and  C_3
REMARK    2  A    between atoms: C_3  and  C_4
REMARK    3  A    between atoms: C_7  and  N_8
REMARK    4  A    between atoms: N_8  and  C_9
REMARK    5  A    between atoms: C_9  and  C_10
REMARK    6  A    between atoms: C_15  and  C_16
REMARK                            x       y       z     vdW  Elec       q    Type
REMARK                         _______ _______ _______ _____ _____    ______ ____
ROOT
ATOM      1  C   UNL     1      47.762   4.662  16.154  0.00  0.00    +0.000 C 
ATOM      2  C   UNL     1      46.815   3.750  16.923  0.00  0.00    +0.000 C 
ATOM      3  C   UNL     1      48.059   3.180  16.325  0.00  0.00    +0.000 C 
ENDROOT
BRANCH   1   4
ATOM      4  C   UNL     1      47.482   5.131  14.718  0.00  0.00    +0.000 A 
ATOM      5  C   UNL     1      48.046   6.326  14.228  0.00  0.00    +0.000 A 
ATOM      6  C   UNL     1      47.706   6.835  12.978  0.00  0.00    +0.000 A 
ATOM      7  C   UNL     1      46.786   6.159  12.185  0.00  0.00    +0.000 A 
ATOM      8  F   UNL     1      46.521   6.695  10.986  0.00  0.00    +0.000 F 
ATOM      9  C   UNL     1      46.170   4.978  12.613  0.00  0.00    +0.000 A 
ATOM     10  C   UNL     1      46.579   4.469  13.863  0.00  0.00    +0.000 A 
BRANCH   9  11
ATOM     11  C   UNL     1      45.136   4.186  11.821  0.00  0.00    +0.000 C 
ATOM     12  C   UNL     1      44.434   4.913  10.660  0.00  0.00    +0.000 C 
ATOM     13  C   UNL     1      43.353   5.881  11.147  0.00  0.00    +0.000 C 
ATOM     14  N   UNL     1      42.346   5.209  11.970  0.00  0.00    +0.000 NA
ATOM     15  C   UNL     1      42.964   4.554  13.124  0.00  0.00    +0.000 C 
ATOM     16  C   UNL     1      44.033   3.548  12.704  0.00  0.00    +0.000 C 
ATOM     17  H   UNL     1      41.867   4.508  11.402  0.00  0.00    +0.000 HD
ENDBRANCH   9  11
ENDBRANCH   1   4
BRANCH   1  18
ATOM     18  N   UNL     1      48.502   5.642  16.951  0.00  0.00    +0.000 N 
ATOM     19  H   UNL     1      48.477   6.618  16.681  0.00  0.00    +0.000 HD
BRANCH  18  23
ATOM     20  C   UNL     1      52.336   4.946  18.338  0.00  0.00    +0.000 A 
ATOM     21  C   UNL     1      52.026   5.499  17.110  0.00  0.00    +0.000 A 
ATOM     22  N   UNL     1      50.764   5.718  16.697  0.00  0.00    +0.000 NA
ATOM     23  C   UNL     1      49.745   5.383  17.533  0.00  0.00    +0.000 A 
ATOM     24  C   UNL     1      49.982   4.850  18.807  0.00  0.00    +0.000 A 
ATOM     25 CL   UNL     1      48.826   4.442  20.018  0.00  0.00    +0.000 Cl
ATOM     26  C   UNL     1      51.294   4.615  19.193  0.00  0.00    +0.000 A 
BRANCH  20  27
ATOM     27  C   UNL     1      53.725   4.685  18.764  0.00  0.00    +0.000 C 
BRANCH  27  29
ATOM     28  N   UNL     1      54.075   2.099  19.726  0.00  0.00    +0.000 NA
ATOM     29  C   UNL     1      53.916   3.272  19.290  0.00  0.00    +0.000 C 
ENDBRANCH  27  29
ENDBRANCH  20  27
ENDBRANCH  18  23
ENDBRANCH   1  18
TORSDOF 6
ENDMDL
MODEL 9
REMARK VINA RESULT:    -6.007      4.368      7.245
REMARK INTER + INTRA:          -8.576
REMARK INTER:                  -7.620
REMARK INTRA:                  -0.956
REMARK UNBOUND:                -0.462
REMARK  Name = 
REMARK  6 active torsions:
REMARK  status: ('A' for Active; 'I' for Inactive)
REMARK    1  A    between atoms: C_2  and  C_3
REMARK    2  A    between atoms: C_3  and  C_4
REMARK    3  A    between atoms: C_7  and  N_8
REMARK    4  A    between atoms: N_8  and  C_9
REMARK    5  A    between atoms: C_9  and  C_10
REMARK    6  A    between atoms: C_15  and  C_16
REMARK                            x       y       z     vdW  Elec       q    Type
REMARK                         _______ _______ _______ _____ _____    ______ ____
ROOT
ATOM      1  C   UNL     1      50.095   7.752  14.637  0.00  0.00    +0.000 C 
ATOM      2  C   UNL     1      50.819   9.042  14.273  0.00  0.00    +0.000 C 
ATOM      3  C   UNL     1      51.606   7.871  14.762  0.00  0.00    +0.000 C 
ENDROOT
BRANCH   1   4
ATOM      4  C   UNL     1      49.323   7.574  15.953  0.00  0.00    +0.000 A 
ATOM      5  C   UNL     1      48.679   8.668  16.564  0.00  0.00    +0.000 A 
ATOM      6  C   UNL     1      48.083   8.559  17.817  0.00  0.00    +0.000 A 
ATOM      7  C   UNL     1      48.120   7.345  18.494  0.00  0.00    +0.000 A 
ATOM      8  F   UNL     1      47.509   7.306  19.686  0.00  0.00    +0.000 F 
ATOM      9  C   UNL     1      48.758   6.221  17.960  0.00  0.00    +0.000 A 
ATOM     10  C   UNL     1      49.305   6.360  16.667  0.00  0.00    +0.000 A 
BRANCH   9  11
ATOM     11  C   UNL     1      48.867   4.862  18.642  0.00  0.00    +0.000 C 
ATOM     12  C   UNL     1      49.480   4.832  20.053  0.00  0.00    +0.000 C 
ATOM     13  C   UNL     1      51.005   4.967  20.029  0.00  0.00    +0.000 C 
ATOM     14  N   UNL     1      51.634   3.928  19.210  0.00  0.00    +0.000 NA
ATOM     15  C   UNL     1      51.124   3.961  17.838  0.00  0.00    +0.000 C 
ATOM     16  C   UNL     1      49.606   3.798  17.791  0.00  0.00    +0.000 C 
ATOM     17  H   UNL     1      51.435   3.015  19.622  0.00  0.00    +0.000 HD
ENDBRANCH   9  11
ENDBRANCH   1   4
BRANCH   1  18
ATOM     18  N   UNL     1      49.522   6.998  13.522  0.00  0.00    +0.000 N 
ATOM     19  H   UNL     1      49.956   7.061  12.608  0.00  0.00    +0.000 HD
BRANCH  18  23
ATOM     20  C   UNL     1      45.530   6.068  12.973  0.00  0.00    +0.000 A 
ATOM     21  C   UNL     1      46.523   5.153  13.262  0.00  0.00    +0.000 A 
ATOM     22  N   UNL     1      47.813   5.496  13.443  0.00  0.00    +0.000 NA
ATOM     23  C   UNL     1      48.150   6.809  13.340  0.00  0.00    +0.000 A 
ATOM     24  C   UNL     1      47.192   7.799  13.083  0.00  0.00    +0.000 A 
ATOM     25 CL   UNL     1      47.425   9.504  12.996  0.00  0.00    +0.000 Cl
ATOM     26  C   UNL     1      45.876   7.409  12.880  0.00  0.00    +0.000 A 
BRANCH  20  27
ATOM     27  C   UNL     1      44.126   5.672  12.749  0.00  0.00    +0.000 C 
BRANCH  27  29
ATOM     28  N   UNL     1      43.772   2.914  12.831  0.00  0.00    +0.000 NA
ATOM     29  C   UNL     1      43.932   4.165  12.794  0.00  0.00    +0.000 C 
ENDBRANCH  27  29
ENDBRANCH  20  27
ENDBRANCH  18  23
ENDBRANCH   1  18
TORSDOF 6
ENDMDL
