MODEL 1
REMARK VINA RESULT:    -7.838      0.000      0.000
REMARK INTER + INTRA:         -11.059
REMARK INTER:                 -10.129
REMARK INTRA:                  -0.930
REMARK UNBOUND:                -0.930
REMARK  Name = 
REMARK  6 active torsions:
REMARK  status: ('A' for Active; 'I' for Inactive)
REMARK    1  A    between atoms: C_1  and  C_2
REMARK    2  A    between atoms: C_2  and  N_3
REMARK    3  A    between atoms: C_2  and  C_16
REMARK    4  A    between atoms: C_4  and  C_6
REMARK    5  A    between atoms: C_19  and  C_20
REMARK    6  A    between atoms: C_20  and  N_21
REMARK                            x       y       z     vdW  Elec       q    Type
REMARK                         _______ _______ _______ _____ _____    ______ ____
ROOT
ATOM      1  C   UNL     1      43.920   2.895  10.933  0.00  0.00    +0.000 C 
ATOM      2  C   UNL     1      44.356   3.888   9.853  0.00  0.00    +0.000 C 
ENDROOT
BRANCH   2   3
ATOM      3  C   UNL     1      45.271   3.205   8.847  0.00  0.00    +0.000 A 
ATOM      4  C   UNL     1      45.789   3.993   7.806  0.00  0.00    +0.000 A 
ATOM      5  C   UNL     1      46.535   3.426   6.775  0.00  0.00    +0.000 A 
ATOM      6  C   UNL     1      46.808   2.055   6.761  0.00  0.00    +0.000 A 
ATOM      7  C   UNL     1      46.342   1.268   7.823  0.00  0.00    +0.000 A 
ATOM      8  C   UNL     1      45.567   1.833   8.844  0.00  0.00    +0.000 A 
BRANCH   6   9
ATOM      9  C   UNL     1      47.517   1.433   5.579  0.00  0.00    +0.000 C 
BRANCH   9  10
ATOM     10  N   UNL     1      46.657   0.617   4.692  0.00  0.00    +0.000 NA
ATOM     11  C   UNL     1      46.320   1.368   3.473  0.00  0.00    +0.000 C 
ATOM     12  C   UNL     1      45.634   0.522   2.399  0.00  0.00    +0.000 C 
ATOM     13  C   UNL     1      46.450  -0.719   2.073  0.00  0.00    +0.000 C 
ATOM     14  C   UNL     1      46.668  -1.519   3.347  0.00  0.00    +0.000 C 
ATOM     15  C   UNL     1      47.329  -0.667   4.431  0.00  0.00    +0.000 C 
ENDBRANCH   9  10
ENDBRANCH   6   9
ENDBRANCH   2   3
BRANCH   2  16
ATOM     16  N   UNL     1      44.939   5.068  10.450  0.00  0.00    +0.000 N 
ATOM     17  C   UNL     1      44.185   6.013  11.093  0.00  0.00    +0.000 C 
ATOM     18  O   UNL     1      42.963   5.943  11.176  0.00  0.00    +0.000 OA
ATOM     19  H   UNL     1      45.931   5.219  10.326  0.00  0.00    +0.000 HD
BRANCH  17  20
ATOM     20  C   UNL     1      44.935   7.096  11.735  0.00  0.00    +0.000 A 
ATOM     21  C   UNL     1      44.660   8.416  11.409  0.00  0.00    +0.000 A 
ATOM     22  S   UNL     1      45.610   9.541  12.271  0.00  0.00    +0.000 S 
ATOM     23  C   UNL     1      46.450   8.298  13.074  0.00  0.00    +0.000 A 
ATOM     24  N   UNL     1      47.451   8.581  13.954  0.00  0.00    +0.000 NA
ATOM     25  C   UNL     1      48.018   7.545  14.468  0.00  0.00    +0.000 A 
ATOM     26  N   UNL     1      47.677   6.248  14.191  0.00  0.00    +0.000 N 
ATOM     27  C   UNL     1      46.642   5.916  13.353  0.00  0.00    +0.000 A 
ATOM     28  O   UNL     1      46.297   4.749  13.223  0.00  0.00    +0.000 OA
ATOM     29  C   UNL     1      45.992   7.044  12.714  0.00  0.00    +0.000 A 
ATOM     30  H   UNL     1      48.139   5.478  14.646  0.00  0.00    +0.000 HD
ENDBRANCH  17  20
ENDBRANCH   2  16
TORSDOF 5
ENDMDL
MODEL 2
REMARK VINA RESULT:    -7.458      3.913      6.750
REMARK INTER + INTRA:         -10.568
REMARK INTER:                 -10.012
REMARK INTRA:                  -0.556
REMARK UNBOUND:                -0.930
REMARK  Name = 
REMARK  6 active torsions:
REMARK  status: ('A' for Active; 'I' for Inactive)
REMARK    1  A    between atoms: C_1  and  C_2
REMARK    2  A    between atoms: C_2  and  N_3
REMARK    3  A    between atoms: C_2  and  C_16
REMARK    4  A    between atoms: C_4  and  C_6
REMARK    5  A    between atoms: C_19  and  C_20
REMARK    6  A    between atoms: C_20  and  N_21
REMARK                            x       y       z     vdW  Elec       q    Type
REMARK                         _______ _______ _______ _____ _____    ______ ____
ROOT
ATOM      1  C   UNL     1      48.992   8.146  13.340  0.00  0.00    +0.000 C 
ATOM      2  C   UNL     1      48.573   6.789  13.909  0.00  0.00    +0.000 C 
ENDROOT
BRANCH   2   3
ATOM      3  C   UNL     1      47.440   6.198  13.084  0.00  0.00    +0.000 A 
ATOM      4  C   UNL     1      47.051   6.895  11.928  0.00  0.00    +0.000 A 
ATOM      5  C   UNL     1      45.945   6.494  11.181  0.00  0.00    +0.000 A 
ATOM      6  C   UNL     1      45.205   5.367  11.551  0.00  0.00    +0.000 A 
ATOM      7  C   UNL     1      45.616   4.632  12.671  0.00  0.00    +0.000 A 
ATOM      8  C   UNL     1      46.709   5.053  13.438  0.00  0.00    +0.000 A 
BRANCH   6   9
ATOM      9  C   UNL     1      43.941   5.008  10.801  0.00  0.00    +0.000 C 
BRANCH   9  10
ATOM     10  N   UNL     1      44.135   4.100   9.648  0.00  0.00    +0.000 NA
ATOM     11  C   UNL     1      45.317   4.504   8.871  0.00  0.00    +0.000 C 
ATOM     12  C   UNL     1      45.730   3.488   7.804  0.00  0.00    +0.000 C 
ATOM     13  C   UNL     1      45.913   2.104   8.406  0.00  0.00    +0.000 C 
ATOM     14  C   UNL     1      44.623   1.686   9.093  0.00  0.00    +0.000 C 
ATOM     15  C   UNL     1      44.195   2.714  10.141  0.00  0.00    +0.000 C 
ENDBRANCH   9  10
ENDBRANCH   6   9
ENDBRANCH   2   3
BRANCH   2  16
ATOM     16  N   UNL     1      48.261   6.899  15.315  0.00  0.00    +0.000 N 
ATOM     17  C   UNL     1      49.151   6.544  16.294  0.00  0.00    +0.000 C 
ATOM     18  O   UNL     1      50.258   6.075  16.046  0.00  0.00    +0.000 OA
ATOM     19  H   UNL     1      47.328   7.191  15.571  0.00  0.00    +0.000 HD
BRANCH  17  20
ATOM     20  C   UNL     1      48.725   6.814  17.670  0.00  0.00    +0.000 A 
ATOM     21  C   UNL     1      48.386   8.105  18.048  0.00  0.00    +0.000 A 
ATOM     22  S   UNL     1      47.890   8.229  19.675  0.00  0.00    +0.000 S 
ATOM     23  C   UNL     1      48.155   6.568  19.938  0.00  0.00    +0.000 A 
ATOM     24  N   UNL     1      47.949   6.009  21.164  0.00  0.00    +0.000 NA
ATOM     25  C   UNL     1      48.214   4.750  21.227  0.00  0.00    +0.000 A 
ATOM     26  N   UNL     1      48.660   3.990  20.179  0.00  0.00    +0.000 N 
ATOM     27  C   UNL     1      48.831   4.498  18.915  0.00  0.00    +0.000 A 
ATOM     28  O   UNL     1      49.120   3.761  17.982  0.00  0.00    +0.000 OA
ATOM     29  C   UNL     1      48.585   5.923  18.794  0.00  0.00    +0.000 A 
ATOM     30  H   UNL     1      48.824   3.003  20.281  0.00  0.00    +0.000 HD
ENDBRANCH  17  20
ENDBRANCH   2  16
TORSDOF 5
ENDMDL
MODEL 3
REMARK VINA RESULT:    -7.231      3.899      6.589
REMARK INTER + INTRA:         -10.275
REMARK INTER:                  -9.515
REMARK INTRA:                  -0.760
REMARK UNBOUND:                -0.930
REMARK  Name = 
REMARK  6 active torsions:
REMARK  status: ('A' for Active; 'I' for Inactive)
REMARK    1  A    between atoms: C_1  and  C_2
REMARK    2  A    between atoms: C_2  and  N_3
REMARK    3  A    between atoms: C_2  and  C_16
REMARK    4  A    between atoms: C_4  and  C_6
REMARK    5  A    between atoms: C_19  and  C_20
REMARK    6  A    between atoms: C_20  and  N_21
REMARK                            x       y       z     vdW  Elec       q    Type
REMARK                         _______ _______ _______ _____ _____    ______ ____
ROOT
ATOM      1  C   UNL     1      48.661   8.247  13.408  0.00  0.00    +0.000 C 
ATOM      2  C   UNL     1      48.402   6.812  13.870  0.00  0.00    +0.000 C 
ENDROOT
BRANCH   2   3
ATOM      3  C   UNL     1      47.329   6.166  13.005  0.00  0.00    +0.000 A 
ATOM      4  C   UNL     1      46.974   6.825  11.817  0.00  0.00    +0.000 A 
ATOM      5  C   UNL     1      45.919   6.371  11.028  0.00  0.00    +0.000 A 
ATOM      6  C   UNL     1      45.198   5.228  11.388  0.00  0.00    +0.000 A 
ATOM      7  C   UNL     1      45.579   4.531  12.543  0.00  0.00    +0.000 A 
ATOM      8  C   UNL     1      46.620   5.005  13.351  0.00  0.00    +0.000 A 
BRANCH   6   9
ATOM      9  C   UNL     1      43.984   4.812  10.588  0.00  0.00    +0.000 C 
BRANCH   9  10
ATOM     10  N   UNL     1      44.273   3.967   9.407  0.00  0.00    +0.000 NA
ATOM     11  C   UNL     1      45.451   4.479   8.688  0.00  0.00    +0.000 C 
ATOM     12  C   UNL     1      45.962   3.537   7.596  0.00  0.00    +0.000 C 
ATOM     13  C   UNL     1      46.217   2.144   8.147  0.00  0.00    +0.000 C 
ATOM     14  C   UNL     1      44.937   1.615   8.773  0.00  0.00    +0.000 C 
ATOM     15  C   UNL     1      44.410   2.568   9.846  0.00  0.00    +0.000 C 
ENDBRANCH   9  10
ENDBRANCH   6   9
ENDBRANCH   2   3
BRANCH   2  16
ATOM     16  N   UNL     1      48.100   6.775  15.282  0.00  0.00    +0.000 N 
ATOM     17  C   UNL     1      49.039   6.450  16.224  0.00  0.00    +0.000 C 
ATOM     18  O   UNL     1      50.188   6.134  15.935  0.00  0.00    +0.000 OA
ATOM     19  H   UNL     1      47.143   6.936  15.564  0.00  0.00    +0.000 HD
BRANCH  17  20
ATOM     20  C   UNL     1      48.604   6.561  17.619  0.00  0.00    +0.000 A 
ATOM     21  C   UNL     1      48.608   5.440  18.436  0.00  0.00    +0.000 A 
ATOM     22  S   UNL     1      48.096   5.759  20.032  0.00  0.00    +0.000 S 
ATOM     23  C   UNL     1      47.810   7.397  19.669  0.00  0.00    +0.000 A 
ATOM     24  N   UNL     1      47.318   8.250  20.611  0.00  0.00    +0.000 NA
ATOM     25  C   UNL     1      47.125   9.453  20.193  0.00  0.00    +0.000 A 
ATOM     26  N   UNL     1      47.383   9.891  18.921  0.00  0.00    +0.000 N 
ATOM     27  C   UNL     1      47.928   9.082  17.955  0.00  0.00    +0.000 A 
ATOM     28  O   UNL     1      48.249   9.542  16.868  0.00  0.00    +0.000 OA
ATOM     29  C   UNL     1      48.130   7.704  18.360  0.00  0.00    +0.000 A 
ATOM     30  H   UNL     1      47.238  10.851  18.659  0.00  0.00    +0.000 HD
ENDBRANCH  17  20
ENDBRANCH   2  16
TORSDOF 5
ENDMDL
MODEL 4
REMARK VINA RESULT:    -7.228      5.121     11.933
REMARK INTER + INTRA:         -10.271
REMARK INTER:                  -9.182
REMARK INTRA:                  -1.089
REMARK UNBOUND:                -0.930
REMARK  Name = 
REMARK  6 active torsions:
REMARK  status: ('A' for Active; 'I' for Inactive)
REMARK    1  A    between atoms: C_1  and  C_2
REMARK    2  A    between atoms: C_2  and  N_3
REMARK    3  A    between atoms: C_2  and  C_16
REMARK    4  A    between atoms: C_4  and  C_6
REMARK    5  A    between atoms: C_19  and  C_20
REMARK    6  A    between atoms: C_20  and  N_21
REMARK                            x       y       z     vdW  Elec       q    Type
REMARK                         _______ _______ _______ _____ _____    ______ ____
ROOT
ATOM      1  C   UNL     1      47.660   3.218  16.830  0.00  0.00    +0.000 C 
ATOM      2  C   UNL     1      48.003   4.591  16.247  0.00  0.00    +0.000 C 
ENDROOT
BRANCH   2   3
ATOM      3  C   UNL     1      48.157   5.613  17.363  0.00  0.00    +0.000 A 
ATOM      4  C   UNL     1      47.379   5.430  18.519  0.00  0.00    +0.000 A 
ATOM      5  C   UNL     1      47.366   6.381  19.537  0.00  0.00    +0.000 A 
ATOM      6  C   UNL     1      48.148   7.537  19.446  0.00  0.00    +0.000 A 
ATOM      7  C   UNL     1      48.969   7.703  18.323  0.00  0.00    +0.000 A 
ATOM      8  C   UNL     1      48.960   6.762  17.285  0.00  0.00    +0.000 A 
BRANCH   6   9
ATOM      9  C   UNL     1      48.038   8.615  20.501  0.00  0.00    +0.000 C 
BRANCH   9  10
ATOM     10  N   UNL     1      46.903   9.549  20.322  0.00  0.00    +0.000 NA
ATOM     11  C   UNL     1      46.289   9.864  21.622  0.00  0.00    +0.000 C 
ATOM     12  C   UNL     1      45.266  10.999  21.561  0.00  0.00    +0.000 C 
ATOM     13  C   UNL     1      45.862  12.242  20.920  0.00  0.00    +0.000 C 
ATOM     14  C   UNL     1      46.374  11.888  19.533  0.00  0.00    +0.000 C 
ATOM     15  C   UNL     1      47.377  10.736  19.589  0.00  0.00    +0.000 C 
ENDBRANCH   9  10
ENDBRANCH   6   9
ENDBRANCH   2   3
BRANCH   2  16
ATOM     16  N   UNL     1      47.036   4.977  15.246  0.00  0.00    +0.000 N 
ATOM     17  C   UNL     1      47.389   5.658  14.111  0.00  0.00    +0.000 C 
ATOM     18  O   UNL     1      48.540   6.017  13.883  0.00  0.00    +0.000 OA
ATOM     19  H   UNL     1      46.061   4.787  15.431  0.00  0.00    +0.000 HD
BRANCH  17  20
ATOM     20  C   UNL     1      46.311   5.883  13.144  0.00  0.00    +0.000 A 
ATOM     21  C   UNL     1      45.986   7.176  12.759  0.00  0.00    +0.000 A 
ATOM     22  S   UNL     1      44.727   7.247  11.610  0.00  0.00    +0.000 S 
ATOM     23  C   UNL     1      44.547   5.555  11.623  0.00  0.00    +0.000 A 
ATOM     24  N   UNL     1      43.593   4.944  10.866  0.00  0.00    +0.000 NA
ATOM     25  C   UNL     1      43.551   3.662  10.993  0.00  0.00    +0.000 A 
ATOM     26  N   UNL     1      44.376   2.929  11.802  0.00  0.00    +0.000 N 
ATOM     27  C   UNL     1      45.385   3.495  12.542  0.00  0.00    +0.000 A 
ATOM     28  O   UNL     1      46.171   2.792  13.162  0.00  0.00    +0.000 OA
ATOM     29  C   UNL     1      45.453   4.942  12.468  0.00  0.00    +0.000 A 
ATOM     30  H   UNL     1      44.314   1.925  11.840  0.00  0.00    +0.000 HD
ENDBRANCH  17  20
ENDBRANCH   2  16
TORSDOF 5
ENDMDL
MODEL 5
REMARK VINA RESULT:    -6.925      4.704     10.796
REMARK INTER + INTRA:          -9.879
REMARK INTER:                  -8.738
REMARK INTRA:                  -1.142
REMARK UNBOUND:                -0.930
REMARK  Name = 
REMARK  6 active torsions:
REMARK  status: ('A' for Active; 'I' for Inactive)
REMARK    1  A    between atoms: C_1  and  C_2
REMARK    2  A    between atoms: C_2  and  N_3
REMARK    3  A    between atoms: C_2  and  C_16
REMARK    4  A    between atoms: C_4  and  C_6
REMARK    5  A    between atoms: C_19  and  C_20
REMARK    6  A    between atoms: C_20  and  N_21
REMARK                            x       y       z     vdW  Elec       q    Type
REMARK                         _______ _______ _______ _____ _____    ______ ____
ROOT
ATOM      1  C   UNL     1      49.599   7.559  12.386  0.00  0.00    +0.000 C 
ATOM      2  C   UNL     1      48.376   7.175  13.222  0.00  0.00    +0.000 C 
ENDROOT
BRANCH   2   3
ATOM      3  C   UNL     1      48.812   6.659  14.586  0.00  0.00    +0.000 A 
ATOM      4  C   UNL     1      47.980   5.719  15.217  0.00  0.00    +0.000 A 
ATOM      5  C   UNL     1      48.237   5.286  16.516  0.00  0.00    +0.000 A 
ATOM      6  C   UNL     1      49.348   5.760  17.221  0.00  0.00    +0.000 A 
ATOM      7  C   UNL     1      50.215   6.656  16.581  0.00  0.00    +0.000 A 
ATOM      8  C   UNL     1      49.940   7.114  15.287  0.00  0.00    +0.000 A 
BRANCH   6   9
ATOM      9  C   UNL     1      49.552   5.372  18.668  0.00  0.00    +0.000 C 
BRANCH   9  10
ATOM     10  N   UNL     1      48.441   5.740  19.576  0.00  0.00    +0.000 NA
ATOM     11  C   UNL     1      48.528   4.974  20.829  0.00  0.00    +0.000 C 
ATOM     12  C   UNL     1      47.565   5.458  21.915  0.00  0.00    +0.000 C 
ATOM     13  C   UNL     1      47.728   6.948  22.169  0.00  0.00    +0.000 C 
ATOM     14  C   UNL     1      47.511   7.700  20.866  0.00  0.00    +0.000 C 
ATOM     15  C   UNL     1      48.454   7.200  19.772  0.00  0.00    +0.000 C 
ENDBRANCH   9  10
ENDBRANCH   6   9
ENDBRANCH   2   3
BRANCH   2  16
ATOM     16  N   UNL     1      47.534   6.249  12.502  0.00  0.00    +0.000 N 
ATOM     17  C   UNL     1      46.450   6.659  11.772  0.00  0.00    +0.000 C 
ATOM     18  O   UNL     1      46.098   7.833  11.710  0.00  0.00    +0.000 OA
ATOM     19  H   UNL     1      47.726   5.261  12.598  0.00  0.00    +0.000 HD
BRANCH  17  20
ATOM     20  C   UNL     1      45.760   5.612  11.014  0.00  0.00    +0.000 A 
ATOM     21  C   UNL     1      45.830   5.602   9.628  0.00  0.00    +0.000 A 
ATOM     22  S   UNL     1      44.991   4.300   8.914  0.00  0.00    +0.000 S 
ATOM     23  C   UNL     1      44.472   3.732  10.433  0.00  0.00    +0.000 A 
ATOM     24  N   UNL     1      43.669   2.636  10.537  0.00  0.00    +0.000 NA
ATOM     25  C   UNL     1      43.331   2.334  11.742  0.00  0.00    +0.000 A 
ATOM     26  N   UNL     1      43.724   3.021  12.860  0.00  0.00    +0.000 N 
ATOM     27  C   UNL     1      44.575   4.097  12.809  0.00  0.00    +0.000 A 
ATOM     28  O   UNL     1      44.993   4.609  13.839  0.00  0.00    +0.000 OA
ATOM     29  C   UNL     1      44.956   4.506  11.470  0.00  0.00    +0.000 A 
ATOM     30  H   UNL     1      43.450   2.721  13.781  0.00  0.00    +0.000 HD
ENDBRANCH  17  20
ENDBRANCH   2  16
TORSDOF 5
ENDMDL
MODEL 6
REMARK VINA RESULT:    -6.819      6.438      9.905
REMARK INTER + INTRA:          -9.743
REMARK INTER:                  -8.544
REMARK INTRA:                  -1.199
REMARK UNBOUND:                -0.930
REMARK  Name = 
REMARK  6 active torsions:
REMARK  status: ('A' for Active; 'I' for Inactive)
REMARK    1  A    between atoms: C_1  and  C_2
REMARK    2  A    between atoms: C_2  and  N_3
REMARK    3  A    between atoms: C_2  and  C_16
REMARK    4  A    between atoms: C_4  and  C_6
REMARK    5  A    between atoms: C_19  and  C_20
REMARK    6  A    between atoms: C_20  and  N_21
REMARK                            x       y       z     vdW  Elec       q    Type
REMARK                         _______ _______ _______ _____ _____    ______ ____
ROOT
ATOM      1  C   UNL     1      48.279   5.955  19.416  0.00  0.00    +0.000 C 
ATOM      2  C   UNL     1      49.277   5.934  18.256  0.00  0.00    +0.000 C 
ENDROOT
BRANCH   2   3
ATOM      3  C   UNL     1      48.551   5.707  16.938  0.00  0.00    +0.000 A 
ATOM      4  C   UNL     1      47.737   4.567  16.837  0.00  0.00    +0.000 A 
ATOM      5  C   UNL     1      47.133   4.216  15.632  0.00  0.00    +0.000 A 
ATOM      6  C   UNL     1      47.302   5.008  14.491  0.00  0.00    +0.000 A 
ATOM      7  C   UNL     1      48.067   6.177  14.595  0.00  0.00    +0.000 A 
ATOM      8  C   UNL     1      48.699   6.513  15.799  0.00  0.00    +0.000 A 
BRANCH   6   9
ATOM      9  C   UNL     1      46.738   4.556  13.163  0.00  0.00    +0.000 C 
BRANCH   9  10
ATOM     10  N   UNL     1      45.291   4.241  13.173  0.00  0.00    +0.000 NA
ATOM     11  C   UNL     1      44.497   5.477  13.083  0.00  0.00    +0.000 C 
ATOM     12  C   UNL     1      43.005   5.234  12.850  0.00  0.00    +0.000 C 
ATOM     13  C   UNL     1      42.776   4.343  11.639  0.00  0.00    +0.000 C 
ATOM     14  C   UNL     1      43.521   3.033  11.839  0.00  0.00    +0.000 C 
ATOM     15  C   UNL     1      45.008   3.275  12.098  0.00  0.00    +0.000 C 
ENDBRANCH   9  10
ENDBRANCH   6   9
ENDBRANCH   2   3
BRANCH   2  16
ATOM     16  N   UNL     1      50.328   4.974  18.503  0.00  0.00    +0.000 N 
ATOM     17  C   UNL     1      51.591   5.123  17.996  0.00  0.00    +0.000 C 
ATOM     18  O   UNL     1      51.908   6.059  17.268  0.00  0.00    +0.000 OA
ATOM     19  H   UNL     1      50.092   4.137  19.018  0.00  0.00    +0.000 HD
BRANCH  17  20
ATOM     20  C   UNL     1      52.571   4.121  18.424  0.00  0.00    +0.000 A 
ATOM     21  C   UNL     1      53.662   4.504  19.190  0.00  0.00    +0.000 A 
ATOM     22  S   UNL     1      54.682   3.205  19.617  0.00  0.00    +0.000 S 
ATOM     23  C   UNL     1      53.722   2.096  18.754  0.00  0.00    +0.000 A 
ATOM     24  N   UNL     1      54.061   0.778  18.682  0.00  0.00    +0.000 NA
ATOM     25  C   UNL     1      53.260   0.059  17.975  0.00  0.00    +0.000 A 
ATOM     26  N   UNL     1      52.145   0.529  17.334  0.00  0.00    +0.000 N 
ATOM     27  C   UNL     1      51.735   1.836  17.422  0.00  0.00    +0.000 A 
ATOM     28  O   UNL     1      50.671   2.189  16.929  0.00  0.00    +0.000 OA
ATOM     29  C   UNL     1      52.622   2.702  18.175  0.00  0.00    +0.000 A 
ATOM     30  H   UNL     1      51.540  -0.088  16.817  0.00  0.00    +0.000 HD
ENDBRANCH  17  20
ENDBRANCH   2  16
TORSDOF 5
ENDMDL
MODEL 7
REMARK VINA RESULT:    -6.722      4.691      9.920
REMARK INTER + INTRA:          -9.618
REMARK INTER:                  -8.491
REMARK INTRA:                  -1.127
REMARK UNBOUND:                -0.930
REMARK  Name = 
REMARK  6 active torsions:
REMARK  status: ('A' for Active; 'I' for Inactive)
REMARK    1  A    between atoms: C_1  and  C_2
REMARK    2  A    between atoms: C_2  and  N_3
REMARK    3  A    between atoms: C_2  and  C_16
REMARK    4  A    between atoms: C_4  and  C_6
REMARK    5  A    between atoms: C_19  and  C_20
REMARK    6  A    between atoms: C_20  and  N_21
REMARK                            x       y       z     vdW  Elec       q    Type
REMARK                         _______ _______ _______ _____ _____    ______ ____
ROOT
ATOM      1  C   UNL     1      49.487   7.697  12.297  0.00  0.00    +0.000 C 
ATOM      2  C   UNL     1      48.284   7.285  13.149  0.00  0.00    +0.000 C 
ENDROOT
BRANCH   2   3
ATOM      3  C   UNL     1      48.748   6.794  14.513  0.00  0.00    +0.000 A 
ATOM      4  C   UNL     1      50.002   7.237  14.966  0.00  0.00    +0.000 A 
ATOM      5  C   UNL     1      50.559   6.743  16.145  0.00  0.00    +0.000 A 
ATOM      6  C   UNL     1      49.869   5.808  16.923  0.00  0.00    +0.000 A 
ATOM      7  C   UNL     1      48.594   5.401  16.508  0.00  0.00    +0.000 A 
ATOM      8  C   UNL     1      48.048   5.874  15.309  0.00  0.00    +0.000 A 
BRANCH   6   9
ATOM      9  C   UNL     1      50.531   5.194  18.136  0.00  0.00    +0.000 C 
BRANCH   9  10
ATOM     10  N   UNL     1      51.762   4.421  17.852  0.00  0.00    +0.000 NA
ATOM     11  C   UNL     1      52.801   4.728  18.848  0.00  0.00    +0.000 C 
ATOM     12  C   UNL     1      54.018   3.804  18.773  0.00  0.00    +0.000 C 
ATOM     13  C   UNL     1      53.603   2.343  18.843  0.00  0.00    +0.000 C 
ATOM     14  C   UNL     1      52.621   2.051  17.720  0.00  0.00    +0.000 C 
ATOM     15  C   UNL     1      51.417   2.991  17.778  0.00  0.00    +0.000 C 
ENDBRANCH   9  10
ENDBRANCH   6   9
ENDBRANCH   2   3
BRANCH   2  16
ATOM     16  N   UNL     1      47.462   6.328  12.446  0.00  0.00    +0.000 N 
ATOM     17  C   UNL     1      46.371   6.703  11.707  0.00  0.00    +0.000 C 
ATOM     18  O   UNL     1      45.995   7.868  11.622  0.00  0.00    +0.000 OA
ATOM     19  H   UNL     1      47.674   5.347  12.561  0.00  0.00    +0.000 HD
BRANCH  17  20
ATOM     20  C   UNL     1      45.704   5.627  10.968  0.00  0.00    +0.000 A 
ATOM     21  C   UNL     1      45.767   5.599   9.582  0.00  0.00    +0.000 A 
ATOM     22  S   UNL     1      44.957   4.265   8.893  0.00  0.00    +0.000 S 
ATOM     23  C   UNL     1      44.460   3.708  10.422  0.00  0.00    +0.000 A 
ATOM     24  N   UNL     1      43.684   2.594  10.547  0.00  0.00    +0.000 NA
ATOM     25  C   UNL     1      43.360   2.302  11.759  0.00  0.00    +0.000 A 
ATOM     26  N   UNL     1      43.742   3.015  12.864  0.00  0.00    +0.000 N 
ATOM     27  C   UNL     1      44.566   4.111  12.792  0.00  0.00    +0.000 A 
ATOM     28  O   UNL     1      44.975   4.649  13.812  0.00  0.00    +0.000 OA
ATOM     29  C   UNL     1      44.930   4.509  11.445  0.00  0.00    +0.000 A 
ATOM     30  H   UNL     1      43.480   2.722  13.790  0.00  0.00    +0.000 HD
ENDBRANCH  17  20
ENDBRANCH   2  16
TORSDOF 5
ENDMDL
MODEL 8
REMARK VINA RESULT:    -6.706      3.711     10.616
REMARK INTER + INTRA:          -9.597
REMARK INTER:                  -8.484
REMARK INTRA:                  -1.113
REMARK UNBOUND:                -0.930
REMARK  Name = 
REMARK  6 active torsions:
REMARK  status: ('A' for Active; 'I' for Inactive)
REMARK    1  A    between atoms: C_1  and  C_2
REMARK    2  A    between atoms: C_2  and  N_3
REMARK    3  A    between atoms: C_2  and  C_16
REMARK    4  A    between atoms: C_4  and  C_6
REMARK    5  A    between atoms: C_19  and  C_20
REMARK    6  A    between atoms: C_20  and  N_21
REMARK                            x       y       z     vdW  Elec       q    Type
REMARK                         _______ _______ _______ _____ _____    ______ ____
ROOT
ATOM      1  C   UNL     1      49.033   7.734  11.420  0.00  0.00    +0.000 C 
ATOM      2  C   UNL     1      47.818   7.699  12.351  0.00  0.00    +0.000 C 
ENDROOT
BRANCH   2   3
ATOM      3  C   UNL     1      48.256   7.893  13.796  0.00  0.00    +0.000 A 
ATOM      4  C   UNL     1      48.963   6.842  14.403  0.00  0.00    +0.000 A 
ATOM      5  C   UNL     1      49.295   6.884  15.756  0.00  0.00    +0.000 A 
ATOM      6  C   UNL     1      48.952   7.989  16.542  0.00  0.00    +0.000 A 
ATOM      7  C   UNL     1      48.295   9.066  15.933  0.00  0.00    +0.000 A 
ATOM      8  C   UNL     1      47.935   9.011  14.581  0.00  0.00    +0.000 A 
BRANCH   6   9
ATOM      9  C   UNL     1      49.215   7.972  18.031  0.00  0.00    +0.000 C 
BRANCH   9  10
ATOM     10  N   UNL     1      48.737   6.761  18.736  0.00  0.00    +0.000 NA
ATOM     11  C   UNL     1      49.865   6.053  19.362  0.00  0.00    +0.000 C 
ATOM     12  C   UNL     1      49.439   4.927  20.305  0.00  0.00    +0.000 C 
ATOM     13  C   UNL     1      48.457   5.429  21.351  0.00  0.00    +0.000 C 
ATOM     14  C   UNL     1      47.256   6.043  20.651  0.00  0.00    +0.000 C 
ATOM     15  C   UNL     1      47.682   7.151  19.687  0.00  0.00    +0.000 C 
ENDBRANCH   9  10
ENDBRANCH   6   9
ENDBRANCH   2   3
BRANCH   2  16
ATOM     16  N   UNL     1      47.049   6.494  12.142  0.00  0.00    +0.000 N 
ATOM     17  C   UNL     1      45.681   6.477  12.212  0.00  0.00    +0.000 C 
ATOM     18  O   UNL     1      45.018   7.471  12.491  0.00  0.00    +0.000 OA
ATOM     19  H   UNL     1      47.553   5.630  12.002  0.00  0.00    +0.000 HD
BRANCH  17  20
ATOM     20  C   UNL     1      45.044   5.202  11.872  0.00  0.00    +0.000 A 
ATOM     21  C   UNL     1      44.332   4.505  12.838  0.00  0.00    +0.000 A 
ATOM     22  S   UNL     1      43.638   3.058  12.260  0.00  0.00    +0.000 S 
ATOM     23  C   UNL     1      44.303   3.295  10.712  0.00  0.00    +0.000 A 
ATOM     24  N   UNL     1      44.115   2.382   9.718  0.00  0.00    +0.000 NA
ATOM     25  C   UNL     1      44.696   2.674   8.606  0.00  0.00    +0.000 A 
ATOM     26  N   UNL     1      45.446   3.799   8.388  0.00  0.00    +0.000 N 
ATOM     27  C   UNL     1      45.619   4.772   9.341  0.00  0.00    +0.000 A 
ATOM     28  O   UNL     1      46.199   5.814   9.068  0.00  0.00    +0.000 OA
ATOM     29  C   UNL     1      45.018   4.475  10.627  0.00  0.00    +0.000 A 
ATOM     30  H   UNL     1      45.854   3.988   7.488  0.00  0.00    +0.000 HD
ENDBRANCH  17  20
ENDBRANCH   2  16
TORSDOF 5
ENDMDL
MODEL 9
REMARK VINA RESULT:    -6.628      3.084      5.118
REMARK INTER + INTRA:          -9.496
REMARK INTER:                  -8.826
REMARK INTRA:                  -0.670
REMARK UNBOUND:                -0.930
REMARK  Name = 
REMARK  6 active torsions:
REMARK  status: ('A' for Active; 'I' for Inactive)
REMARK    1  A    between atoms: C_1  and  C_2
REMARK    2  A    between atoms: C_2  and  N_3
REMARK    3  A    between atoms: C_2  and  C_16
REMARK    4  A    between atoms: C_4  and  C_6
REMARK    5  A    between atoms: C_19  and  C_20
REMARK    6  A    between atoms: C_20  and  N_21
REMARK                            x       y       z     vdW  Elec       q    Type
REMARK                         _______ _______ _______ _____ _____    ______ ____
ROOT
ATOM      1  C   UNL     1      46.972   4.444  15.068  0.00  0.00    +0.000 C 
ATOM      2  C   UNL     1      46.850   5.556  14.024  0.00  0.00    +0.000 C 
ENDROOT
BRANCH   2   3
ATOM      3  C   UNL     1      46.238   5.011  12.741  0.00  0.00    +0.000 A 
ATOM      4  C   UNL     1      46.211   5.864  11.626  0.00  0.00    +0.000 A 
ATOM      5  C   UNL     1      45.563   5.493  10.449  0.00  0.00    +0.000 A 
ATOM      6  C   UNL     1      44.940   4.245  10.341  0.00  0.00    +0.000 A 
ATOM      7  C   UNL     1      45.009   3.365  11.428  0.00  0.00    +0.000 A 
ATOM      8  C   UNL     1      45.634   3.750  12.621  0.00  0.00    +0.000 A 
BRANCH   6   9
ATOM      9  C   UNL     1      44.142   3.900   9.103  0.00  0.00    +0.000 C 
BRANCH   9  10
ATOM     10  N   UNL     1      44.863   3.076   8.105  0.00  0.00    +0.000 NA
ATOM     11  C   UNL     1      45.857   3.891   7.390  0.00  0.00    +0.000 C 
ATOM     12  C   UNL     1      46.806   3.073   6.512  0.00  0.00    +0.000 C 
ATOM     13  C   UNL     1      47.474   1.964   7.309  0.00  0.00    +0.000 C 
ATOM     14  C   UNL     1      46.402   1.083   7.928  0.00  0.00    +0.000 C 
ATOM     15  C   UNL     1      45.437   1.902   8.785  0.00  0.00    +0.000 C 
ENDBRANCH   9  10
ENDBRANCH   6   9
ENDBRANCH   2   3
BRANCH   2  16
ATOM     16  N   UNL     1      48.123   6.208  13.820  0.00  0.00    +0.000 N 
ATOM     17  C   UNL     1      48.266   7.569  13.875  0.00  0.00    +0.000 C 
ATOM     18  O   UNL     1      47.321   8.329  14.064  0.00  0.00    +0.000 OA
ATOM     19  H   UNL     1      48.914   5.633  13.568  0.00  0.00    +0.000 HD
BRANCH  17  20
ATOM     20  C   UNL     1      49.638   8.070  13.753  0.00  0.00    +0.000 A 
ATOM     21  C   UNL     1      49.959   8.969  12.746  0.00  0.00    +0.000 A 
ATOM     22  S   UNL     1      51.592   9.462  12.770  0.00  0.00    +0.000 S 
ATOM     23  C   UNL     1      51.932   8.455  14.100  0.00  0.00    +0.000 A 
ATOM     24  N   UNL     1      53.190   8.375  14.617  0.00  0.00    +0.000 NA
ATOM     25  C   UNL     1      53.310   7.555  15.604  0.00  0.00    +0.000 A 
ATOM     26  N   UNL     1      52.289   6.809  16.130  0.00  0.00    +0.000 N 
ATOM     27  C   UNL     1      50.996   6.897  15.677  0.00  0.00    +0.000 A 
ATOM     28  O   UNL     1      50.095   6.300  16.249  0.00  0.00    +0.000 OA
ATOM     29  C   UNL     1      50.810   7.777  14.539  0.00  0.00    +0.000 A 
ATOM     30  H   UNL     1      52.438   6.205  16.921  0.00  0.00    +0.000 HD
ENDBRANCH  17  20
ENDBRANCH   2  16
TORSDOF 5
ENDMDL
