MODEL 1
REMARK VINA RESULT:    -7.882      0.000      0.000
REMARK INTER + INTRA:         -12.043
REMARK INTER:                 -11.107
REMARK INTRA:                  -0.935
REMARK UNBOUND:                -0.935
REMARK  Name = 
REMARK  8 active torsions:
REMARK  status: ('A' for Active; 'I' for Inactive)
REMARK    1  A    between atoms: C_1  and  C_2
REMARK    2  A    between atoms: C_2  and  N_3
REMARK    3  A    between atoms: N_3  and  C_4
REMARK    4  A    between atoms: C_4  and  C_5
REMARK    5  A    between atoms: C_8  and  C_9
REMARK    6  A    between atoms: C_9  and  N_10
REMARK    7  A    between atoms: C_11  and  C_13
REMARK    8  A    between atoms: C_25  and  C_27
REMARK                            x       y       z     vdW  Elec       q    Type
REMARK                         _______ _______ _______ _____ _____    ______ ____
ROOT
ATOM      1  C   UNL     1      45.528   6.674  11.085  0.00  0.00    +0.000 A 
ATOM      2  C   UNL     1      44.988   7.800  11.730  0.00  0.00    +0.000 A 
ATOM      3  C   UNL     1      45.704   8.467  12.726  0.00  0.00    +0.000 A 
ATOM      4  C   UNL     1      46.988   8.039  13.082  0.00  0.00    +0.000 A 
ATOM      5  C   UNL     1      47.549   6.950  12.398  0.00  0.00    +0.000 A 
ATOM      6  C   UNL     1      46.831   6.280  11.401  0.00  0.00    +0.000 A 
ENDROOT
BRANCH   1   7
ATOM      7  C   UNL     1      44.624   5.781  10.270  0.00  0.00    +0.000 C 
BRANCH   7   8
ATOM      8  N   UNL     1      44.019   4.564  10.800  0.00  0.00    +0.000 N 
ATOM      9  C   UNL     1      44.232   3.291  10.228  0.00  0.00    +0.000 C 
ATOM     10  O   UNL     1      43.635   2.293  10.635  0.00  0.00    +0.000 OA
BRANCH   9  11
ATOM     11  C   UNL     1      45.165   3.072   9.071  0.00  0.00    +0.000 A 
ATOM     12  C   UNL     1      45.661   4.083   8.246  0.00  0.00    +0.000 A 
ATOM     13  C   UNL     1      46.498   3.743   7.196  0.00  0.00    +0.000 A 
ATOM     14  N   UNL     1      46.932   2.492   6.962  0.00  0.00    +0.000 NA
ATOM     15  C   UNL     1      46.522   1.539   7.822  0.00  0.00    +0.000 A 
ATOM     16  C   UNL     1      45.645   1.774   8.869  0.00  0.00    +0.000 A 
ENDBRANCH   9  11
BRANCH   8  18
ATOM     17  C   UNL     1      42.069   5.685  11.886  0.00  0.00    +0.000 C 
ATOM     18  C   UNL     1      43.154   4.622  11.985  0.00  0.00    +0.000 C 
ENDBRANCH   8  18
ENDBRANCH   7   8
ENDBRANCH   1   7
BRANCH   4  19
ATOM     19  C   UNL     1      47.722   8.686  14.229  0.00  0.00    +0.000 C 
BRANCH  19  20
ATOM     20  N   UNL     1      47.945   7.749  15.306  0.00  0.00    +0.000 N 
ATOM     21  C   UNL     1      49.183   7.196  15.514  0.00  0.00    +0.000 C 
ATOM     22  O   UNL     1      50.154   7.508  14.827  0.00  0.00    +0.000 OA
ATOM     23  H   UNL     1      47.128   7.328  15.737  0.00  0.00    +0.000 HD
BRANCH  21  24
ATOM     24  C   UNL     1      49.315   6.256  16.636  0.00  0.00    +0.000 A 
ATOM     25  C   UNL     1      50.289   6.478  17.601  0.00  0.00    +0.000 A 
ATOM     26  S   UNL     1      50.286   5.330  18.860  0.00  0.00    +0.000 S 
ATOM     27  C   UNL     1      49.016   4.459  18.136  0.00  0.00    +0.000 A 
ATOM     28  N   UNL     1      48.530   3.324  18.707  0.00  0.00    +0.000 NA
ATOM     29  C   UNL     1      47.589   2.750  18.036  0.00  0.00    +0.000 A 
ATOM     30  N   UNL     1      47.080   3.213  16.849  0.00  0.00    +0.000 N 
ATOM     31  C   UNL     1      47.517   4.372  16.251  0.00  0.00    +0.000 A 
ATOM     32  O   UNL     1      47.013   4.780  15.209  0.00  0.00    +0.000 OA
ATOM     33  C   UNL     1      48.587   5.051  16.957  0.00  0.00    +0.000 A 
ATOM     34  H   UNL     1      46.338   2.716  16.376  0.00  0.00    +0.000 HD
ENDBRANCH  21  24
ENDBRANCH  19  20
ENDBRANCH   4  19
TORSDOF 7
ENDMDL
MODEL 2
REMARK VINA RESULT:    -7.817      2.817      7.913
REMARK INTER + INTRA:         -11.952
REMARK INTER:                  -9.896
REMARK INTRA:                  -2.056
REMARK UNBOUND:                -0.935
REMARK  Name = 
REMARK  8 active torsions:
REMARK  status: ('A' for Active; 'I' for Inactive)
REMARK    1  A    between atoms: C_1  and  C_2
REMARK    2  A    between atoms: C_2  and  N_3
REMARK    3  A    between atoms: N_3  and  C_4
REMARK    4  A    between atoms: C_4  and  C_5
REMARK    5  A    between atoms: C_8  and  C_9
REMARK    6  A    between atoms: C_9  and  N_10
REMARK    7  A    between atoms: C_11  and  C_13
REMARK    8  A    between atoms: C_25  and  C_27
REMARK                            x       y       z     vdW  Elec       q    Type
REMARK                         _______ _______ _______ _____ _____    ______ ____
ROOT
ATOM      1  C   UNL     1      49.356   7.787  16.168  0.00  0.00    +0.000 A 
ATOM      2  C   UNL     1      49.800   6.922  15.153  0.00  0.00    +0.000 A 
ATOM      3  C   UNL     1      49.272   7.001  13.862  0.00  0.00    +0.000 A 
ATOM      4  C   UNL     1      48.307   7.965  13.550  0.00  0.00    +0.000 A 
ATOM      5  C   UNL     1      47.905   8.865  14.550  0.00  0.00    +0.000 A 
ATOM      6  C   UNL     1      48.432   8.785  15.844  0.00  0.00    +0.000 A 
ENDROOT
BRANCH   1   7
ATOM      7  C   UNL     1      49.681   7.470  17.608  0.00  0.00    +0.000 C 
BRANCH   7   8
ATOM      8  N   UNL     1      48.659   7.241  18.623  0.00  0.00    +0.000 N 
ATOM      9  C   UNL     1      47.971   6.014  18.752  0.00  0.00    +0.000 C 
ATOM     10  O   UNL     1      47.046   5.875  19.555  0.00  0.00    +0.000 OA
BRANCH   9  11
ATOM     11  C   UNL     1      48.293   4.815  17.906  0.00  0.00    +0.000 A 
ATOM     12  C   UNL     1      49.295   3.886  18.189  0.00  0.00    +0.000 A 
ATOM     13  C   UNL     1      49.505   2.835  17.311  0.00  0.00    +0.000 A 
ATOM     14  N   UNL     1      48.745   2.605  16.226  0.00  0.00    +0.000 NA
ATOM     15  C   UNL     1      47.720   3.456  16.015  0.00  0.00    +0.000 A 
ATOM     16  C   UNL     1      47.464   4.563  16.808  0.00  0.00    +0.000 A 
ENDBRANCH   9  11
BRANCH   8  18
ATOM     17  C   UNL     1      47.250   9.259  19.046  0.00  0.00    +0.000 C 
ATOM     18  C   UNL     1      48.308   8.301  19.576  0.00  0.00    +0.000 C 
ENDBRANCH   8  18
ENDBRANCH   7   8
ENDBRANCH   1   7
BRANCH   4  19
ATOM     19  C   UNL     1      47.655   7.987  12.191  0.00  0.00    +0.000 C 
BRANCH  19  20
ATOM     20  N   UNL     1      46.976   6.743  11.913  0.00  0.00    +0.000 N 
ATOM     21  C   UNL     1      45.640   6.592  12.186  0.00  0.00    +0.000 C 
ATOM     22  O   UNL     1      44.964   7.517  12.631  0.00  0.00    +0.000 OA
ATOM     23  H   UNL     1      47.551   5.921  11.751  0.00  0.00    +0.000 HD
BRANCH  21  24
ATOM     24  C   UNL     1      45.035   5.292  11.866  0.00  0.00    +0.000 A 
ATOM     25  C   UNL     1      44.358   4.592  12.857  0.00  0.00    +0.000 A 
ATOM     26  S   UNL     1      43.674   3.126  12.321  0.00  0.00    +0.000 S 
ATOM     27  C   UNL     1      44.302   3.343  10.754  0.00  0.00    +0.000 A 
ATOM     28  N   UNL     1      44.092   2.417   9.781  0.00  0.00    +0.000 NA
ATOM     29  C   UNL     1      44.649   2.695   8.650  0.00  0.00    +0.000 A 
ATOM     30  N   UNL     1      45.389   3.822   8.399  0.00  0.00    +0.000 N 
ATOM     31  C   UNL     1      45.601   4.801   9.342  0.00  0.00    +0.000 A 
ATOM     32  O   UNL     1      46.235   5.817   9.074  0.00  0.00    +0.000 OA
ATOM     33  C   UNL     1      45.008   4.533  10.639  0.00  0.00    +0.000 A 
ATOM     34  H   UNL     1      45.796   3.982   7.488  0.00  0.00    +0.000 HD
ENDBRANCH  21  24
ENDBRANCH  19  20
ENDBRANCH   4  19
TORSDOF 7
ENDMDL
MODEL 3
REMARK VINA RESULT:    -7.704      3.196      7.830
REMARK INTER + INTRA:         -11.791
REMARK INTER:                 -10.180
REMARK INTRA:                  -1.612
REMARK UNBOUND:                -0.935
REMARK  Name = 
REMARK  8 active torsions:
REMARK  status: ('A' for Active; 'I' for Inactive)
REMARK    1  A    between atoms: C_1  and  C_2
REMARK    2  A    between atoms: C_2  and  N_3
REMARK    3  A    between atoms: N_3  and  C_4
REMARK    4  A    between atoms: C_4  and  C_5
REMARK    5  A    between atoms: C_8  and  C_9
REMARK    6  A    between atoms: C_9  and  N_10
REMARK    7  A    between atoms: C_11  and  C_13
REMARK    8  A    between atoms: C_25  and  C_27
REMARK                            x       y       z     vdW  Elec       q    Type
REMARK                         _______ _______ _______ _____ _____    ______ ____
ROOT
ATOM      1  C   UNL     1      49.824   7.203  15.892  0.00  0.00    +0.000 A 
ATOM      2  C   UNL     1      50.549   8.064  15.050  0.00  0.00    +0.000 A 
ATOM      3  C   UNL     1      50.088   8.367  13.767  0.00  0.00    +0.000 A 
ATOM      4  C   UNL     1      48.877   7.838  13.307  0.00  0.00    +0.000 A 
ATOM      5  C   UNL     1      48.125   7.025  14.169  0.00  0.00    +0.000 A 
ATOM      6  C   UNL     1      48.589   6.718  15.454  0.00  0.00    +0.000 A 
ENDROOT
BRANCH   1   7
ATOM      7  C   UNL     1      50.492   6.628  17.118  0.00  0.00    +0.000 C 
BRANCH   7   8
ATOM      8  N   UNL     1      49.783   6.384  18.370  0.00  0.00    +0.000 N 
ATOM      9  C   UNL     1      49.242   5.125  18.709  0.00  0.00    +0.000 C 
ATOM     10  O   UNL     1      48.566   4.967  19.728  0.00  0.00    +0.000 OA
BRANCH   9  11
ATOM     11  C   UNL     1      49.420   3.909  17.844  0.00  0.00    +0.000 A 
ATOM     12  C   UNL     1      50.560   3.105  17.827  0.00  0.00    +0.000 A 
ATOM     13  C   UNL     1      50.606   2.023  16.963  0.00  0.00    +0.000 A 
ATOM     14  N   UNL     1      49.579   1.647  16.181  0.00  0.00    +0.000 NA
ATOM     15  C   UNL     1      48.449   2.376  16.276  0.00  0.00    +0.000 A 
ATOM     16  C   UNL     1      48.326   3.503  17.073  0.00  0.00    +0.000 A 
ENDBRANCH   9  11
BRANCH   8  18
ATOM     17  C   UNL     1      48.628   8.533  18.900  0.00  0.00    +0.000 C 
ATOM     18  C   UNL     1      49.615   7.464  19.349  0.00  0.00    +0.000 C 
ENDBRANCH   8  18
ENDBRANCH   7   8
ENDBRANCH   1   7
BRANCH   4  19
ATOM     19  C   UNL     1      48.426   8.074  11.888  0.00  0.00    +0.000 C 
BRANCH  19  20
ATOM     20  N   UNL     1      47.701   6.937  11.371  0.00  0.00    +0.000 N 
ATOM     21  C   UNL     1      46.330   6.940  11.315  0.00  0.00    +0.000 C 
ATOM     22  O   UNL     1      45.672   7.920  11.659  0.00  0.00    +0.000 OA
ATOM     23  H   UNL     1      48.204   6.059  11.286  0.00  0.00    +0.000 HD
BRANCH  21  24
ATOM     24  C   UNL     1      45.680   5.740  10.770  0.00  0.00    +0.000 A 
ATOM     25  C   UNL     1      45.795   5.458   9.415  0.00  0.00    +0.000 A 
ATOM     26  S   UNL     1      45.027   4.011   8.945  0.00  0.00    +0.000 S 
ATOM     27  C   UNL     1      44.465   3.731  10.526  0.00  0.00    +0.000 A 
ATOM     28  N   UNL     1      43.707   2.641  10.818  0.00  0.00    +0.000 NA
ATOM     29  C   UNL     1      43.325   2.569  12.049  0.00  0.00    +0.000 A 
ATOM     30  N   UNL     1      43.642   3.484  13.020  0.00  0.00    +0.000 N 
ATOM     31  C   UNL     1      44.432   4.584  12.780  0.00  0.00    +0.000 A 
ATOM     32  O   UNL     1      44.729   5.364  13.680  0.00  0.00    +0.000 OA
ATOM     33  C   UNL     1      44.877   4.722  11.407  0.00  0.00    +0.000 A 
ATOM     34  H   UNL     1      43.313   3.367  13.968  0.00  0.00    +0.000 HD
ENDBRANCH  21  24
ENDBRANCH  19  20
ENDBRANCH   4  19
TORSDOF 7
ENDMDL
MODEL 4
REMARK VINA RESULT:    -7.702      2.221      2.607
REMARK INTER + INTRA:         -11.789
REMARK INTER:                 -11.278
REMARK INTRA:                  -0.511
REMARK UNBOUND:                -0.935
REMARK  Name = 
REMARK  8 active torsions:
REMARK  status: ('A' for Active; 'I' for Inactive)
REMARK    1  A    between atoms: C_1  and  C_2
REMARK    2  A    between atoms: C_2  and  N_3
REMARK    3  A    between atoms: N_3  and  C_4
REMARK    4  A    between atoms: C_4  and  C_5
REMARK    5  A    between atoms: C_8  and  C_9
REMARK    6  A    between atoms: C_9  and  N_10
REMARK    7  A    between atoms: C_11  and  C_13
REMARK    8  A    between atoms: C_25  and  C_27
REMARK                            x       y       z     vdW  Elec       q    Type
REMARK                         _______ _______ _______ _____ _____    ______ ____
ROOT
ATOM      1  C   UNL     1      46.721   5.642  12.379  0.00  0.00    +0.000 A 
ATOM      2  C   UNL     1      47.353   6.896  12.334  0.00  0.00    +0.000 A 
ATOM      3  C   UNL     1      48.046   7.390  13.441  0.00  0.00    +0.000 A 
ATOM      4  C   UNL     1      48.145   6.628  14.611  0.00  0.00    +0.000 A 
ATOM      5  C   UNL     1      47.562   5.352  14.637  0.00  0.00    +0.000 A 
ATOM      6  C   UNL     1      46.866   4.858  13.528  0.00  0.00    +0.000 A 
ENDROOT
BRANCH   1   7
ATOM      7  C   UNL     1      45.711   5.280  11.317  0.00  0.00    +0.000 C 
BRANCH   7   8
ATOM      8  N   UNL     1      44.671   4.276  11.516  0.00  0.00    +0.000 N 
ATOM      9  C   UNL     1      44.377   3.280  10.560  0.00  0.00    +0.000 C 
ATOM     10  O   UNL     1      43.431   2.503  10.708  0.00  0.00    +0.000 OA
BRANCH   9  11
ATOM     11  C   UNL     1      45.165   3.121   9.291  0.00  0.00    +0.000 A 
ATOM     12  C   UNL     1      45.541   4.170   8.451  0.00  0.00    +0.000 A 
ATOM     13  C   UNL     1      46.250   3.884   7.295  0.00  0.00    +0.000 A 
ATOM     14  N   UNL     1      46.670   2.651   6.962  0.00  0.00    +0.000 NA
ATOM     15  C   UNL     1      46.382   1.660   7.829  0.00  0.00    +0.000 A 
ATOM     16  C   UNL     1      45.636   1.840   8.983  0.00  0.00    +0.000 A 
ENDBRANCH   9  11
BRANCH   8  18
ATOM     17  C   UNL     1      42.818   5.348  12.802  0.00  0.00    +0.000 C 
ATOM     18  C   UNL     1      43.883   4.261  12.754  0.00  0.00    +0.000 C 
ENDBRANCH   8  18
ENDBRANCH   7   8
ENDBRANCH   1   7
BRANCH   4  19
ATOM     19  C   UNL     1      48.798   7.198  15.845  0.00  0.00    +0.000 C 
BRANCH  19  20
ATOM     20  N   UNL     1      49.890   6.365  16.294  0.00  0.00    +0.000 N 
ATOM     21  C   UNL     1      49.769   5.592  17.422  0.00  0.00    +0.000 C 
ATOM     22  O   UNL     1      48.721   5.544  18.062  0.00  0.00    +0.000 OA
ATOM     23  H   UNL     1      50.811   6.552  15.911  0.00  0.00    +0.000 HD
BRANCH  21  24
ATOM     24  C   UNL     1      50.931   4.775  17.799  0.00  0.00    +0.000 A 
ATOM     25  C   UNL     1      52.033   5.385  18.382  0.00  0.00    +0.000 A 
ATOM     26  S   UNL     1      53.278   4.301  18.805  0.00  0.00    +0.000 S 
ATOM     27  C   UNL     1      52.413   2.978  18.176  0.00  0.00    +0.000 A 
ATOM     28  N   UNL     1      52.934   1.722  18.206  0.00  0.00    +0.000 NA
ATOM     29  C   UNL     1      52.184   0.819  17.669  0.00  0.00    +0.000 A 
ATOM     30  N   UNL     1      50.952   1.056  17.113  0.00  0.00    +0.000 N 
ATOM     31  C   UNL     1      50.371   2.302  17.090  0.00  0.00    +0.000 A 
ATOM     32  O   UNL     1      49.250   2.473  16.621  0.00  0.00    +0.000 OA
ATOM     33  C   UNL     1      51.179   3.359  17.668  0.00  0.00    +0.000 A 
ATOM     34  H   UNL     1      50.412   0.302  16.712  0.00  0.00    +0.000 HD
ENDBRANCH  21  24
ENDBRANCH  19  20
ENDBRANCH   4  19
TORSDOF 7
ENDMDL
MODEL 5
REMARK VINA RESULT:    -7.609      3.454      9.936
REMARK INTER + INTRA:         -11.658
REMARK INTER:                  -9.907
REMARK INTRA:                  -1.751
REMARK UNBOUND:                -0.935
REMARK  Name = 
REMARK  8 active torsions:
REMARK  status: ('A' for Active; 'I' for Inactive)
REMARK    1  A    between atoms: C_1  and  C_2
REMARK    2  A    between atoms: C_2  and  N_3
REMARK    3  A    between atoms: N_3  and  C_4
REMARK    4  A    between atoms: C_4  and  C_5
REMARK    5  A    between atoms: C_8  and  C_9
REMARK    6  A    between atoms: C_9  and  N_10
REMARK    7  A    between atoms: C_11  and  C_13
REMARK    8  A    between atoms: C_25  and  C_27
REMARK                            x       y       z     vdW  Elec       q    Type
REMARK                         _______ _______ _______ _____ _____    ______ ____
ROOT
ATOM      1  C   UNL     1      51.320   4.526  17.860  0.00  0.00    +0.000 A 
ATOM      2  C   UNL     1      50.923   3.180  17.765  0.00  0.00    +0.000 A 
ATOM      3  C   UNL     1      49.636   2.841  17.342  0.00  0.00    +0.000 A 
ATOM      4  C   UNL     1      48.724   3.839  16.977  0.00  0.00    +0.000 A 
ATOM      5  C   UNL     1      49.140   5.179  17.017  0.00  0.00    +0.000 A 
ATOM      6  C   UNL     1      50.429   5.520  17.444  0.00  0.00    +0.000 A 
ENDROOT
BRANCH   1   7
ATOM      7  C   UNL     1      52.571   4.879  18.627  0.00  0.00    +0.000 C 
BRANCH   7   8
ATOM      8  N   UNL     1      52.869   4.346  19.952  0.00  0.00    +0.000 N 
ATOM      9  C   UNL     1      52.080   4.634  21.088  0.00  0.00    +0.000 C 
ATOM     10  O   UNL     1      52.405   4.251  22.213  0.00  0.00    +0.000 OA
BRANCH   9  11
ATOM     11  C   UNL     1      50.820   5.450  21.010  0.00  0.00    +0.000 A 
ATOM     12  C   UNL     1      50.777   6.838  20.882  0.00  0.00    +0.000 A 
ATOM     13  C   UNL     1      49.546   7.472  20.844  0.00  0.00    +0.000 A 
ATOM     14  N   UNL     1      48.370   6.820  20.846  0.00  0.00    +0.000 NA
ATOM     15  C   UNL     1      48.426   5.474  20.874  0.00  0.00    +0.000 A 
ATOM     16  C   UNL     1      49.607   4.755  20.964  0.00  0.00    +0.000 A 
ENDBRANCH   9  11
BRANCH   8  18
ATOM     17  C   UNL     1      54.069   2.302  19.167  0.00  0.00    +0.000 C 
ATOM     18  C   UNL     1      54.022   3.461  20.154  0.00  0.00    +0.000 C 
ENDBRANCH   8  18
ENDBRANCH   7   8
ENDBRANCH   1   7
BRANCH   4  19
ATOM     19  C   UNL     1      47.302   3.487  16.622  0.00  0.00    +0.000 C 
BRANCH  19  20
ATOM     20  N   UNL     1      46.736   4.449  15.706  0.00  0.00    +0.000 N 
ATOM     21  C   UNL     1      46.728   4.214  14.353  0.00  0.00    +0.000 C 
ATOM     22  O   UNL     1      47.158   3.166  13.878  0.00  0.00    +0.000 OA
ATOM     23  H   UNL     1      46.576   5.390  16.052  0.00  0.00    +0.000 HD
BRANCH  21  24
ATOM     24  C   UNL     1      46.127   5.248  13.499  0.00  0.00    +0.000 A 
ATOM     25  C   UNL     1      46.830   6.420  13.249  0.00  0.00    +0.000 A 
ATOM     26  S   UNL     1      46.023   7.499  12.206  0.00  0.00    +0.000 S 
ATOM     27  C   UNL     1      44.676   6.465  12.090  0.00  0.00    +0.000 A 
ATOM     28  N   UNL     1      43.592   6.807  11.344  0.00  0.00    +0.000 NA
ATOM     29  C   UNL     1      42.632   5.944  11.369  0.00  0.00    +0.000 A 
ATOM     30  N   UNL     1      42.662   4.762  12.064  0.00  0.00    +0.000 N 
ATOM     31  C   UNL     1      43.748   4.359  12.805  0.00  0.00    +0.000 A 
ATOM     32  O   UNL     1      43.758   3.276  13.383  0.00  0.00    +0.000 OA
ATOM     33  C   UNL     1      44.852   5.300  12.824  0.00  0.00    +0.000 A 
ATOM     34  H   UNL     1      41.876   4.127  12.038  0.00  0.00    +0.000 HD
ENDBRANCH  21  24
ENDBRANCH  19  20
ENDBRANCH   4  19
TORSDOF 7
ENDMDL
MODEL 6
REMARK VINA RESULT:    -7.538      2.143      2.448
REMARK INTER + INTRA:         -11.558
REMARK INTER:                 -10.811
REMARK INTRA:                  -0.748
REMARK UNBOUND:                -0.935
REMARK  Name = 
REMARK  8 active torsions:
REMARK  status: ('A' for Active; 'I' for Inactive)
REMARK    1  A    between atoms: C_1  and  C_2
REMARK    2  A    between atoms: C_2  and  N_3
REMARK    3  A    between atoms: N_3  and  C_4
REMARK    4  A    between atoms: C_4  and  C_5
REMARK    5  A    between atoms: C_8  and  C_9
REMARK    6  A    between atoms: C_9  and  N_10
REMARK    7  A    between atoms: C_11  and  C_13
REMARK    8  A    between atoms: C_25  and  C_27
REMARK                            x       y       z     vdW  Elec       q    Type
REMARK                         _______ _______ _______ _____ _____    ______ ____
ROOT
ATOM      1  C   UNL     1      45.953   6.350  11.889  0.00  0.00    +0.000 A 
ATOM      2  C   UNL     1      47.120   6.005  12.593  0.00  0.00    +0.000 A 
ATOM      3  C   UNL     1      47.783   6.945  13.385  0.00  0.00    +0.000 A 
ATOM      4  C   UNL     1      47.280   8.244  13.513  0.00  0.00    +0.000 A 
ATOM      5  C   UNL     1      46.084   8.572  12.855  0.00  0.00    +0.000 A 
ATOM      6  C   UNL     1      45.420   7.631  12.059  0.00  0.00    +0.000 A 
ENDROOT
BRANCH   1   7
ATOM      7  C   UNL     1      45.452   5.442  10.793  0.00  0.00    +0.000 C 
BRANCH   7   8
ATOM      8  N   UNL     1      44.509   4.354  11.029  0.00  0.00    +0.000 N 
ATOM      9  C   UNL     1      44.395   3.240  10.168  0.00  0.00    +0.000 C 
ATOM     10  O   UNL     1      43.526   2.381  10.337  0.00  0.00    +0.000 OA
BRANCH   9  11
ATOM     11  C   UNL     1      45.292   3.043   8.980  0.00  0.00    +0.000 A 
ATOM     12  C   UNL     1      45.743   4.066   8.144  0.00  0.00    +0.000 A 
ATOM     13  C   UNL     1      46.550   3.746   7.065  0.00  0.00    +0.000 A 
ATOM     14  N   UNL     1      46.998   2.503   6.809  0.00  0.00    +0.000 NA
ATOM     15  C   UNL     1      46.633   1.539   7.678  0.00  0.00    +0.000 A 
ATOM     16  C   UNL     1      45.788   1.754   8.755  0.00  0.00    +0.000 A 
ENDBRANCH   9  11
BRANCH   8  18
ATOM     17  C   UNL     1      42.460   5.336  12.064  0.00  0.00    +0.000 C 
ATOM     18  C   UNL     1      43.632   4.375  12.206  0.00  0.00    +0.000 C 
ENDBRANCH   8  18
ENDBRANCH   7   8
ENDBRANCH   1   7
BRANCH   4  19
ATOM     19  C   UNL     1      48.046   9.293  14.278  0.00  0.00    +0.000 C 
BRANCH  19  20
ATOM     20  N   UNL     1      47.755   9.230  15.692  0.00  0.00    +0.000 N 
ATOM     21  C   UNL     1      48.649   8.672  16.572  0.00  0.00    +0.000 C 
ATOM     22  O   UNL     1      49.741   8.249  16.200  0.00  0.00    +0.000 OA
ATOM     23  H   UNL     1      46.792   9.375  15.979  0.00  0.00    +0.000 HD
BRANCH  21  24
ATOM     24  C   UNL     1      48.267   8.656  17.991  0.00  0.00    +0.000 A 
ATOM     25  C   UNL     1      48.171   9.855  18.685  0.00  0.00    +0.000 A 
ATOM     26  S   UNL     1      47.675   9.675  20.305  0.00  0.00    +0.000 S 
ATOM     27  C   UNL     1      47.621   7.981  20.158  0.00  0.00    +0.000 A 
ATOM     28  N   UNL     1      47.276   7.197  21.214  0.00  0.00    +0.000 NA
ATOM     29  C   UNL     1      47.305   5.929  20.970  0.00  0.00    +0.000 A 
ATOM     30  N   UNL     1      47.637   5.373  19.761  0.00  0.00    +0.000 N 
ATOM     31  C   UNL     1      47.960   6.127  18.656  0.00  0.00    +0.000 A 
ATOM     32  O   UNL     1      48.215   5.600  17.578  0.00  0.00    +0.000 OA
ATOM     33  C   UNL     1      47.959   7.560  18.879  0.00  0.00    +0.000 A 
ATOM     34  H   UNL     1      47.636   4.371  19.635  0.00  0.00    +0.000 HD
ENDBRANCH  21  24
ENDBRANCH  19  20
ENDBRANCH   4  19
TORSDOF 7
ENDMDL
MODEL 7
REMARK VINA RESULT:    -6.926      3.855      6.320
REMARK INTER + INTRA:         -10.695
REMARK INTER:                  -9.111
REMARK INTRA:                  -1.584
REMARK UNBOUND:                -0.935
REMARK  Name = 
REMARK  8 active torsions:
REMARK  status: ('A' for Active; 'I' for Inactive)
REMARK    1  A    between atoms: C_1  and  C_2
REMARK    2  A    between atoms: C_2  and  N_3
REMARK    3  A    between atoms: N_3  and  C_4
REMARK    4  A    between atoms: C_4  and  C_5
REMARK    5  A    between atoms: C_8  and  C_9
REMARK    6  A    between atoms: C_9  and  N_10
REMARK    7  A    between atoms: C_11  and  C_13
REMARK    8  A    between atoms: C_25  and  C_27
REMARK                            x       y       z     vdW  Elec       q    Type
REMARK                         _______ _______ _______ _____ _____    ______ ____
ROOT
ATOM      1  C   UNL     1      45.356   9.419  11.887  0.00  0.00    +0.000 A 
ATOM      2  C   UNL     1      46.455   9.078  12.694  0.00  0.00    +0.000 A 
ATOM      3  C   UNL     1      46.677   7.755  13.080  0.00  0.00    +0.000 A 
ATOM      4  C   UNL     1      45.820   6.737  12.647  0.00  0.00    +0.000 A 
ATOM      5  C   UNL     1      44.755   7.070  11.795  0.00  0.00    +0.000 A 
ATOM      6  C   UNL     1      44.531   8.397  11.409  0.00  0.00    +0.000 A 
ENDROOT
BRANCH   1   7
ATOM      7  C   UNL     1      44.946  10.867  11.764  0.00  0.00    +0.000 C 
BRANCH   7   8
ATOM      8  N   UNL     1      44.722  11.524  10.481  0.00  0.00    +0.000 N 
ATOM      9  C   UNL     1      43.432  11.829   9.992  0.00  0.00    +0.000 C 
ATOM     10  O   UNL     1      43.264  12.297   8.865  0.00  0.00    +0.000 OA
BRANCH   9  11
ATOM     11  C   UNL     1      42.185  11.573  10.791  0.00  0.00    +0.000 A 
ATOM     12  C   UNL     1      41.664  12.440  11.752  0.00  0.00    +0.000 A 
ATOM     13  C   UNL     1      40.517  12.074  12.437  0.00  0.00    +0.000 A 
ATOM     14  N   UNL     1      39.818  10.954  12.178  0.00  0.00    +0.000 NA
ATOM     15  C   UNL     1      40.279  10.171  11.182  0.00  0.00    +0.000 A 
ATOM     16  C   UNL     1      41.444  10.429  10.478  0.00  0.00    +0.000 A 
ENDBRANCH   9  11
BRANCH   8  18
ATOM     17  C   UNL     1      47.129  12.186  10.430  0.00  0.00    +0.000 C 
ATOM     18  C   UNL     1      45.859  11.911   9.637  0.00  0.00    +0.000 C 
ENDBRANCH   8  18
ENDBRANCH   7   8
ENDBRANCH   1   7
BRANCH   4  19
ATOM     19  C   UNL     1      45.991   5.325  13.146  0.00  0.00    +0.000 C 
BRANCH  19  20
ATOM     20  N   UNL     1      46.594   5.301  14.458  0.00  0.00    +0.000 N 
ATOM     21  C   UNL     1      47.227   4.175  14.923  0.00  0.00    +0.000 C 
ATOM     22  O   UNL     1      47.344   3.167  14.228  0.00  0.00    +0.000 OA
ATOM     23  H   UNL     1      46.326   6.031  15.111  0.00  0.00    +0.000 HD
BRANCH  21  24
ATOM     24  C   UNL     1      47.813   4.245  16.268  0.00  0.00    +0.000 A 
ATOM     25  C   UNL     1      47.412   3.333  17.235  0.00  0.00    +0.000 A 
ATOM     26  S   UNL     1      48.215   3.513  18.728  0.00  0.00    +0.000 S 
ATOM     27  C   UNL     1      49.093   4.853  18.156  0.00  0.00    +0.000 A 
ATOM     28  N   UNL     1      49.973   5.509  18.958  0.00  0.00    +0.000 NA
ATOM     29  C   UNL     1      50.547   6.524  18.405  0.00  0.00    +0.000 A 
ATOM     30  N   UNL     1      50.330   6.938  17.115  0.00  0.00    +0.000 N 
ATOM     31  C   UNL     1      49.475   6.287  16.257  0.00  0.00    +0.000 A 
ATOM     32  O   UNL     1      49.333   6.660  15.096  0.00  0.00    +0.000 OA
ATOM     33  C   UNL     1      48.790   5.146  16.833  0.00  0.00    +0.000 A 
ATOM     34  H   UNL     1      50.816   7.741  16.741  0.00  0.00    +0.000 HD
ENDBRANCH  21  24
ENDBRANCH  19  20
ENDBRANCH   4  19
TORSDOF 7
ENDMDL
MODEL 8
REMARK VINA RESULT:    -6.914      4.700      7.972
REMARK INTER + INTRA:         -10.678
REMARK INTER:                  -9.180
REMARK INTRA:                  -1.499
REMARK UNBOUND:                -0.935
REMARK  Name = 
REMARK  8 active torsions:
REMARK  status: ('A' for Active; 'I' for Inactive)
REMARK    1  A    between atoms: C_1  and  C_2
REMARK    2  A    between atoms: C_2  and  N_3
REMARK    3  A    between atoms: N_3  and  C_4
REMARK    4  A    between atoms: C_4  and  C_5
REMARK    5  A    between atoms: C_8  and  C_9
REMARK    6  A    between atoms: C_9  and  N_10
REMARK    7  A    between atoms: C_11  and  C_13
REMARK    8  A    between atoms: C_25  and  C_27
REMARK                            x       y       z     vdW  Elec       q    Type
REMARK                         _______ _______ _______ _____ _____    ______ ____
ROOT
ATOM      1  C   UNL     1      50.257   9.294  11.202  0.00  0.00    +0.000 A 
ATOM      2  C   UNL     1      49.963   7.944  11.463  0.00  0.00    +0.000 A 
ATOM      3  C   UNL     1      48.726   7.570  11.991  0.00  0.00    +0.000 A 
ATOM      4  C   UNL     1      47.744   8.534  12.245  0.00  0.00    +0.000 A 
ATOM      5  C   UNL     1      48.017   9.874  11.931  0.00  0.00    +0.000 A 
ATOM      6  C   UNL     1      49.258  10.250  11.404  0.00  0.00    +0.000 A 
ENDROOT
BRANCH   1   7
ATOM      7  C   UNL     1      51.688   9.709  10.958  0.00  0.00    +0.000 C 
BRANCH   7   8
ATOM      8  N   UNL     1      52.832   8.966  11.475  0.00  0.00    +0.000 N 
ATOM      9  C   UNL     1      53.533   8.010  10.708  0.00  0.00    +0.000 C 
ATOM     10  O   UNL     1      54.435   7.326  11.197  0.00  0.00    +0.000 OA
BRANCH   9  11
ATOM     11  C   UNL     1      53.209   7.737   9.267  0.00  0.00    +0.000 A 
ATOM     12  C   UNL     1      52.395   6.697   8.817  0.00  0.00    +0.000 A 
ATOM     13  C   UNL     1      52.194   6.541   7.455  0.00  0.00    +0.000 A 
ATOM     14  N   UNL     1      52.680   7.385   6.527  0.00  0.00    +0.000 NA
ATOM     15  C   UNL     1      53.386   8.440   6.980  0.00  0.00    +0.000 A 
ATOM     16  C   UNL     1      53.681   8.650   8.318  0.00  0.00    +0.000 A 
ENDBRANCH   9  11
BRANCH   8  18
ATOM     17  C   UNL     1      52.519   8.439  13.896  0.00  0.00    +0.000 C 
ATOM     18  C   UNL     1      53.312   9.200  12.843  0.00  0.00    +0.000 C 
ENDBRANCH   8  18
ENDBRANCH   7   8
ENDBRANCH   1   7
BRANCH   4  19
ATOM     19  C   UNL     1      46.448   8.151  12.914  0.00  0.00    +0.000 C 
BRANCH  19  20
ATOM     20  N   UNL     1      46.047   6.811  12.555  0.00  0.00    +0.000 N 
ATOM     21  C   UNL     1      44.922   6.590  11.799  0.00  0.00    +0.000 C 
ATOM     22  O   UNL     1      44.244   7.518  11.365  0.00  0.00    +0.000 OA
ATOM     23  H   UNL     1      46.462   6.042  13.071  0.00  0.00    +0.000 HD
BRANCH  21  24
ATOM     24  C   UNL     1      44.595   5.193  11.480  0.00  0.00    +0.000 A 
ATOM     25  C   UNL     1      43.883   4.432  12.399  0.00  0.00    +0.000 A 
ATOM     26  S   UNL     1      43.542   2.850  11.866  0.00  0.00    +0.000 S 
ATOM     27  C   UNL     1      44.380   3.102  10.407  0.00  0.00    +0.000 A 
ATOM     28  N   UNL     1      44.486   2.113   9.480  0.00  0.00    +0.000 NA
ATOM     29  C   UNL     1      45.173   2.432   8.435  0.00  0.00    +0.000 A 
ATOM     30  N   UNL     1      45.755   3.656   8.225  0.00  0.00    +0.000 N 
ATOM     31  C   UNL     1      45.646   4.697   9.118  0.00  0.00    +0.000 A 
ATOM     32  O   UNL     1      46.146   5.793   8.883  0.00  0.00    +0.000 OA
ATOM     33  C   UNL     1      44.896   4.388  10.321  0.00  0.00    +0.000 A 
ATOM     34  H   UNL     1      46.277   3.843   7.381  0.00  0.00    +0.000 HD
ENDBRANCH  21  24
ENDBRANCH  19  20
ENDBRANCH   4  19
TORSDOF 7
ENDMDL
MODEL 9
REMARK VINA RESULT:    -6.906      3.261      8.138
REMARK INTER + INTRA:         -10.667
REMARK INTER:                  -9.079
REMARK INTRA:                  -1.588
REMARK UNBOUND:                -0.935
REMARK  Name = 
REMARK  8 active torsions:
REMARK  status: ('A' for Active; 'I' for Inactive)
REMARK    1  A    between atoms: C_1  and  C_2
REMARK    2  A    between atoms: C_2  and  N_3
REMARK    3  A    between atoms: N_3  and  C_4
REMARK    4  A    between atoms: C_4  and  C_5
REMARK    5  A    between atoms: C_8  and  C_9
REMARK    6  A    between atoms: C_9  and  N_10
REMARK    7  A    between atoms: C_11  and  C_13
REMARK    8  A    between atoms: C_25  and  C_27
REMARK                            x       y       z     vdW  Elec       q    Type
REMARK                         _______ _______ _______ _____ _____    ______ ____
ROOT
ATOM      1  C   UNL     1      49.736   6.834  17.410  0.00  0.00    +0.000 A 
ATOM      2  C   UNL     1      48.720   7.792  17.575  0.00  0.00    +0.000 A 
ATOM      3  C   UNL     1      48.100   8.376  16.468  0.00  0.00    +0.000 A 
ATOM      4  C   UNL     1      48.463   7.996  15.171  0.00  0.00    +0.000 A 
ATOM      5  C   UNL     1      49.437   6.999  15.008  0.00  0.00    +0.000 A 
ATOM      6  C   UNL     1      50.060   6.415  16.117  0.00  0.00    +0.000 A 
ENDROOT
BRANCH   1   7
ATOM      7  C   UNL     1      50.613   6.472  18.585  0.00  0.00    +0.000 C 
BRANCH   7   8
ATOM      8  N   UNL     1      50.098   5.852  19.801  0.00  0.00    +0.000 N 
ATOM      9  C   UNL     1      49.443   4.601  19.804  0.00  0.00    +0.000 C 
ATOM     10  O   UNL     1      48.933   4.143  20.828  0.00  0.00    +0.000 OA
BRANCH   9  11
ATOM     11  C   UNL     1      49.292   3.767  18.564  0.00  0.00    +0.000 A 
ATOM     12  C   UNL     1      48.135   3.697  17.787  0.00  0.00    +0.000 A 
ATOM     13  C   UNL     1      48.119   2.868  16.677  0.00  0.00    +0.000 A 
ATOM     14  N   UNL     1      49.187   2.172  16.250  0.00  0.00    +0.000 NA
ATOM     15  C   UNL     1      50.327   2.321  16.954  0.00  0.00    +0.000 A 
ATOM     16  C   UNL     1      50.425   3.087  18.105  0.00  0.00    +0.000 A 
ENDBRANCH   9  11
BRANCH   8  18
ATOM     17  C   UNL     1      51.532   6.116  21.828  0.00  0.00    +0.000 C 
ATOM     18  C   UNL     1      50.259   6.520  21.099  0.00  0.00    +0.000 C 
ENDBRANCH   8  18
ENDBRANCH   7   8
ENDBRANCH   1   7
BRANCH   4  19
ATOM     19  C   UNL     1      47.876   8.698  13.973  0.00  0.00    +0.000 C 
BRANCH  19  20
ATOM     20  N   UNL     1      46.677   8.037  13.512  0.00  0.00    +0.000 N 
ATOM     21  C   UNL     1      46.719   7.149  12.466  0.00  0.00    +0.000 C 
ATOM     22  O   UNL     1      47.777   6.851  11.915  0.00  0.00    +0.000 OA
ATOM     23  H   UNL     1      45.785   8.423  13.806  0.00  0.00    +0.000 HD
BRANCH  21  24
ATOM     24  C   UNL     1      45.450   6.523  12.069  0.00  0.00    +0.000 A 
ATOM     25  C   UNL     1      44.452   7.305  11.502  0.00  0.00    +0.000 A 
ATOM     26  S   UNL     1      43.061   6.428  11.054  0.00  0.00    +0.000 S 
ATOM     27  C   UNL     1      43.718   4.976  11.650  0.00  0.00    +0.000 A 
ATOM     28  N   UNL     1      43.017   3.812  11.590  0.00  0.00    +0.000 NA
ATOM     29  C   UNL     1      43.623   2.796  12.105  0.00  0.00    +0.000 A 
ATOM     30  N   UNL     1      44.874   2.833  12.666  0.00  0.00    +0.000 N 
ATOM     31  C   UNL     1      45.634   3.978  12.719  0.00  0.00    +0.000 A 
ATOM     32  O   UNL     1      46.767   3.970  13.192  0.00  0.00    +0.000 OA
ATOM     33  C   UNL     1      44.994   5.157  12.167  0.00  0.00    +0.000 A 
ATOM     34  H   UNL     1      45.295   1.998  13.048  0.00  0.00    +0.000 HD
ENDBRANCH  21  24
ENDBRANCH  19  20
ENDBRANCH   4  19
TORSDOF 7
ENDMDL
