MODEL 1
REMARK VINA RESULT:    -6.959      0.000      0.000
REMARK INTER + INTRA:          -9.634
REMARK INTER:                  -9.196
REMARK INTRA:                  -0.438
REMARK UNBOUND:                -0.438
REMARK  Name = 
REMARK  6 active torsions:
REMARK  status: ('A' for Active; 'I' for Inactive)
REMARK    1  A    between atoms: N_1  and  C_2
REMARK    2  A    between atoms: C_2  and  C_3
REMARK    3  A    between atoms: C_7  and  O_8
REMARK    4  A    between atoms: O_8  and  C_9
REMARK    5  A    between atoms: C_9  and  C_10
REMARK    6  A    between atoms: C_10  and  C_11
REMARK                            x       y       z     vdW  Elec       q    Type
REMARK                         _______ _______ _______ _____ _____    ______ ____
ROOT
ATOM      1  C   UNL     1      45.816   5.121  13.189  0.00  0.00    +0.000 A 
ATOM      2  C   UNL     1      45.705   6.494  12.950  0.00  0.00    +0.000 A 
ATOM      3  C   UNL     1      44.857   6.932  11.952  0.00  0.00    +0.000 A 
ATOM      4  N   UNL     1      44.126   6.106  11.180  0.00  0.00    +0.000 NA
ATOM      5  C   UNL     1      44.239   4.782  11.412  0.00  0.00    +0.000 A 
ATOM      6  C   UNL     1      45.065   4.246  12.393  0.00  0.00    +0.000 A 
ENDROOT
BRANCH   1   7
ATOM      7  C   UNL     1      46.737   4.626  14.273  0.00  0.00    +0.000 C 
BRANCH   7   8
ATOM      8  N   UNL     1      47.217   3.278  13.983  0.00  0.00    +0.000 NA
ATOM      9  H   UNL     1      47.436   3.204  12.992  0.00  0.00    +0.000 HD
ATOM     10  H   UNL     1      46.466   2.613  14.164  0.00  0.00    +0.000 HD
ENDBRANCH   7   8
ENDBRANCH   1   7
BRANCH   5  11
ATOM     11  O   UNL     1      43.498   3.901  10.637  0.00  0.00    +0.000 OA
BRANCH  11  12
ATOM     12  C   UNL     1      44.348   3.040   9.859  0.00  0.00    +0.000 C 
BRANCH  12  13
ATOM     13  C   UNL     1      44.861   3.775   8.620  0.00  0.00    +0.000 C 
BRANCH  13  14
ATOM     14  C   UNL     1      45.796   2.912   7.801  0.00  0.00    +0.000 A 
ATOM     15  C   UNL     1      46.294   3.364   6.572  0.00  0.00    +0.000 A 
ATOM     16  C   UNL     1      47.147   2.560   5.810  0.00  0.00    +0.000 A 
ATOM     17  C   UNL     1      47.504   1.294   6.264  0.00  0.00    +0.000 A 
ATOM     18  C   UNL     1      47.001   0.826   7.479  0.00  0.00    +0.000 A 
ATOM     19  C   UNL     1      46.149   1.629   8.241  0.00  0.00    +0.000 A 
ENDBRANCH  13  14
ENDBRANCH  12  13
ENDBRANCH  11  12
ENDBRANCH   5  11
TORSDOF 6
ENDMDL
MODEL 2
REMARK VINA RESULT:    -6.601      1.273      2.287
REMARK INTER + INTRA:          -9.161
REMARK INTER:                  -8.723
REMARK INTRA:                  -0.439
REMARK UNBOUND:                -0.438
REMARK  Name = 
REMARK  6 active torsions:
REMARK  status: ('A' for Active; 'I' for Inactive)
REMARK    1  A    between atoms: N_1  and  C_2
REMARK    2  A    between atoms: C_2  and  C_3
REMARK    3  A    between atoms: C_7  and  O_8
REMARK    4  A    between atoms: O_8  and  C_9
REMARK    5  A    between atoms: C_9  and  C_10
REMARK    6  A    between atoms: C_10  and  C_11
REMARK                            x       y       z     vdW  Elec       q    Type
REMARK                         _______ _______ _______ _____ _____    ______ ____
ROOT
ATOM      1  C   UNL     1      46.007   6.177  12.428  0.00  0.00    +0.000 A 
ATOM      2  C   UNL     1      46.798   5.595  13.424  0.00  0.00    +0.000 A 
ATOM      3  C   UNL     1      46.657   4.246  13.685  0.00  0.00    +0.000 A 
ATOM      4  N   UNL     1      45.789   3.448  13.035  0.00  0.00    +0.000 NA
ATOM      5  C   UNL     1      45.027   4.015  12.078  0.00  0.00    +0.000 A 
ATOM      6  C   UNL     1      45.096   5.362  11.744  0.00  0.00    +0.000 A 
ENDROOT
BRANCH   1   7
ATOM      7  C   UNL     1      46.147   7.647  12.131  0.00  0.00    +0.000 C 
BRANCH   7   8
ATOM      8  N   UNL     1      45.775   8.457  13.287  0.00  0.00    +0.000 NA
ATOM      9  H   UNL     1      45.953   9.438  13.083  0.00  0.00    +0.000 HD
ATOM     10  H   UNL     1      46.378   8.211  14.072  0.00  0.00    +0.000 HD
ENDBRANCH   7   8
ENDBRANCH   1   7
BRANCH   5  11
ATOM     11  O   UNL     1      44.123   3.222  11.386  0.00  0.00    +0.000 OA
BRANCH  11  12
ATOM     12  C   UNL     1      44.283   3.358   9.964  0.00  0.00    +0.000 C 
BRANCH  12  13
ATOM     13  C   UNL     1      44.672   2.017   9.340  0.00  0.00    +0.000 C 
BRANCH  13  14
ATOM     14  C   UNL     1      45.727   2.180   8.268  0.00  0.00    +0.000 A 
ATOM     15  C   UNL     1      45.847   3.384   7.561  0.00  0.00    +0.000 A 
ATOM     16  C   UNL     1      46.814   3.530   6.560  0.00  0.00    +0.000 A 
ATOM     17  C   UNL     1      47.663   2.471   6.252  0.00  0.00    +0.000 A 
ATOM     18  C   UNL     1      47.543   1.263   6.938  0.00  0.00    +0.000 A 
ATOM     19  C   UNL     1      46.578   1.117   7.937  0.00  0.00    +0.000 A 
ENDBRANCH  13  14
ENDBRANCH  12  13
ENDBRANCH  11  12
ENDBRANCH   5  11
TORSDOF 6
ENDMDL
MODEL 3
REMARK VINA RESULT:    -6.507      2.391      6.003
REMARK INTER + INTRA:          -9.037
REMARK INTER:                  -8.560
REMARK INTRA:                  -0.477
REMARK UNBOUND:                -0.438
REMARK  Name = 
REMARK  6 active torsions:
REMARK  status: ('A' for Active; 'I' for Inactive)
REMARK    1  A    between atoms: N_1  and  C_2
REMARK    2  A    between atoms: C_2  and  C_3
REMARK    3  A    between atoms: C_7  and  O_8
REMARK    4  A    between atoms: O_8  and  C_9
REMARK    5  A    between atoms: C_9  and  C_10
REMARK    6  A    between atoms: C_10  and  C_11
REMARK                            x       y       z     vdW  Elec       q    Type
REMARK                         _______ _______ _______ _____ _____    ______ ____
ROOT
ATOM      1  C   UNL     1      46.648   2.062   7.596  0.00  0.00    +0.000 A 
ATOM      2  C   UNL     1      46.819   3.399   7.221  0.00  0.00    +0.000 A 
ATOM      3  C   UNL     1      46.034   4.365   7.818  0.00  0.00    +0.000 A 
ATOM      4  N   UNL     1      45.098   4.096   8.747  0.00  0.00    +0.000 NA
ATOM      5  C   UNL     1      44.934   2.805   9.103  0.00  0.00    +0.000 A 
ATOM      6  C   UNL     1      45.675   1.763   8.560  0.00  0.00    +0.000 A 
ENDROOT
BRANCH   1   7
ATOM      7  C   UNL     1      47.494   0.995   6.954  0.00  0.00    +0.000 C 
BRANCH   7   8
ATOM      8  N   UNL     1      48.329   1.550   5.894  0.00  0.00    +0.000 NA
ATOM      9  H   UNL     1      48.548   0.820   5.220  0.00  0.00    +0.000 HD
ATOM     10  H   UNL     1      49.218   1.849   6.295  0.00  0.00    +0.000 HD
ENDBRANCH   7   8
ENDBRANCH   1   7
BRANCH   5  11
ATOM     11  O   UNL     1      43.980   2.491  10.059  0.00  0.00    +0.000 OA
BRANCH  11  12
ATOM     12  C   UNL     1      43.777   3.577  10.979  0.00  0.00    +0.000 C 
BRANCH  12  13
ATOM     13  C   UNL     1      44.573   3.344  12.264  0.00  0.00    +0.000 C 
BRANCH  13  14
ATOM     14  C   UNL     1      45.550   4.468  12.532  0.00  0.00    +0.000 A 
ATOM     15  C   UNL     1      46.377   4.442  13.663  0.00  0.00    +0.000 A 
ATOM     16  C   UNL     1      47.270   5.488  13.917  0.00  0.00    +0.000 A 
ATOM     17  C   UNL     1      47.339   6.573  13.048  0.00  0.00    +0.000 A 
ATOM     18  C   UNL     1      46.509   6.618  11.927  0.00  0.00    +0.000 A 
ATOM     19  C   UNL     1      45.618   5.573  11.673  0.00  0.00    +0.000 A 
ENDBRANCH  13  14
ENDBRANCH  12  13
ENDBRANCH  11  12
ENDBRANCH   5  11
TORSDOF 6
ENDMDL
MODEL 4
REMARK VINA RESULT:    -6.356      1.259      1.888
REMARK INTER + INTRA:          -8.838
REMARK INTER:                  -8.666
REMARK INTRA:                  -0.172
REMARK UNBOUND:                -0.438
REMARK  Name = 
REMARK  6 active torsions:
REMARK  status: ('A' for Active; 'I' for Inactive)
REMARK    1  A    between atoms: N_1  and  C_2
REMARK    2  A    between atoms: C_2  and  C_3
REMARK    3  A    between atoms: C_7  and  O_8
REMARK    4  A    between atoms: O_8  and  C_9
REMARK    5  A    between atoms: C_9  and  C_10
REMARK    6  A    between atoms: C_10  and  C_11
REMARK                            x       y       z     vdW  Elec       q    Type
REMARK                         _______ _______ _______ _____ _____    ______ ____
ROOT
ATOM      1  C   UNL     1      45.392   5.463  12.450  0.00  0.00    +0.000 A 
ATOM      2  C   UNL     1      44.338   5.177  13.324  0.00  0.00    +0.000 A 
ATOM      3  C   UNL     1      43.140   4.733  12.801  0.00  0.00    +0.000 A 
ATOM      4  N   UNL     1      42.919   4.562  11.484  0.00  0.00    +0.000 NA
ATOM      5  C   UNL     1      43.937   4.842  10.645  0.00  0.00    +0.000 A 
ATOM      6  C   UNL     1      45.179   5.294  11.075  0.00  0.00    +0.000 A 
ENDROOT
BRANCH   1   7
ATOM      7  C   UNL     1      46.706   5.950  13.003  0.00  0.00    +0.000 C 
BRANCH   7   8
ATOM      8  N   UNL     1      46.907   5.486  14.372  0.00  0.00    +0.000 NA
ATOM      9  H   UNL     1      46.113   4.917  14.655  0.00  0.00    +0.000 HD
ATOM     10  H   UNL     1      46.922   6.293  14.996  0.00  0.00    +0.000 HD
ENDBRANCH   7   8
ENDBRANCH   1   7
BRANCH   5  11
ATOM     11  O   UNL     1      43.746   4.676   9.281  0.00  0.00    +0.000 OA
BRANCH  11  12
ATOM     12  C   UNL     1      44.487   3.551   8.778  0.00  0.00    +0.000 C 
BRANCH  12  13
ATOM     13  C   UNL     1      45.747   4.024   8.052  0.00  0.00    +0.000 C 
BRANCH  13  14
ATOM     14  C   UNL     1      46.349   2.928   7.199  0.00  0.00    +0.000 A 
ATOM     15  C   UNL     1      46.649   1.675   7.751  0.00  0.00    +0.000 A 
ATOM     16  C   UNL     1      47.218   0.668   6.965  0.00  0.00    +0.000 A 
ATOM     17  C   UNL     1      47.500   0.906   5.623  0.00  0.00    +0.000 A 
ATOM     18  C   UNL     1      47.221   2.155   5.066  0.00  0.00    +0.000 A 
ATOM     19  C   UNL     1      46.652   3.161   5.851  0.00  0.00    +0.000 A 
ENDBRANCH  13  14
ENDBRANCH  12  13
ENDBRANCH  11  12
ENDBRANCH   5  11
TORSDOF 6
ENDMDL
MODEL 5
REMARK VINA RESULT:    -5.997      1.554      2.404
REMARK INTER + INTRA:          -8.363
REMARK INTER:                  -7.701
REMARK INTRA:                  -0.662
REMARK UNBOUND:                -0.438
REMARK  Name = 
REMARK  6 active torsions:
REMARK  status: ('A' for Active; 'I' for Inactive)
REMARK    1  A    between atoms: N_1  and  C_2
REMARK    2  A    between atoms: C_2  and  C_3
REMARK    3  A    between atoms: C_7  and  O_8
REMARK    4  A    between atoms: O_8  and  C_9
REMARK    5  A    between atoms: C_9  and  C_10
REMARK    6  A    between atoms: C_10  and  C_11
REMARK                            x       y       z     vdW  Elec       q    Type
REMARK                         _______ _______ _______ _____ _____    ______ ____
ROOT
ATOM      1  C   UNL     1      46.812   6.389  13.072  0.00  0.00    +0.000 A 
ATOM      2  C   UNL     1      46.557   7.562  12.355  0.00  0.00    +0.000 A 
ATOM      3  C   UNL     1      45.310   7.741  11.790  0.00  0.00    +0.000 A 
ATOM      4  N   UNL     1      44.313   6.840  11.882  0.00  0.00    +0.000 NA
ATOM      5  C   UNL     1      44.565   5.709  12.572  0.00  0.00    +0.000 A 
ATOM      6  C   UNL     1      45.787   5.439  13.176  0.00  0.00    +0.000 A 
ENDROOT
BRANCH   1   7
ATOM      7  C   UNL     1      48.167   6.177  13.694  0.00  0.00    +0.000 C 
BRANCH   7   8
ATOM      8  N   UNL     1      48.066   6.030  15.142  0.00  0.00    +0.000 NA
ATOM      9  H   UNL     1      48.984   5.816  15.525  0.00  0.00    +0.000 HD
ATOM     10  H   UNL     1      47.472   5.228  15.353  0.00  0.00    +0.000 HD
ENDBRANCH   7   8
ENDBRANCH   1   7
BRANCH   5  11
ATOM     11  O   UNL     1      43.561   4.759  12.690  0.00  0.00    +0.000 OA
BRANCH  11  12
ATOM     12  C   UNL     1      43.133   4.282  11.403  0.00  0.00    +0.000 C 
BRANCH  12  13
ATOM     13  C   UNL     1      43.854   2.981  11.049  0.00  0.00    +0.000 C 
BRANCH  13  14
ATOM     14  C   UNL     1      44.719   3.134   9.817  0.00  0.00    +0.000 A 
ATOM     15  C   UNL     1      45.173   2.008   9.118  0.00  0.00    +0.000 A 
ATOM     16  C   UNL     1      45.984   2.151   7.987  0.00  0.00    +0.000 A 
ATOM     17  C   UNL     1      46.355   3.419   7.550  0.00  0.00    +0.000 A 
ATOM     18  C   UNL     1      45.922   4.547   8.247  0.00  0.00    +0.000 A 
ATOM     19  C   UNL     1      45.112   4.405   9.376  0.00  0.00    +0.000 A 
ENDBRANCH  13  14
ENDBRANCH  12  13
ENDBRANCH  11  12
ENDBRANCH   5  11
TORSDOF 6
ENDMDL
MODEL 6
REMARK VINA RESULT:    -5.893      3.344      5.644
REMARK INTER + INTRA:          -8.226
REMARK INTER:                  -7.886
REMARK INTRA:                  -0.340
REMARK UNBOUND:                -0.438
REMARK  Name = 
REMARK  6 active torsions:
REMARK  status: ('A' for Active; 'I' for Inactive)
REMARK    1  A    between atoms: N_1  and  C_2
REMARK    2  A    between atoms: C_2  and  C_3
REMARK    3  A    between atoms: C_7  and  O_8
REMARK    4  A    between atoms: O_8  and  C_9
REMARK    5  A    between atoms: C_9  and  C_10
REMARK    6  A    between atoms: C_10  and  C_11
REMARK                            x       y       z     vdW  Elec       q    Type
REMARK                         _______ _______ _______ _____ _____    ______ ____
ROOT
ATOM      1  C   UNL     1      48.188   4.204  17.790  0.00  0.00    +0.000 A 
ATOM      2  C   UNL     1      49.210   3.280  18.034  0.00  0.00    +0.000 A 
ATOM      3  C   UNL     1      49.518   2.353  17.059  0.00  0.00    +0.000 A 
ATOM      4  N   UNL     1      48.883   2.278  15.874  0.00  0.00    +0.000 NA
ATOM      5  C   UNL     1      47.896   3.169  15.645  0.00  0.00    +0.000 A 
ATOM      6  C   UNL     1      47.514   4.138  16.563  0.00  0.00    +0.000 A 
ENDROOT
BRANCH   1   7
ATOM      7  C   UNL     1      47.838   5.222  18.843  0.00  0.00    +0.000 C 
BRANCH   7   8
ATOM      8  N   UNL     1      46.420   5.563  18.797  0.00  0.00    +0.000 NA
ATOM      9  H   UNL     1      46.284   6.360  18.180  0.00  0.00    +0.000 HD
ATOM     10  H   UNL     1      46.121   5.861  19.725  0.00  0.00    +0.000 HD
ENDBRANCH   7   8
ENDBRANCH   1   7
BRANCH   5  11
ATOM     11  O   UNL     1      47.221   3.123  14.434  0.00  0.00    +0.000 OA
BRANCH  11  12
ATOM     12  C   UNL     1      47.098   4.430  13.848  0.00  0.00    +0.000 C 
BRANCH  12  13
ATOM     13  C   UNL     1      45.639   4.720  13.491  0.00  0.00    +0.000 C 
BRANCH  13  14
ATOM     14  C   UNL     1      45.377   4.544  12.011  0.00  0.00    +0.000 A 
ATOM     15  C   UNL     1      44.867   3.337  11.513  0.00  0.00    +0.000 A 
ATOM     16  C   UNL     1      44.639   3.171  10.144  0.00  0.00    +0.000 A 
ATOM     17  C   UNL     1      44.926   4.206   9.258  0.00  0.00    +0.000 A 
ATOM     18  C   UNL     1      45.449   5.406   9.740  0.00  0.00    +0.000 A 
ATOM     19  C   UNL     1      45.677   5.572  11.108  0.00  0.00    +0.000 A 
ENDBRANCH  13  14
ENDBRANCH  12  13
ENDBRANCH  11  12
ENDBRANCH   5  11
TORSDOF 6
ENDMDL
MODEL 7
REMARK VINA RESULT:    -5.816      3.379      7.265
REMARK INTER + INTRA:          -8.124
REMARK INTER:                  -7.821
REMARK INTRA:                  -0.303
REMARK UNBOUND:                -0.438
REMARK  Name = 
REMARK  6 active torsions:
REMARK  status: ('A' for Active; 'I' for Inactive)
REMARK    1  A    between atoms: N_1  and  C_2
REMARK    2  A    between atoms: C_2  and  C_3
REMARK    3  A    between atoms: C_7  and  O_8
REMARK    4  A    between atoms: O_8  and  C_9
REMARK    5  A    between atoms: C_9  and  C_10
REMARK    6  A    between atoms: C_10  and  C_11
REMARK                            x       y       z     vdW  Elec       q    Type
REMARK                         _______ _______ _______ _____ _____    ______ ____
ROOT
ATOM      1  C   UNL     1      46.926   1.489   5.021  0.00  0.00    +0.000 A 
ATOM      2  C   UNL     1      47.221   0.503   5.967  0.00  0.00    +0.000 A 
ATOM      3  C   UNL     1      47.208   0.838   7.306  0.00  0.00    +0.000 A 
ATOM      4  N   UNL     1      46.931   2.074   7.763  0.00  0.00    +0.000 NA
ATOM      5  C   UNL     1      46.650   3.022   6.846  0.00  0.00    +0.000 A 
ATOM      6  C   UNL     1      46.639   2.783   5.478  0.00  0.00    +0.000 A 
ENDROOT
BRANCH   1   7
ATOM      7  C   UNL     1      46.937   1.142   3.555  0.00  0.00    +0.000 C 
BRANCH   7   8
ATOM      8  N   UNL     1      47.312  -0.253   3.346  0.00  0.00    +0.000 NA
ATOM      9  H   UNL     1      47.351  -0.730   4.244  0.00  0.00    +0.000 HD
ATOM     10  H   UNL     1      48.255  -0.288   2.959  0.00  0.00    +0.000 HD
ENDBRANCH   7   8
ENDBRANCH   1   7
BRANCH   5  11
ATOM     11  O   UNL     1      46.358   4.307   7.280  0.00  0.00    +0.000 OA
BRANCH  11  12
ATOM     12  C   UNL     1      45.430   4.294   8.379  0.00  0.00    +0.000 C 
BRANCH  12  13
ATOM     13  C   UNL     1      45.830   5.333   9.428  0.00  0.00    +0.000 C 
BRANCH  13  14
ATOM     14  C   UNL     1      44.933   5.278  10.645  0.00  0.00    +0.000 A 
ATOM     15  C   UNL     1      45.397   5.708  11.895  0.00  0.00    +0.000 A 
ATOM     16  C   UNL     1      44.572   5.644  13.022  0.00  0.00    +0.000 A 
ATOM     17  C   UNL     1      43.278   5.142  12.912  0.00  0.00    +0.000 A 
ATOM     18  C   UNL     1      42.810   4.696  11.675  0.00  0.00    +0.000 A 
ATOM     19  C   UNL     1      43.634   4.761  10.549  0.00  0.00    +0.000 A 
ENDBRANCH  13  14
ENDBRANCH  12  13
ENDBRANCH  11  12
ENDBRANCH   5  11
TORSDOF 6
ENDMDL
MODEL 8
REMARK VINA RESULT:    -5.765      1.867      5.958
REMARK INTER + INTRA:          -8.056
REMARK INTER:                  -7.453
REMARK INTRA:                  -0.604
REMARK UNBOUND:                -0.438
REMARK  Name = 
REMARK  6 active torsions:
REMARK  status: ('A' for Active; 'I' for Inactive)
REMARK    1  A    between atoms: N_1  and  C_2
REMARK    2  A    between atoms: C_2  and  C_3
REMARK    3  A    between atoms: C_7  and  O_8
REMARK    4  A    between atoms: O_8  and  C_9
REMARK    5  A    between atoms: C_9  and  C_10
REMARK    6  A    between atoms: C_10  and  C_11
REMARK                            x       y       z     vdW  Elec       q    Type
REMARK                         _______ _______ _______ _____ _____    ______ ____
ROOT
ATOM      1  C   UNL     1      45.249   3.178   8.308  0.00  0.00    +0.000 A 
ATOM      2  C   UNL     1      45.101   2.021   9.080  0.00  0.00    +0.000 A 
ATOM      3  C   UNL     1      44.311   2.071  10.211  0.00  0.00    +0.000 A 
ATOM      4  N   UNL     1      43.670   3.181  10.625  0.00  0.00    +0.000 NA
ATOM      5  C   UNL     1      43.819   4.294   9.879  0.00  0.00    +0.000 A 
ATOM      6  C   UNL     1      44.593   4.344   8.726  0.00  0.00    +0.000 A 
ENDROOT
BRANCH   1   7
ATOM      7  C   UNL     1      46.109   3.143   7.072  0.00  0.00    +0.000 C 
BRANCH   7   8
ATOM      8  N   UNL     1      46.991   4.304   7.009  0.00  0.00    +0.000 NA
ATOM      9  H   UNL     1      47.955   4.003   7.135  0.00  0.00    +0.000 HD
ATOM     10  H   UNL     1      46.778   4.925   7.789  0.00  0.00    +0.000 HD
ENDBRANCH   7   8
ENDBRANCH   1   7
BRANCH   5  11
ATOM     11  O   UNL     1      43.172   5.456  10.274  0.00  0.00    +0.000 OA
BRANCH  11  12
ATOM     12  C   UNL     1      43.596   5.878  11.581  0.00  0.00    +0.000 C 
BRANCH  12  13
ATOM     13  C   UNL     1      44.921   6.637  11.493  0.00  0.00    +0.000 C 
BRANCH  13  14
ATOM     14  C   UNL     1      45.886   6.213  12.579  0.00  0.00    +0.000 A 
ATOM     15  C   UNL     1      46.963   7.034  12.939  0.00  0.00    +0.000 A 
ATOM     16  C   UNL     1      47.862   6.636  13.932  0.00  0.00    +0.000 A 
ATOM     17  C   UNL     1      47.698   5.409  14.570  0.00  0.00    +0.000 A 
ATOM     18  C   UNL     1      46.639   4.576  14.209  0.00  0.00    +0.000 A 
ATOM     19  C   UNL     1      45.740   4.975  13.217  0.00  0.00    +0.000 A 
ENDBRANCH  13  14
ENDBRANCH  12  13
ENDBRANCH  11  12
ENDBRANCH   5  11
TORSDOF 6
ENDMDL
MODEL 9
REMARK VINA RESULT:    -5.745      3.698      7.627
REMARK INTER + INTRA:          -8.031
REMARK INTER:                  -7.728
REMARK INTRA:                  -0.303
REMARK UNBOUND:                -0.438
REMARK  Name = 
REMARK  6 active torsions:
REMARK  status: ('A' for Active; 'I' for Inactive)
REMARK    1  A    between atoms: N_1  and  C_2
REMARK    2  A    between atoms: C_2  and  C_3
REMARK    3  A    between atoms: C_7  and  O_8
REMARK    4  A    between atoms: O_8  and  C_9
REMARK    5  A    between atoms: C_9  and  C_10
REMARK    6  A    between atoms: C_10  and  C_11
REMARK                            x       y       z     vdW  Elec       q    Type
REMARK                         _______ _______ _______ _____ _____    ______ ____
ROOT
ATOM      1  C   UNL     1      45.067   4.364  11.612  0.00  0.00    +0.000 A 
ATOM      2  C   UNL     1      45.534   5.668  11.424  0.00  0.00    +0.000 A 
ATOM      3  C   UNL     1      46.525   6.149  12.257  0.00  0.00    +0.000 A 
ATOM      4  N   UNL     1      47.073   5.431  13.255  0.00  0.00    +0.000 NA
ATOM      5  C   UNL     1      46.617   4.174  13.435  0.00  0.00    +0.000 A 
ATOM      6  C   UNL     1      45.623   3.603  12.650  0.00  0.00    +0.000 A 
ENDROOT
BRANCH   1   7
ATOM      7  C   UNL     1      43.985   3.823  10.715  0.00  0.00    +0.000 C 
BRANCH   7   8
ATOM      8  N   UNL     1      42.943   3.154  11.487  0.00  0.00    +0.000 NA
ATOM      9  H   UNL     1      43.371   2.629  12.246  0.00  0.00    +0.000 HD
ATOM     10  H   UNL     1      42.476   2.471  10.891  0.00  0.00    +0.000 HD
ENDBRANCH   7   8
ENDBRANCH   1   7
BRANCH   5  11
ATOM     11  O   UNL     1      47.160   3.405  14.453  0.00  0.00    +0.000 OA
BRANCH  11  12
ATOM     12  C   UNL     1      47.322   4.167  15.662  0.00  0.00    +0.000 C 
BRANCH  12  13
ATOM     13  C   UNL     1      47.581   3.238  16.848  0.00  0.00    +0.000 C 
BRANCH  13  14
ATOM     14  C   UNL     1      49.052   3.165  17.196  0.00  0.00    +0.000 A 
ATOM     15  C   UNL     1      49.718   4.280  17.723  0.00  0.00    +0.000 A 
ATOM     16  C   UNL     1      51.080   4.216  18.031  0.00  0.00    +0.000 A 
ATOM     17  C   UNL     1      51.792   3.041  17.807  0.00  0.00    +0.000 A 
ATOM     18  C   UNL     1      51.143   1.930  17.267  0.00  0.00    +0.000 A 
ATOM     19  C   UNL     1      49.782   1.993  16.960  0.00  0.00    +0.000 A 
ENDBRANCH  13  14
ENDBRANCH  12  13
ENDBRANCH  11  12
ENDBRANCH   5  11
TORSDOF 6
ENDMDL
