MODEL 1
REMARK VINA RESULT:    -7.516      0.000      0.000
REMARK INTER + INTRA:         -10.586
REMARK INTER:                  -9.713
REMARK INTRA:                  -0.873
REMARK UNBOUND:                -0.873
REMARK  Name = 
REMARK  5 active torsions:
REMARK  status: ('A' for Active; 'I' for Inactive)
REMARK    1  A    between atoms: C_2  and  C_3
REMARK    2  A    between atoms: C_7  and  C_8
REMARK    3  A    between atoms: C_8  and  O_9
REMARK    4  A    between atoms: O_9  and  C_10
REMARK    5  A    between atoms: C_15  and  C_16
REMARK                            x       y       z     vdW  Elec       q    Type
REMARK                         _______ _______ _______ _____ _____    ______ ____
ROOT
ATOM      1  C   UNL     1      44.397   5.037  10.628  0.00  0.00    +0.000 A 
ATOM      2  C   UNL     1      43.642   4.151  11.396  0.00  0.00    +0.000 A 
ATOM      3  C   UNL     1      43.627   2.801  11.063  0.00  0.00    +0.000 A 
ATOM      4  F   UNL     1      42.924   1.943  11.814  0.00  0.00    +0.000 F 
ATOM      5  C   UNL     1      44.342   2.323   9.972  0.00  0.00    +0.000 A 
ATOM      6  C   UNL     1      45.073   3.214   9.185  0.00  0.00    +0.000 A 
ATOM      7  C   UNL     1      45.088   4.573   9.507  0.00  0.00    +0.000 A 
ENDROOT
BRANCH   6   8
ATOM      8  C   UNL     1      45.849   2.729   8.043  0.00  0.00    +0.000 C 
ATOM      9  C   UNL     1      46.097   3.549   7.008  0.00  0.00    +0.000 C 
ATOM     10  C   UNL     1      46.994   3.102   5.891  0.00  0.00    +0.000 C 
ATOM     11  C   UNL     1      47.875   1.920   6.323  0.00  0.00    +0.000 C 
ATOM     12  N   UNL     1      47.074   0.849   6.922  0.00  0.00    +0.000 NA
ATOM     13  C   UNL     1      46.361   1.311   8.121  0.00  0.00    +0.000 C 
ATOM     14  H   UNL     1      47.686   0.079   7.190  0.00  0.00    +0.000 HD
ENDBRANCH   6   8
BRANCH   1  15
ATOM     15  O   UNL     1      44.404   6.342  11.041  0.00  0.00    +0.000 OA
BRANCH  15  16
ATOM     16  C   UNL     1      44.817   6.532  12.399  0.00  0.00    +0.000 C 
BRANCH  16  21
ATOM     17  C   UNL     1      48.346   7.928  12.148  0.00  0.00    +0.000 A 
ATOM     18  C   UNL     1      49.023   6.900  12.786  0.00  0.00    +0.000 A 
ATOM     19  N   UNL     1      48.418   5.787  13.266  0.00  0.00    +0.000 NA
ATOM     20  C   UNL     1      47.080   5.699  13.099  0.00  0.00    +0.000 A 
ATOM     21  C   UNL     1      46.310   6.673  12.468  0.00  0.00    +0.000 A 
ATOM     22  C   UNL     1      46.967   7.814  11.999  0.00  0.00    +0.000 A 
BRANCH  17  24
ATOM     23  N   UNL     1      49.616  10.006  11.276  0.00  0.00    +0.000 NA
ATOM     24  C   UNL     1      49.046   9.072  11.666  0.00  0.00    +0.000 C 
ENDBRANCH  17  24
ENDBRANCH  16  21
ENDBRANCH  15  16
ENDBRANCH   1  15
TORSDOF 5
ENDMDL
MODEL 2
REMARK VINA RESULT:    -7.313      1.511      2.771
REMARK INTER + INTRA:         -10.324
REMARK INTER:                  -9.642
REMARK INTRA:                  -0.682
REMARK UNBOUND:                -0.873
REMARK  Name = 
REMARK  5 active torsions:
REMARK  status: ('A' for Active; 'I' for Inactive)
REMARK    1  A    between atoms: C_2  and  C_3
REMARK    2  A    between atoms: C_7  and  C_8
REMARK    3  A    between atoms: C_8  and  O_9
REMARK    4  A    between atoms: O_9  and  C_10
REMARK    5  A    between atoms: C_15  and  C_16
REMARK                            x       y       z     vdW  Elec       q    Type
REMARK                         _______ _______ _______ _____ _____    ______ ____
ROOT
ATOM      1  C   UNL     1      44.769   5.023  10.218  0.00  0.00    +0.000 A 
ATOM      2  C   UNL     1      43.939   4.167  10.942  0.00  0.00    +0.000 A 
ATOM      3  C   UNL     1      43.880   2.822  10.599  0.00  0.00    +0.000 A 
ATOM      4  F   UNL     1      43.105   1.991  11.309  0.00  0.00    +0.000 F 
ATOM      5  C   UNL     1      44.624   2.317   9.539  0.00  0.00    +0.000 A 
ATOM      6  C   UNL     1      45.431   3.179   8.794  0.00  0.00    +0.000 A 
ATOM      7  C   UNL     1      45.490   4.535   9.127  0.00  0.00    +0.000 A 
ENDROOT
BRANCH   6   8
ATOM      8  C   UNL     1      46.238   2.666   7.687  0.00  0.00    +0.000 C 
ATOM      9  C   UNL     1      46.629   1.380   7.686  0.00  0.00    +0.000 C 
ATOM     10  C   UNL     1      47.349   0.813   6.498  0.00  0.00    +0.000 C 
ATOM     11  C   UNL     1      47.132   1.680   5.249  0.00  0.00    +0.000 C 
ATOM     12  N   UNL     1      47.428   3.090   5.520  0.00  0.00    +0.000 NA
ATOM     13  C   UNL     1      46.558   3.633   6.573  0.00  0.00    +0.000 C 
ATOM     14  H   UNL     1      47.281   3.634   4.671  0.00  0.00    +0.000 HD
ENDBRANCH   6   8
BRANCH   1  15
ATOM     15  O   UNL     1      44.814   6.324  10.640  0.00  0.00    +0.000 OA
BRANCH  15  16
ATOM     16  C   UNL     1      44.457   6.513  12.014  0.00  0.00    +0.000 C 
BRANCH  16  21
ATOM     17  C   UNL     1      47.141   5.218  14.378  0.00  0.00    +0.000 A 
ATOM     18  C   UNL     1      48.015   6.291  14.309  0.00  0.00    +0.000 A 
ATOM     19  N   UNL     1      47.782   7.404  13.571  0.00  0.00    +0.000 NA
ATOM     20  C   UNL     1      46.624   7.443  12.876  0.00  0.00    +0.000 A 
ATOM     21  C   UNL     1      45.679   6.421  12.882  0.00  0.00    +0.000 A 
ATOM     22  C   UNL     1      45.961   5.283  13.642  0.00  0.00    +0.000 A 
BRANCH  17  24
ATOM     23  N   UNL     1      47.701   3.148  15.825  0.00  0.00    +0.000 NA
ATOM     24  C   UNL     1      47.448   4.077  15.174  0.00  0.00    +0.000 C 
ENDBRANCH  17  24
ENDBRANCH  16  21
ENDBRANCH  15  16
ENDBRANCH   1  15
TORSDOF 5
ENDMDL
MODEL 3
REMARK VINA RESULT:    -6.876      2.913      7.485
REMARK INTER + INTRA:          -9.759
REMARK INTER:                  -9.289
REMARK INTRA:                  -0.470
REMARK UNBOUND:                -0.873
REMARK  Name = 
REMARK  5 active torsions:
REMARK  status: ('A' for Active; 'I' for Inactive)
REMARK    1  A    between atoms: C_2  and  C_3
REMARK    2  A    between atoms: C_7  and  C_8
REMARK    3  A    between atoms: C_8  and  O_9
REMARK    4  A    between atoms: O_9  and  C_10
REMARK    5  A    between atoms: C_15  and  C_16
REMARK                            x       y       z     vdW  Elec       q    Type
REMARK                         _______ _______ _______ _____ _____    ______ ____
ROOT
ATOM      1  C   UNL     1      45.540   4.425  12.398  0.00  0.00    +0.000 A 
ATOM      2  C   UNL     1      45.811   5.655  11.799  0.00  0.00    +0.000 A 
ATOM      3  C   UNL     1      46.698   6.531  12.413  0.00  0.00    +0.000 A 
ATOM      4  F   UNL     1      46.981   7.703  11.828  0.00  0.00    +0.000 F 
ATOM      5  C   UNL     1      47.310   6.207  13.617  0.00  0.00    +0.000 A 
ATOM      6  C   UNL     1      47.016   4.989  14.232  0.00  0.00    +0.000 A 
ATOM      7  C   UNL     1      46.119   4.105  13.627  0.00  0.00    +0.000 A 
ENDROOT
BRANCH   6   8
ATOM      8  C   UNL     1      47.664   4.619  15.491  0.00  0.00    +0.000 C 
ATOM      9  C   UNL     1      47.626   3.343  15.911  0.00  0.00    +0.000 C 
ATOM     10  C   UNL     1      48.391   2.931  17.134  0.00  0.00    +0.000 C 
ATOM     11  C   UNL     1      49.488   3.950  17.475  0.00  0.00    +0.000 C 
ATOM     12  N   UNL     1      48.953   5.313  17.528  0.00  0.00    +0.000 NA
ATOM     13  C   UNL     1      48.378   5.719  16.237  0.00  0.00    +0.000 C 
ATOM     14  H   UNL     1      49.703   5.961  17.763  0.00  0.00    +0.000 HD
ENDBRANCH   6   8
BRANCH   1  15
ATOM     15  O   UNL     1      44.694   3.593  11.716  0.00  0.00    +0.000 OA
BRANCH  15  16
ATOM     16  C   UNL     1      44.234   4.113  10.463  0.00  0.00    +0.000 C 
BRANCH  16  21
ATOM     17  C   UNL     1      46.191   1.888   8.078  0.00  0.00    +0.000 A 
ATOM     18  C   UNL     1      46.629   2.864   7.195  0.00  0.00    +0.000 A 
ATOM     19  N   UNL     1      46.352   4.182   7.335  0.00  0.00    +0.000 NA
ATOM     20  C   UNL     1      45.607   4.539   8.405  0.00  0.00    +0.000 A 
ATOM     21  C   UNL     1      45.124   3.639   9.350  0.00  0.00    +0.000 A 
ATOM     22  C   UNL     1      45.417   2.285   9.164  0.00  0.00    +0.000 A 
BRANCH  17  24
ATOM     23  N   UNL     1      46.785  -0.601   7.701  0.00  0.00    +0.000 NA
ATOM     24  C   UNL     1      46.519   0.517   7.870  0.00  0.00    +0.000 C 
ENDBRANCH  17  24
ENDBRANCH  16  21
ENDBRANCH  15  16
ENDBRANCH   1  15
TORSDOF 5
ENDMDL
MODEL 4
REMARK VINA RESULT:    -6.781      1.749      2.231
REMARK INTER + INTRA:          -9.636
REMARK INTER:                  -9.041
REMARK INTRA:                  -0.595
REMARK UNBOUND:                -0.873
REMARK  Name = 
REMARK  5 active torsions:
REMARK  status: ('A' for Active; 'I' for Inactive)
REMARK    1  A    between atoms: C_2  and  C_3
REMARK    2  A    between atoms: C_7  and  C_8
REMARK    3  A    between atoms: C_8  and  O_9
REMARK    4  A    between atoms: O_9  and  C_10
REMARK    5  A    between atoms: C_15  and  C_16
REMARK                            x       y       z     vdW  Elec       q    Type
REMARK                         _______ _______ _______ _____ _____    ______ ____
ROOT
ATOM      1  C   UNL     1      44.812   5.045  10.606  0.00  0.00    +0.000 A 
ATOM      2  C   UNL     1      43.938   4.242  11.338  0.00  0.00    +0.000 A 
ATOM      3  C   UNL     1      43.739   2.921  10.953  0.00  0.00    +0.000 A 
ATOM      4  F   UNL     1      42.920   2.139  11.669  0.00  0.00    +0.000 F 
ATOM      5  C   UNL     1      44.389   2.391   9.845  0.00  0.00    +0.000 A 
ATOM      6  C   UNL     1      45.241   3.203   9.094  0.00  0.00    +0.000 A 
ATOM      7  C   UNL     1      45.440   4.534   9.469  0.00  0.00    +0.000 A 
ENDROOT
BRANCH   6   8
ATOM      8  C   UNL     1      45.950   2.660   7.935  0.00  0.00    +0.000 C 
ATOM      9  C   UNL     1      46.174   3.440   6.863  0.00  0.00    +0.000 C 
ATOM     10  C   UNL     1      47.006   2.932   5.723  0.00  0.00    +0.000 C 
ATOM     11  C   UNL     1      47.871   1.739   6.153  0.00  0.00    +0.000 C 
ATOM     12  N   UNL     1      47.068   0.711   6.821  0.00  0.00    +0.000 NA
ATOM     13  C   UNL     1      46.424   1.231   8.035  0.00  0.00    +0.000 C 
ATOM     14  H   UNL     1      47.670  -0.068   7.086  0.00  0.00    +0.000 HD
ENDBRANCH   6   8
BRANCH   1  15
ATOM     15  O   UNL     1      44.995   6.320  11.069  0.00  0.00    +0.000 OA
BRANCH  15  16
ATOM     16  C   UNL     1      46.167   6.495  11.874  0.00  0.00    +0.000 C 
BRANCH  16  21
ATOM     17  C   UNL     1      46.003  10.295  11.910  0.00  0.00    +0.000 A 
ATOM     18  C   UNL     1      47.342  10.558  12.156  0.00  0.00    +0.000 A 
ATOM     19  N   UNL     1      48.286   9.595  12.288  0.00  0.00    +0.000 NA
ATOM     20  C   UNL     1      47.871   8.315  12.165  0.00  0.00    +0.000 A 
ATOM     21  C   UNL     1      46.553   7.945  11.914  0.00  0.00    +0.000 A 
ATOM     22  C   UNL     1      45.605   8.966  11.799  0.00  0.00    +0.000 A 
BRANCH  17  24
ATOM     23  N   UNL     1      44.297  12.225  11.678  0.00  0.00    +0.000 NA
ATOM     24  C   UNL     1      45.063  11.357  11.783  0.00  0.00    +0.000 C 
ENDBRANCH  17  24
ENDBRANCH  16  21
ENDBRANCH  15  16
ENDBRANCH   1  15
TORSDOF 5
ENDMDL
MODEL 5
REMARK VINA RESULT:    -6.598      1.767      2.114
REMARK INTER + INTRA:          -9.399
REMARK INTER:                  -8.642
REMARK INTRA:                  -0.757
REMARK UNBOUND:                -0.873
REMARK  Name = 
REMARK  5 active torsions:
REMARK  status: ('A' for Active; 'I' for Inactive)
REMARK    1  A    between atoms: C_2  and  C_3
REMARK    2  A    between atoms: C_7  and  C_8
REMARK    3  A    between atoms: C_8  and  O_9
REMARK    4  A    between atoms: O_9  and  C_10
REMARK    5  A    between atoms: C_15  and  C_16
REMARK                            x       y       z     vdW  Elec       q    Type
REMARK                         _______ _______ _______ _____ _____    ______ ____
ROOT
ATOM      1  C   UNL     1      45.302   6.469  11.043  0.00  0.00    +0.000 A 
ATOM      2  C   UNL     1      44.024   6.315  11.579  0.00  0.00    +0.000 A 
ATOM      3  C   UNL     1      43.250   5.226  11.195  0.00  0.00    +0.000 A 
ATOM      4  F   UNL     1      42.032   5.059  11.728  0.00  0.00    +0.000 F 
ATOM      5  C   UNL     1      43.724   4.295  10.279  0.00  0.00    +0.000 A 
ATOM      6  C   UNL     1      44.991   4.465   9.719  0.00  0.00    +0.000 A 
ATOM      7  C   UNL     1      45.773   5.561  10.092  0.00  0.00    +0.000 A 
ENDROOT
BRANCH   6   8
ATOM      8  C   UNL     1      45.518   3.487   8.767  0.00  0.00    +0.000 C 
ATOM      9  C   UNL     1      46.015   3.902   7.589  0.00  0.00    +0.000 C 
ATOM     10  C   UNL     1      46.669   2.922   6.661  0.00  0.00    +0.000 C 
ATOM     11  C   UNL     1      47.085   1.643   7.403  0.00  0.00    +0.000 C 
ATOM     12  N   UNL     1      45.971   1.091   8.179  0.00  0.00    +0.000 NA
ATOM     13  C   UNL     1      45.497   2.040   9.196  0.00  0.00    +0.000 C 
ATOM     14  H   UNL     1      46.278   0.242   8.652  0.00  0.00    +0.000 HD
ENDBRANCH   6   8
BRANCH   1  15
ATOM     15  O   UNL     1      46.026   7.537  11.500  0.00  0.00    +0.000 OA
BRANCH  15  16
ATOM     16  C   UNL     1      46.424   7.439  12.872  0.00  0.00    +0.000 C 
BRANCH  16  21
ATOM     17  C   UNL     1      50.121   7.819  12.065  0.00  0.00    +0.000 A 
ATOM     18  C   UNL     1      50.555   8.294  13.293  0.00  0.00    +0.000 A 
ATOM     19  N   UNL     1      49.738   8.476  14.359  0.00  0.00    +0.000 NA
ATOM     20  C   UNL     1      48.434   8.167  14.188  0.00  0.00    +0.000 A 
ATOM     21  C   UNL     1      47.901   7.679  12.999  0.00  0.00    +0.000 A 
ATOM     22  C   UNL     1      48.771   7.519  11.916  0.00  0.00    +0.000 A 
BRANCH  17  24
ATOM     23  N   UNL     1      51.781   7.516  10.104  0.00  0.00    +0.000 NA
ATOM     24  C   UNL     1      51.035   7.651  10.985  0.00  0.00    +0.000 C 
ENDBRANCH  17  24
ENDBRANCH  16  21
ENDBRANCH  15  16
ENDBRANCH   1  15
TORSDOF 5
ENDMDL
MODEL 6
REMARK VINA RESULT:    -6.547      2.047      6.531
REMARK INTER + INTRA:          -9.334
REMARK INTER:                  -8.473
REMARK INTRA:                  -0.861
REMARK UNBOUND:                -0.873
REMARK  Name = 
REMARK  5 active torsions:
REMARK  status: ('A' for Active; 'I' for Inactive)
REMARK    1  A    between atoms: C_2  and  C_3
REMARK    2  A    between atoms: C_7  and  C_8
REMARK    3  A    between atoms: C_8  and  O_9
REMARK    4  A    between atoms: O_9  and  C_10
REMARK    5  A    between atoms: C_15  and  C_16
REMARK                            x       y       z     vdW  Elec       q    Type
REMARK                         _______ _______ _______ _____ _____    ______ ____
ROOT
ATOM      1  C   UNL     1      45.080   5.697  12.865  0.00  0.00    +0.000 A 
ATOM      2  C   UNL     1      45.595   4.671  13.656  0.00  0.00    +0.000 A 
ATOM      3  C   UNL     1      46.915   4.736  14.086  0.00  0.00    +0.000 A 
ATOM      4  F   UNL     1      47.405   3.766  14.868  0.00  0.00    +0.000 F 
ATOM      5  C   UNL     1      47.733   5.803  13.733  0.00  0.00    +0.000 A 
ATOM      6  C   UNL     1      47.227   6.815  12.916  0.00  0.00    +0.000 A 
ATOM      7  C   UNL     1      45.904   6.753  12.472  0.00  0.00    +0.000 A 
ENDROOT
BRANCH   6   8
ATOM      8  C   UNL     1      48.066   7.957  12.547  0.00  0.00    +0.000 C 
ATOM      9  C   UNL     1      49.264   7.748  11.974  0.00  0.00    +0.000 C 
ATOM     10  C   UNL     1      50.075   8.910  11.481  0.00  0.00    +0.000 C 
ATOM     11  C   UNL     1      49.201  10.158  11.291  0.00  0.00    +0.000 C 
ATOM     12  N   UNL     1      48.406  10.441  12.489  0.00  0.00    +0.000 NA
ATOM     13  C   UNL     1      47.500   9.331  12.812  0.00  0.00    +0.000 C 
ATOM     14  H   UNL     1      47.846  11.278  12.332  0.00  0.00    +0.000 HD
ENDBRANCH   6   8
BRANCH   1  15
ATOM     15  O   UNL     1      43.761   5.591  12.517  0.00  0.00    +0.000 OA
BRANCH  15  16
ATOM     16  C   UNL     1      43.499   5.787  11.123  0.00  0.00    +0.000 C 
BRANCH  16  21
ATOM     17  C   UNL     1      45.104   3.495   8.547  0.00  0.00    +0.000 A 
ATOM     18  C   UNL     1      44.725   2.276   9.088  0.00  0.00    +0.000 A 
ATOM     19  N   UNL     1      43.973   2.152  10.209  0.00  0.00    +0.000 NA
ATOM     20  C   UNL     1      43.583   3.298  10.810  0.00  0.00    +0.000 A 
ATOM     21  C   UNL     1      43.905   4.569  10.345  0.00  0.00    +0.000 A 
ATOM     22  C   UNL     1      44.695   4.657   9.195  0.00  0.00    +0.000 A 
BRANCH  17  24
ATOM     23  N   UNL     1      46.543   3.598   6.400  0.00  0.00    +0.000 NA
ATOM     24  C   UNL     1      45.896   3.552   7.364  0.00  0.00    +0.000 C 
ENDBRANCH  17  24
ENDBRANCH  16  21
ENDBRANCH  15  16
ENDBRANCH   1  15
TORSDOF 5
ENDMDL
MODEL 7
REMARK VINA RESULT:    -6.515      3.436      5.363
REMARK INTER + INTRA:          -9.292
REMARK INTER:                  -8.478
REMARK INTRA:                  -0.814
REMARK UNBOUND:                -0.873
REMARK  Name = 
REMARK  5 active torsions:
REMARK  status: ('A' for Active; 'I' for Inactive)
REMARK    1  A    between atoms: C_2  and  C_3
REMARK    2  A    between atoms: C_7  and  C_8
REMARK    3  A    between atoms: C_8  and  O_9
REMARK    4  A    between atoms: O_9  and  C_10
REMARK    5  A    between atoms: C_15  and  C_16
REMARK                            x       y       z     vdW  Elec       q    Type
REMARK                         _______ _______ _______ _____ _____    ______ ____
ROOT
ATOM      1  C   UNL     1      47.529   7.437  12.661  0.00  0.00    +0.000 A 
ATOM      2  C   UNL     1      46.767   8.585  12.875  0.00  0.00    +0.000 A 
ATOM      3  C   UNL     1      45.470   8.645  12.379  0.00  0.00    +0.000 A 
ATOM      4  F   UNL     1      44.725   9.735  12.606  0.00  0.00    +0.000 F 
ATOM      5  C   UNL     1      44.924   7.585  11.666  0.00  0.00    +0.000 A 
ATOM      6  C   UNL     1      45.697   6.448  11.425  0.00  0.00    +0.000 A 
ATOM      7  C   UNL     1      47.005   6.382  11.912  0.00  0.00    +0.000 A 
ENDROOT
BRANCH   6   8
ATOM      8  C   UNL     1      45.136   5.312  10.692  0.00  0.00    +0.000 C 
ATOM      9  C   UNL     1      45.496   5.098   9.415  0.00  0.00    +0.000 C 
ATOM     10  C   UNL     1      45.023   3.869   8.696  0.00  0.00    +0.000 C 
ATOM     11  C   UNL     1      44.558   2.790   9.684  0.00  0.00    +0.000 C 
ATOM     12  N   UNL     1      43.600   3.330  10.652  0.00  0.00    +0.000 NA
ATOM     13  C   UNL     1      44.189   4.414  11.450  0.00  0.00    +0.000 C 
ATOM     14  H   UNL     1      43.306   2.588  11.286  0.00  0.00    +0.000 HD
ENDBRANCH   6   8
BRANCH   1  15
ATOM     15  O   UNL     1      48.780   7.428  13.217  0.00  0.00    +0.000 OA
BRANCH  15  16
ATOM     16  C   UNL     1      48.839   7.945  14.551  0.00  0.00    +0.000 C 
BRANCH  16  21
ATOM     17  C   UNL     1      48.424   4.837  16.704  0.00  0.00    +0.000 A 
ATOM     18  C   UNL     1      49.719   4.747  17.191  0.00  0.00    +0.000 A 
ATOM     19  N   UNL     1      50.699   5.632  16.888  0.00  0.00    +0.000 NA
ATOM     20  C   UNL     1      50.368   6.650  16.063  0.00  0.00    +0.000 A 
ATOM     21  C   UNL     1      49.098   6.832  15.525  0.00  0.00    +0.000 A 
ATOM     22  C   UNL     1      48.116   5.891  15.849  0.00  0.00    +0.000 A 
BRANCH  17  24
ATOM     23  N   UNL     1      46.638   3.085  17.358  0.00  0.00    +0.000 NA
ATOM     24  C   UNL     1      47.441   3.871  17.064  0.00  0.00    +0.000 C 
ENDBRANCH  17  24
ENDBRANCH  16  21
ENDBRANCH  15  16
ENDBRANCH   1  15
TORSDOF 5
ENDMDL
MODEL 8
REMARK VINA RESULT:    -6.470      1.790      2.184
REMARK INTER + INTRA:          -9.234
REMARK INTER:                  -8.900
REMARK INTRA:                  -0.335
REMARK UNBOUND:                -0.873
REMARK  Name = 
REMARK  5 active torsions:
REMARK  status: ('A' for Active; 'I' for Inactive)
REMARK    1  A    between atoms: C_2  and  C_3
REMARK    2  A    between atoms: C_7  and  C_8
REMARK    3  A    between atoms: C_8  and  O_9
REMARK    4  A    between atoms: O_9  and  C_10
REMARK    5  A    between atoms: C_15  and  C_16
REMARK                            x       y       z     vdW  Elec       q    Type
REMARK                         _______ _______ _______ _____ _____    ______ ____
ROOT
ATOM      1  C   UNL     1      45.032   4.866  10.990  0.00  0.00    +0.000 A 
ATOM      2  C   UNL     1      44.063   4.080  11.614  0.00  0.00    +0.000 A 
ATOM      3  C   UNL     1      43.727   2.848  11.065  0.00  0.00    +0.000 A 
ATOM      4  F   UNL     1      42.816   2.078  11.676  0.00  0.00    +0.000 F 
ATOM      5  C   UNL     1      44.332   2.391   9.900  0.00  0.00    +0.000 A 
ATOM      6  C   UNL     1      45.279   3.191   9.259  0.00  0.00    +0.000 A 
ATOM      7  C   UNL     1      45.618   4.434   9.799  0.00  0.00    +0.000 A 
ENDROOT
BRANCH   6   8
ATOM      8  C   UNL     1      45.943   2.722   8.042  0.00  0.00    +0.000 C 
ATOM      9  C   UNL     1      46.126   3.567   7.013  0.00  0.00    +0.000 C 
ATOM     10  C   UNL     1      46.913   3.132   5.812  0.00  0.00    +0.000 C 
ATOM     11  C   UNL     1      47.793   1.915   6.134  0.00  0.00    +0.000 C 
ATOM     12  N   UNL     1      47.015   0.847   6.768  0.00  0.00    +0.000 NA
ATOM     13  C   UNL     1      46.419   1.290   8.036  0.00  0.00    +0.000 C 
ATOM     14  H   UNL     1      47.626   0.054   6.960  0.00  0.00    +0.000 HD
ENDBRANCH   6   8
BRANCH   1  15
ATOM     15  O   UNL     1      45.347   6.044  11.611  0.00  0.00    +0.000 OA
BRANCH  15  16
ATOM     16  C   UNL     1      46.752   6.277  11.763  0.00  0.00    +0.000 C 
BRANCH  16  21
ATOM     17  C   UNL     1      48.250   6.244  15.259  0.00  0.00    +0.000 A 
ATOM     18  C   UNL     1      47.845   4.976  15.647  0.00  0.00    +0.000 A 
ATOM     19  N   UNL     1      47.145   4.134  14.850  0.00  0.00    +0.000 NA
ATOM     20  C   UNL     1      46.840   4.580  13.611  0.00  0.00    +0.000 A 
ATOM     21  C   UNL     1      47.204   5.831  13.124  0.00  0.00    +0.000 A 
ATOM     22  C   UNL     1      47.912   6.679  13.981  0.00  0.00    +0.000 A 
BRANCH  17  24
ATOM     23  N   UNL     1      49.582   7.760  16.877  0.00  0.00    +0.000 NA
ATOM     24  C   UNL     1      48.985   7.079  16.149  0.00  0.00    +0.000 C 
ENDBRANCH  17  24
ENDBRANCH  16  21
ENDBRANCH  15  16
ENDBRANCH   1  15
TORSDOF 5
ENDMDL
MODEL 9
REMARK VINA RESULT:    -6.328      2.827      6.864
REMARK INTER + INTRA:          -9.050
REMARK INTER:                  -8.319
REMARK INTRA:                  -0.731
REMARK UNBOUND:                -0.873
REMARK  Name = 
REMARK  5 active torsions:
REMARK  status: ('A' for Active; 'I' for Inactive)
REMARK    1  A    between atoms: C_2  and  C_3
REMARK    2  A    between atoms: C_7  and  C_8
REMARK    3  A    between atoms: C_8  and  O_9
REMARK    4  A    between atoms: O_9  and  C_10
REMARK    5  A    between atoms: C_15  and  C_16
REMARK                            x       y       z     vdW  Elec       q    Type
REMARK                         _______ _______ _______ _____ _____    ______ ____
ROOT
ATOM      1  C   UNL     1      46.195   6.827  12.994  0.00  0.00    +0.000 A 
ATOM      2  C   UNL     1      45.479   7.970  12.641  0.00  0.00    +0.000 A 
ATOM      3  C   UNL     1      46.167   9.109  12.238  0.00  0.00    +0.000 A 
ATOM      4  F   UNL     1      45.482  10.201  11.872  0.00  0.00    +0.000 F 
ATOM      5  C   UNL     1      47.555   9.131  12.191  0.00  0.00    +0.000 A 
ATOM      6  C   UNL     1      48.273   7.996  12.573  0.00  0.00    +0.000 A 
ATOM      7  C   UNL     1      47.591   6.850  12.988  0.00  0.00    +0.000 A 
ENDROOT
BRANCH   6   8
ATOM      8  C   UNL     1      49.736   7.991  12.513  0.00  0.00    +0.000 C 
ATOM      9  C   UNL     1      50.354   8.006  11.320  0.00  0.00    +0.000 C 
ATOM     10  C   UNL     1      51.848   8.125  11.249  0.00  0.00    +0.000 C 
ATOM     11  C   UNL     1      52.427   8.677  12.560  0.00  0.00    +0.000 C 
ATOM     12  N   UNL     1      51.934   7.925  13.718  0.00  0.00    +0.000 NA
ATOM     13  C   UNL     1      50.471   8.001  13.831  0.00  0.00    +0.000 C 
ATOM     14  H   UNL     1      52.342   8.310  14.569  0.00  0.00    +0.000 HD
ENDBRANCH   6   8
BRANCH   1  15
ATOM     15  O   UNL     1      45.454   5.729  13.336  0.00  0.00    +0.000 OA
BRANCH  15  16
ATOM     16  C   UNL     1      44.170   5.661  12.704  0.00  0.00    +0.000 C 
BRANCH  16  21
ATOM     17  C   UNL     1      45.011   3.897   9.441  0.00  0.00    +0.000 A 
ATOM     18  C   UNL     1      44.313   2.719   9.655  0.00  0.00    +0.000 A 
ATOM     19  N   UNL     1      43.579   2.472  10.767  0.00  0.00    +0.000 NA
ATOM     20  C   UNL     1      43.541   3.447  11.701  0.00  0.00    +0.000 A 
ATOM     21  C   UNL     1      44.200   4.667  11.579  0.00  0.00    +0.000 A 
ATOM     22  C   UNL     1      44.961   4.879  10.426  0.00  0.00    +0.000 A 
BRANCH  17  24
ATOM     23  N   UNL     1      46.381   4.251   7.275  0.00  0.00    +0.000 NA
ATOM     24  C   UNL     1      45.765   4.091   8.247  0.00  0.00    +0.000 C 
ENDBRANCH  17  24
ENDBRANCH  16  21
ENDBRANCH  15  16
ENDBRANCH   1  15
TORSDOF 5
ENDMDL
