MODEL 1
REMARK VINA RESULT:    -8.468      0.000      0.000
REMARK INTER + INTRA:         -12.838
REMARK INTER:                 -11.934
REMARK INTRA:                  -0.905
REMARK UNBOUND:                -0.905
REMARK  Name = 
REMARK  8 active torsions:
REMARK  status: ('A' for Active; 'I' for Inactive)
REMARK    1  A    between atoms: C_1  and  N_2
REMARK    2  A    between atoms: C_4  and  C_5
REMARK    3  A    between atoms: C_5  and  O_7
REMARK    4  A    between atoms: O_7  and  C_8
REMARK    5  A    between atoms: C_8  and  C_9
REMARK    6  A    between atoms: N_13  and  C_14
REMARK    7  A    between atoms: C_14  and  C_15
REMARK    8  A    between atoms: C_15  and  C_16
REMARK                            x       y       z     vdW  Elec       q    Type
REMARK                         _______ _______ _______ _____ _____    ______ ____
ROOT
ATOM      1  C   UNL     1      46.650   4.885  13.780  0.00  0.00    +0.000 A 
ATOM      2  C   UNL     1      46.526   6.137  13.182  0.00  0.00    +0.000 A 
ATOM      3  C   UNL     1      45.987   6.236  11.901  0.00  0.00    +0.000 A 
ATOM      4  C   UNL     1      45.538   5.089  11.254  0.00  0.00    +0.000 A 
ATOM      5  N   UNL     1      44.925   5.246  10.000  0.00  0.00    +0.000 N 
ATOM      6  N   UNL     1      45.668   3.870  11.811  0.00  0.00    +0.000 NA
ATOM      7  C   UNL     1      46.236   3.787  13.037  0.00  0.00    +0.000 A 
ATOM      8  H   UNL     1      45.608   5.617   9.345  0.00  0.00    +0.000 HD
ENDROOT
BRANCH   1   9
ATOM      9  C   UNL     1      47.200   4.730  15.166  0.00  0.00    +0.000 C 
BRANCH   9  10
ATOM     10  O   UNL     1      47.474   3.352  15.447  0.00  0.00    +0.000 OA
BRANCH  10  11
ATOM     11  C   UNL     1      47.633   3.075  16.777  0.00  0.00    +0.000 C 
ATOM     12  O   UNL     1      46.694   2.883  17.535  0.00  0.00    +0.000 OA
BRANCH  11  16
ATOM     13  C   UNL     1      52.291   1.437  17.464  0.00  0.00    +0.000 C 
ATOM     14  N   UNL     1      51.124   2.288  17.479  0.00  0.00    +0.000 N 
ATOM     15  C   UNL     1      49.882   1.957  17.014  0.00  0.00    +0.000 A 
ATOM     16  C   UNL     1      49.035   3.049  17.185  0.00  0.00    +0.000 A 
ATOM     17  C   UNL     1      49.823   4.084  17.812  0.00  0.00    +0.000 A 
ATOM     18  C   UNL     1      49.686   5.387  18.287  0.00  0.00    +0.000 A 
ATOM     19 CL   UNL     1      48.215   6.219  18.244  0.00  0.00    +0.000 Cl
ATOM     20  N   UNL     1      50.716   6.064  18.830  0.00  0.00    +0.000 NA
ATOM     21  C   UNL     1      51.890   5.432  18.902  0.00  0.00    +0.000 A 
ATOM     22  N   UNL     1      52.175   4.187  18.496  0.00  0.00    +0.000 NA
ATOM     23  C   UNL     1      51.109   3.566  17.965  0.00  0.00    +0.000 A 
ENDBRANCH  11  16
ENDBRANCH  10  11
ENDBRANCH   9  10
ENDBRANCH   1   9
BRANCH   5  24
ATOM     24  C   UNL     1      44.226   4.061   9.503  0.00  0.00    +0.000 C 
BRANCH  24  25
ATOM     25  C   UNL     1      44.528   3.846   8.012  0.00  0.00    +0.000 C 
BRANCH  25  26
ATOM     26  C   UNL     1      45.729   2.978   7.693  0.00  0.00    +0.000 A 
ATOM     27  C   UNL     1      45.842   1.653   8.126  0.00  0.00    +0.000 A 
ATOM     28  C   UNL     1      46.963   0.922   7.764  0.00  0.00    +0.000 A 
ATOM     29  N   UNL     1      47.962   1.405   6.999  0.00  0.00    +0.000 NA
ATOM     30  C   UNL     1      47.827   2.676   6.568  0.00  0.00    +0.000 A 
ATOM     31  C   UNL     1      46.747   3.488   6.880  0.00  0.00    +0.000 A 
ENDBRANCH  25  26
ENDBRANCH  24  25
ENDBRANCH   5  24
TORSDOF 7
ENDMDL
MODEL 2
REMARK VINA RESULT:    -8.053      2.427      3.445
REMARK INTER + INTRA:         -12.254
REMARK INTER:                 -11.225
REMARK INTRA:                  -1.029
REMARK UNBOUND:                -0.905
REMARK  Name = 
REMARK  8 active torsions:
REMARK  status: ('A' for Active; 'I' for Inactive)
REMARK    1  A    between atoms: C_1  and  N_2
REMARK    2  A    between atoms: C_4  and  C_5
REMARK    3  A    between atoms: C_5  and  O_7
REMARK    4  A    between atoms: O_7  and  C_8
REMARK    5  A    between atoms: C_8  and  C_9
REMARK    6  A    between atoms: N_13  and  C_14
REMARK    7  A    between atoms: C_14  and  C_15
REMARK    8  A    between atoms: C_15  and  C_16
REMARK                            x       y       z     vdW  Elec       q    Type
REMARK                         _______ _______ _______ _____ _____    ______ ____
ROOT
ATOM      1  C   UNL     1      46.541   7.635  12.423  0.00  0.00    +0.000 A 
ATOM      2  C   UNL     1      45.170   7.879  12.437  0.00  0.00    +0.000 A 
ATOM      3  C   UNL     1      44.318   7.056  11.703  0.00  0.00    +0.000 A 
ATOM      4  C   UNL     1      44.843   5.974  11.002  0.00  0.00    +0.000 A 
ATOM      5  N   UNL     1      43.940   5.123  10.345  0.00  0.00    +0.000 N 
ATOM      6  N   UNL     1      46.168   5.737  10.964  0.00  0.00    +0.000 NA
ATOM      7  C   UNL     1      46.985   6.574  11.645  0.00  0.00    +0.000 A 
ATOM      8  H   UNL     1      43.464   5.649   9.617  0.00  0.00    +0.000 HD
ENDROOT
BRANCH   1   9
ATOM      9  C   UNL     1      47.495   8.477  13.217  0.00  0.00    +0.000 C 
BRANCH   9  10
ATOM     10  O   UNL     1      47.728   7.893  14.504  0.00  0.00    +0.000 OA
BRANCH  10  11
ATOM     11  C   UNL     1      48.924   7.238  14.611  0.00  0.00    +0.000 C 
ATOM     12  O   UNL     1      49.785   7.277  13.743  0.00  0.00    +0.000 OA
BRANCH  11  16
ATOM     13  C   UNL     1      50.507   5.891  19.142  0.00  0.00    +0.000 C 
ATOM     14  N   UNL     1      49.777   5.904  17.895  0.00  0.00    +0.000 N 
ATOM     15  C   UNL     1      49.953   6.790  16.870  0.00  0.00    +0.000 A 
ATOM     16  C   UNL     1      49.048   6.486  15.856  0.00  0.00    +0.000 A 
ATOM     17  C   UNL     1      48.305   5.332  16.304  0.00  0.00    +0.000 A 
ATOM     18  C   UNL     1      47.293   4.479  15.864  0.00  0.00    +0.000 A 
ATOM     19 CL   UNL     1      46.571   4.637  14.343  0.00  0.00    +0.000 Cl
ATOM     20  N   UNL     1      46.838   3.460  16.616  0.00  0.00    +0.000 NA
ATOM     21  C   UNL     1      47.399   3.289  17.816  0.00  0.00    +0.000 A 
ATOM     22  N   UNL     1      48.377   4.017  18.371  0.00  0.00    +0.000 NA
ATOM     23  C   UNL     1      48.788   5.016  17.573  0.00  0.00    +0.000 A 
ENDBRANCH  11  16
ENDBRANCH  10  11
ENDBRANCH   9  10
ENDBRANCH   1   9
BRANCH   5  24
ATOM     24  C   UNL     1      44.514   3.863   9.872  0.00  0.00    +0.000 C 
BRANCH  24  25
ATOM     25  C   UNL     1      44.738   3.912   8.353  0.00  0.00    +0.000 C 
BRANCH  25  26
ATOM     26  C   UNL     1      45.850   3.035   7.815  0.00  0.00    +0.000 A 
ATOM     27  C   UNL     1      46.875   3.526   6.999  0.00  0.00    +0.000 A 
ATOM     28  C   UNL     1      47.869   2.658   6.574  0.00  0.00    +0.000 A 
ATOM     29  N   UNL     1      47.925   1.354   6.911  0.00  0.00    +0.000 NA
ATOM     30  C   UNL     1      46.944   0.901   7.719  0.00  0.00    +0.000 A 
ATOM     31  C   UNL     1      45.905   1.688   8.191  0.00  0.00    +0.000 A 
ENDBRANCH  25  26
ENDBRANCH  24  25
ENDBRANCH   5  24
TORSDOF 7
ENDMDL
MODEL 3
REMARK VINA RESULT:    -7.903      1.289      2.328
REMARK INTER + INTRA:         -12.042
REMARK INTER:                 -11.326
REMARK INTRA:                  -0.716
REMARK UNBOUND:                -0.905
REMARK  Name = 
REMARK  8 active torsions:
REMARK  status: ('A' for Active; 'I' for Inactive)
REMARK    1  A    between atoms: C_1  and  N_2
REMARK    2  A    between atoms: C_4  and  C_5
REMARK    3  A    between atoms: C_5  and  O_7
REMARK    4  A    between atoms: O_7  and  C_8
REMARK    5  A    between atoms: C_8  and  C_9
REMARK    6  A    between atoms: N_13  and  C_14
REMARK    7  A    between atoms: C_14  and  C_15
REMARK    8  A    between atoms: C_15  and  C_16
REMARK                            x       y       z     vdW  Elec       q    Type
REMARK                         _______ _______ _______ _____ _____    ______ ____
ROOT
ATOM      1  C   UNL     1      46.929   5.167  13.944  0.00  0.00    +0.000 A 
ATOM      2  C   UNL     1      46.861   6.388  13.276  0.00  0.00    +0.000 A 
ATOM      3  C   UNL     1      46.268   6.450  12.017  0.00  0.00    +0.000 A 
ATOM      4  C   UNL     1      45.711   5.301  11.462  0.00  0.00    +0.000 A 
ATOM      5  N   UNL     1      45.050   5.426  10.230  0.00  0.00    +0.000 N 
ATOM      6  N   UNL     1      45.786   4.111  12.087  0.00  0.00    +0.000 NA
ATOM      7  C   UNL     1      46.406   4.060  13.289  0.00  0.00    +0.000 A 
ATOM      8  H   UNL     1      45.725   5.710   9.523  0.00  0.00    +0.000 HD
ENDROOT
BRANCH   1   9
ATOM      9  C   UNL     1      47.535   5.055  15.311  0.00  0.00    +0.000 C 
BRANCH   9  10
ATOM     10  O   UNL     1      47.611   3.683  15.716  0.00  0.00    +0.000 OA
BRANCH  10  11
ATOM     11  C   UNL     1      47.440   3.487  17.058  0.00  0.00    +0.000 C 
ATOM     12  O   UNL     1      46.565   2.770  17.521  0.00  0.00    +0.000 OA
BRANCH  11  16
ATOM     13  C   UNL     1      49.311   6.934  20.136  0.00  0.00    +0.000 C 
ATOM     14  N   UNL     1      49.216   5.793  19.254  0.00  0.00    +0.000 N 
ATOM     15  C   UNL     1      48.093   5.376  18.597  0.00  0.00    +0.000 A 
ATOM     16  C   UNL     1      48.402   4.232  17.866  0.00  0.00    +0.000 A 
ATOM     17  C   UNL     1      49.805   3.971  18.088  0.00  0.00    +0.000 A 
ATOM     18  C   UNL     1      50.793   3.064  17.708  0.00  0.00    +0.000 A 
ATOM     19 CL   UNL     1      50.495   1.795  16.631  0.00  0.00    +0.000 Cl
ATOM     20  N   UNL     1      52.058   3.152  18.160  0.00  0.00    +0.000 NA
ATOM     21  C   UNL     1      52.338   4.155  18.997  0.00  0.00    +0.000 A 
ATOM     22  N   UNL     1      51.504   5.102  19.446  0.00  0.00    +0.000 NA
ATOM     23  C   UNL     1      50.260   4.960  18.959  0.00  0.00    +0.000 A 
ENDBRANCH  11  16
ENDBRANCH  10  11
ENDBRANCH   9  10
ENDBRANCH   1   9
BRANCH   5  24
ATOM     24  C   UNL     1      44.250   4.267   9.838  0.00  0.00    +0.000 C 
BRANCH  24  25
ATOM     25  C   UNL     1      44.371   4.016   8.327  0.00  0.00    +0.000 C 
BRANCH  25  26
ATOM     26  C   UNL     1      45.502   3.107   7.891  0.00  0.00    +0.000 A 
ATOM     27  C   UNL     1      46.556   3.545   7.081  0.00  0.00    +0.000 A 
ATOM     28  C   UNL     1      47.565   2.653   6.753  0.00  0.00    +0.000 A 
ATOM     29  N   UNL     1      47.608   1.375   7.179  0.00  0.00    +0.000 NA
ATOM     30  C   UNL     1      46.598   0.974   7.978  0.00  0.00    +0.000 A 
ATOM     31  C   UNL     1      45.543   1.789   8.359  0.00  0.00    +0.000 A 
ENDBRANCH  25  26
ENDBRANCH  24  25
ENDBRANCH   5  24
TORSDOF 7
ENDMDL
MODEL 4
REMARK VINA RESULT:    -7.592      2.625      3.627
REMARK INTER + INTRA:         -11.603
REMARK INTER:                 -10.406
REMARK INTRA:                  -1.197
REMARK UNBOUND:                -0.905
REMARK  Name = 
REMARK  8 active torsions:
REMARK  status: ('A' for Active; 'I' for Inactive)
REMARK    1  A    between atoms: C_1  and  N_2
REMARK    2  A    between atoms: C_4  and  C_5
REMARK    3  A    between atoms: C_5  and  O_7
REMARK    4  A    between atoms: O_7  and  C_8
REMARK    5  A    between atoms: C_8  and  C_9
REMARK    6  A    between atoms: N_13  and  C_14
REMARK    7  A    between atoms: C_14  and  C_15
REMARK    8  A    between atoms: C_15  and  C_16
REMARK                            x       y       z     vdW  Elec       q    Type
REMARK                         _______ _______ _______ _____ _____    ______ ____
ROOT
ATOM      1  C   UNL     1      47.026   6.059  13.075  0.00  0.00    +0.000 A 
ATOM      2  C   UNL     1      46.965   4.842  13.749  0.00  0.00    +0.000 A 
ATOM      3  C   UNL     1      46.113   3.842  13.285  0.00  0.00    +0.000 A 
ATOM      4  C   UNL     1      45.369   4.054  12.129  0.00  0.00    +0.000 A 
ATOM      5  N   UNL     1      44.588   2.990  11.650  0.00  0.00    +0.000 N 
ATOM      6  N   UNL     1      45.403   5.232  11.477  0.00  0.00    +0.000 NA
ATOM      7  C   UNL     1      46.201   6.209  11.968  0.00  0.00    +0.000 A 
ATOM      8  H   UNL     1      43.872   2.773  12.339  0.00  0.00    +0.000 HD
ENDROOT
BRANCH   1   9
ATOM      9  C   UNL     1      47.945   7.157  13.521  0.00  0.00    +0.000 C 
BRANCH   9  10
ATOM     10  O   UNL     1      49.235   6.628  13.854  0.00  0.00    +0.000 OA
BRANCH  10  11
ATOM     11  C   UNL     1      49.845   7.264  14.900  0.00  0.00    +0.000 C 
ATOM     12  O   UNL     1      50.790   8.025  14.757  0.00  0.00    +0.000 OA
BRANCH  11  16
ATOM     13  C   UNL     1      48.375   4.559  18.821  0.00  0.00    +0.000 C 
ATOM     14  N   UNL     1      48.606   5.683  17.943  0.00  0.00    +0.000 N 
ATOM     15  C   UNL     1      49.193   5.633  16.710  0.00  0.00    +0.000 A 
ATOM     16  C   UNL     1      49.254   6.923  16.191  0.00  0.00    +0.000 A 
ATOM     17  C   UNL     1      48.643   7.788  17.172  0.00  0.00    +0.000 A 
ATOM     18  C   UNL     1      48.332   9.134  17.361  0.00  0.00    +0.000 A 
ATOM     19 CL   UNL     1      48.659  10.313  16.193  0.00  0.00    +0.000 Cl
ATOM     20  N   UNL     1      47.733   9.582  18.480  0.00  0.00    +0.000 NA
ATOM     21  C   UNL     1      47.439   8.676  19.418  0.00  0.00    +0.000 A 
ATOM     22  N   UNL     1      47.667   7.357  19.380  0.00  0.00    +0.000 NA
ATOM     23  C   UNL     1      48.265   6.974  18.240  0.00  0.00    +0.000 A 
ENDBRANCH  11  16
ENDBRANCH  10  11
ENDBRANCH   9  10
ENDBRANCH   1   9
BRANCH   5  24
ATOM     24  C   UNL     1      44.061   3.171  10.298  0.00  0.00    +0.000 C 
BRANCH  24  25
ATOM     25  C   UNL     1      44.478   1.998   9.398  0.00  0.00    +0.000 C 
BRANCH  25  26
ATOM     26  C   UNL     1      45.598   2.278   8.416  0.00  0.00    +0.000 A 
ATOM     27  C   UNL     1      45.886   3.562   7.941  0.00  0.00    +0.000 A 
ATOM     28  C   UNL     1      46.948   3.733   7.066  0.00  0.00    +0.000 A 
ATOM     29  N   UNL     1      47.744   2.730   6.645  0.00  0.00    +0.000 NA
ATOM     30  C   UNL     1      47.470   1.502   7.130  0.00  0.00    +0.000 A 
ATOM     31  C   UNL     1      46.429   1.230   8.005  0.00  0.00    +0.000 A 
ENDBRANCH  25  26
ENDBRANCH  24  25
ENDBRANCH   5  24
TORSDOF 7
ENDMDL
MODEL 5
REMARK VINA RESULT:    -7.581      1.770      2.851
REMARK INTER + INTRA:         -11.589
REMARK INTER:                 -10.832
REMARK INTRA:                  -0.756
REMARK UNBOUND:                -0.905
REMARK  Name = 
REMARK  8 active torsions:
REMARK  status: ('A' for Active; 'I' for Inactive)
REMARK    1  A    between atoms: C_1  and  N_2
REMARK    2  A    between atoms: C_4  and  C_5
REMARK    3  A    between atoms: C_5  and  O_7
REMARK    4  A    between atoms: O_7  and  C_8
REMARK    5  A    between atoms: C_8  and  C_9
REMARK    6  A    between atoms: N_13  and  C_14
REMARK    7  A    between atoms: C_14  and  C_15
REMARK    8  A    between atoms: C_15  and  C_16
REMARK                            x       y       z     vdW  Elec       q    Type
REMARK                         _______ _______ _______ _____ _____    ______ ____
ROOT
ATOM      1  C   UNL     1      47.987   6.555  14.309  0.00  0.00    +0.000 A 
ATOM      2  C   UNL     1      48.046   7.420  13.219  0.00  0.00    +0.000 A 
ATOM      3  C   UNL     1      47.329   7.120  12.063  0.00  0.00    +0.000 A 
ATOM      4  C   UNL     1      46.527   5.983  12.028  0.00  0.00    +0.000 A 
ATOM      5  N   UNL     1      45.757   5.763  10.875  0.00  0.00    +0.000 N 
ATOM      6  N   UNL     1      46.474   5.127  13.066  0.00  0.00    +0.000 NA
ATOM      7  C   UNL     1      47.213   5.411  14.165  0.00  0.00    +0.000 A 
ATOM      8  H   UNL     1      46.382   5.618  10.085  0.00  0.00    +0.000 HD
ENDROOT
BRANCH   1   9
ATOM      9  C   UNL     1      48.721   6.849  15.583  0.00  0.00    +0.000 C 
BRANCH   9  10
ATOM     10  O   UNL     1      49.590   5.762  15.924  0.00  0.00    +0.000 OA
BRANCH  10  11
ATOM     11  C   UNL     1      49.663   5.506  17.266  0.00  0.00    +0.000 C 
ATOM     12  O   UNL     1      48.797   5.851  18.058  0.00  0.00    +0.000 OA
BRANCH  11  16
ATOM     13  C   UNL     1      54.267   4.673  18.986  0.00  0.00    +0.000 C 
ATOM     14  N   UNL     1      52.955   4.450  18.423  0.00  0.00    +0.000 N 
ATOM     15  C   UNL     1      52.021   5.411  18.156  0.00  0.00    +0.000 A 
ATOM     16  C   UNL     1      50.882   4.797  17.641  0.00  0.00    +0.000 A 
ATOM     17  C   UNL     1      51.172   3.383  17.580  0.00  0.00    +0.000 A 
ATOM     18  C   UNL     1      50.571   2.188  17.187  0.00  0.00    +0.000 A 
ATOM     19 CL   UNL     1      49.020   2.130  16.515  0.00  0.00    +0.000 Cl
ATOM     20  N   UNL     1      51.196   1.001  17.299  0.00  0.00    +0.000 NA
ATOM     21  C   UNL     1      52.432   1.008  17.806  0.00  0.00    +0.000 A 
ATOM     22  N   UNL     1      53.139   2.068  18.220  0.00  0.00    +0.000 NA
ATOM     23  C   UNL     1      52.463   3.220  18.082  0.00  0.00    +0.000 A 
ENDBRANCH  11  16
ENDBRANCH  10  11
ENDBRANCH   9  10
ENDBRANCH   1   9
BRANCH   5  24
ATOM     24  C   UNL     1      44.734   4.726  11.005  0.00  0.00    +0.000 C 
BRANCH  24  25
ATOM     25  C   UNL     1      44.212   4.310   9.621  0.00  0.00    +0.000 C 
BRANCH  25  26
ATOM     26  C   UNL     1      45.150   3.469   8.780  0.00  0.00    +0.000 A 
ATOM     27  C   UNL     1      45.980   4.015   7.794  0.00  0.00    +0.000 A 
ATOM     28  C   UNL     1      46.830   3.175   7.091  0.00  0.00    +0.000 A 
ATOM     29  N   UNL     1      46.923   1.848   7.304  0.00  0.00    +0.000 NA
ATOM     30  C   UNL     1      46.135   1.339   8.274  0.00  0.00    +0.000 A 
ATOM     31  C   UNL     1      45.251   2.096   9.028  0.00  0.00    +0.000 A 
ENDBRANCH  25  26
ENDBRANCH  24  25
ENDBRANCH   5  24
TORSDOF 7
ENDMDL
MODEL 6
REMARK VINA RESULT:    -7.436      2.353      3.240
REMARK INTER + INTRA:         -11.384
REMARK INTER:                 -10.530
REMARK INTRA:                  -0.854
REMARK UNBOUND:                -0.905
REMARK  Name = 
REMARK  8 active torsions:
REMARK  status: ('A' for Active; 'I' for Inactive)
REMARK    1  A    between atoms: C_1  and  N_2
REMARK    2  A    between atoms: C_4  and  C_5
REMARK    3  A    between atoms: C_5  and  O_7
REMARK    4  A    between atoms: O_7  and  C_8
REMARK    5  A    between atoms: C_8  and  C_9
REMARK    6  A    between atoms: N_13  and  C_14
REMARK    7  A    between atoms: C_14  and  C_15
REMARK    8  A    between atoms: C_15  and  C_16
REMARK                            x       y       z     vdW  Elec       q    Type
REMARK                         _______ _______ _______ _____ _____    ______ ____
ROOT
ATOM      1  C   UNL     1      46.845   4.819  14.148  0.00  0.00    +0.000 A 
ATOM      2  C   UNL     1      46.922   6.063  13.527  0.00  0.00    +0.000 A 
ATOM      3  C   UNL     1      46.381   6.230  12.254  0.00  0.00    +0.000 A 
ATOM      4  C   UNL     1      45.730   5.165  11.639  0.00  0.00    +0.000 A 
ATOM      5  N   UNL     1      45.126   5.401  10.393  0.00  0.00    +0.000 N 
ATOM      6  N   UNL     1      45.663   3.951  12.219  0.00  0.00    +0.000 NA
ATOM      7  C   UNL     1      46.234   3.794  13.436  0.00  0.00    +0.000 A 
ATOM      8  H   UNL     1      45.849   5.639   9.718  0.00  0.00    +0.000 HD
ENDROOT
BRANCH   1   9
ATOM      9  C   UNL     1      47.390   4.596  15.528  0.00  0.00    +0.000 C 
BRANCH   9  10
ATOM     10  O   UNL     1      48.532   5.430  15.757  0.00  0.00    +0.000 OA
BRANCH  10  11
ATOM     11  C   UNL     1      49.201   5.152  16.917  0.00  0.00    +0.000 C 
ATOM     12  O   UNL     1      50.171   4.411  16.966  0.00  0.00    +0.000 OA
BRANCH  11  16
ATOM     13  C   UNL     1      47.393   5.862  21.509  0.00  0.00    +0.000 C 
ATOM     14  N   UNL     1      47.816   6.114  20.150  0.00  0.00    +0.000 N 
ATOM     15  C   UNL     1      48.309   5.186  19.277  0.00  0.00    +0.000 A 
ATOM     16  C   UNL     1      48.622   5.823  18.078  0.00  0.00    +0.000 A 
ATOM     17  C   UNL     1      48.271   7.213  18.249  0.00  0.00    +0.000 A 
ATOM     18  C   UNL     1      48.275   8.409  17.533  0.00  0.00    +0.000 A 
ATOM     19 CL   UNL     1      48.787   8.502  15.925  0.00  0.00    +0.000 Cl
ATOM     20  N   UNL     1      47.852   9.568  18.072  0.00  0.00    +0.000 NA
ATOM     21  C   UNL     1      47.419   9.531  19.335  0.00  0.00    +0.000 A 
ATOM     22  N   UNL     1      47.350   8.466  20.144  0.00  0.00    +0.000 NA
ATOM     23  C   UNL     1      47.784   7.343  19.550  0.00  0.00    +0.000 A 
ENDBRANCH  11  16
ENDBRANCH  10  11
ENDBRANCH   9  10
ENDBRANCH   1   9
BRANCH   5  24
ATOM     24  C   UNL     1      44.226   4.344   9.933  0.00  0.00    +0.000 C 
BRANCH  24  25
ATOM     25  C   UNL     1      44.410   4.099   8.428  0.00  0.00    +0.000 C 
BRANCH  25  26
ATOM     26  C   UNL     1      45.527   3.152   8.038  0.00  0.00    +0.000 A 
ATOM     27  C   UNL     1      45.545   1.806   8.418  0.00  0.00    +0.000 A 
ATOM     28  C   UNL     1      46.592   1.002   7.993  0.00  0.00    +0.000 A 
ATOM     29  N   UNL     1      47.604   1.434   7.214  0.00  0.00    +0.000 NA
ATOM     30  C   UNL     1      47.560   2.728   6.835  0.00  0.00    +0.000 A 
ATOM     31  C   UNL     1      46.559   3.610   7.211  0.00  0.00    +0.000 A 
ENDBRANCH  25  26
ENDBRANCH  24  25
ENDBRANCH   5  24
TORSDOF 7
ENDMDL
MODEL 7
REMARK VINA RESULT:    -7.395      2.683      3.726
REMARK INTER + INTRA:         -11.326
REMARK INTER:                 -10.224
REMARK INTRA:                  -1.102
REMARK UNBOUND:                -0.905
REMARK  Name = 
REMARK  8 active torsions:
REMARK  status: ('A' for Active; 'I' for Inactive)
REMARK    1  A    between atoms: C_1  and  N_2
REMARK    2  A    between atoms: C_4  and  C_5
REMARK    3  A    between atoms: C_5  and  O_7
REMARK    4  A    between atoms: O_7  and  C_8
REMARK    5  A    between atoms: C_8  and  C_9
REMARK    6  A    between atoms: N_13  and  C_14
REMARK    7  A    between atoms: C_14  and  C_15
REMARK    8  A    between atoms: C_15  and  C_16
REMARK                            x       y       z     vdW  Elec       q    Type
REMARK                         _______ _______ _______ _____ _____    ______ ____
ROOT
ATOM      1  C   UNL     1      45.652   6.568  12.553  0.00  0.00    +0.000 A 
ATOM      2  C   UNL     1      45.118   5.514  13.291  0.00  0.00    +0.000 A 
ATOM      3  C   UNL     1      44.568   4.420  12.627  0.00  0.00    +0.000 A 
ATOM      4  C   UNL     1      44.599   4.372  11.237  0.00  0.00    +0.000 A 
ATOM      5  N   UNL     1      44.110   3.214  10.612  0.00  0.00    +0.000 N 
ATOM      6  N   UNL     1      45.095   5.391  10.509  0.00  0.00    +0.000 NA
ATOM      7  C   UNL     1      45.584   6.467  11.169  0.00  0.00    +0.000 A 
ATOM      8  H   UNL     1      43.117   3.126  10.815  0.00  0.00    +0.000 HD
ENDROOT
BRANCH   1   9
ATOM      9  C   UNL     1      46.278   7.755  13.221  0.00  0.00    +0.000 C 
BRANCH   9  10
ATOM     10  O   UNL     1      47.679   7.818  12.926  0.00  0.00    +0.000 OA
BRANCH  10  11
ATOM     11  C   UNL     1      48.418   6.830  13.517  0.00  0.00    +0.000 C 
ATOM     12  O   UNL     1      48.799   5.834  12.919  0.00  0.00    +0.000 OA
BRANCH  11  16
ATOM     13  C   UNL     1      49.834   9.210  17.662  0.00  0.00    +0.000 C 
ATOM     14  N   UNL     1      49.327   8.187  16.777  0.00  0.00    +0.000 N 
ATOM     15  C   UNL     1      49.247   8.269  15.415  0.00  0.00    +0.000 A 
ATOM     16  C   UNL     1      48.685   7.092  14.928  0.00  0.00    +0.000 A 
ATOM     17  C   UNL     1      48.437   6.252  16.076  0.00  0.00    +0.000 A 
ATOM     18  C   UNL     1      47.933   4.988  16.383  0.00  0.00    +0.000 A 
ATOM     19 CL   UNL     1      47.408   3.907  15.194  0.00  0.00    +0.000 Cl
ATOM     20  N   UNL     1      47.850   4.538  17.649  0.00  0.00    +0.000 NA
ATOM     21  C   UNL     1      48.277   5.356  18.616  0.00  0.00    +0.000 A 
ATOM     22  N   UNL     1      48.787   6.586  18.479  0.00  0.00    +0.000 NA
ATOM     23  C   UNL     1      48.844   6.977  17.195  0.00  0.00    +0.000 A 
ENDBRANCH  11  16
ENDBRANCH  10  11
ENDBRANCH   9  10
ENDBRANCH   1   9
BRANCH   5  24
ATOM     24  C   UNL     1      44.425   3.100   9.189  0.00  0.00    +0.000 C 
BRANCH  24  25
ATOM     25  C   UNL     1      45.435   1.967   8.952  0.00  0.00    +0.000 C 
BRANCH  25  26
ATOM     26  C   UNL     1      46.248   2.054   7.675  0.00  0.00    +0.000 A 
ATOM     27  C   UNL     1      47.050   1.005   7.215  0.00  0.00    +0.000 A 
ATOM     28  C   UNL     1      47.738   1.160   6.021  0.00  0.00    +0.000 A 
ATOM     29  N   UNL     1      47.674   2.266   5.253  0.00  0.00    +0.000 NA
ATOM     30  C   UNL     1      46.877   3.260   5.698  0.00  0.00    +0.000 A 
ATOM     31  C   UNL     1      46.154   3.201   6.879  0.00  0.00    +0.000 A 
ENDBRANCH  25  26
ENDBRANCH  24  25
ENDBRANCH   5  24
TORSDOF 7
ENDMDL
MODEL 8
REMARK VINA RESULT:    -7.332      2.536      3.870
REMARK INTER + INTRA:         -11.237
REMARK INTER:                 -10.228
REMARK INTRA:                  -1.009
REMARK UNBOUND:                -0.905
REMARK  Name = 
REMARK  8 active torsions:
REMARK  status: ('A' for Active; 'I' for Inactive)
REMARK    1  A    between atoms: C_1  and  N_2
REMARK    2  A    between atoms: C_4  and  C_5
REMARK    3  A    between atoms: C_5  and  O_7
REMARK    4  A    between atoms: O_7  and  C_8
REMARK    5  A    between atoms: C_8  and  C_9
REMARK    6  A    between atoms: N_13  and  C_14
REMARK    7  A    between atoms: C_14  and  C_15
REMARK    8  A    between atoms: C_15  and  C_16
REMARK                            x       y       z     vdW  Elec       q    Type
REMARK                         _______ _______ _______ _____ _____    ______ ____
ROOT
ATOM      1  C   UNL     1      47.272   5.952  12.967  0.00  0.00    +0.000 A 
ATOM      2  C   UNL     1      47.045   4.798  13.714  0.00  0.00    +0.000 A 
ATOM      3  C   UNL     1      46.100   3.872  13.277  0.00  0.00    +0.000 A 
ATOM      4  C   UNL     1      45.428   4.090  12.078  0.00  0.00    +0.000 A 
ATOM      5  N   UNL     1      44.546   3.091  11.634  0.00  0.00    +0.000 N 
ATOM      6  N   UNL     1      45.623   5.209  11.355  0.00  0.00    +0.000 NA
ATOM      7  C   UNL     1      46.511   6.120  11.817  0.00  0.00    +0.000 A 
ATOM      8  H   UNL     1      43.785   3.005  12.303  0.00  0.00    +0.000 HD
ENDROOT
BRANCH   1   9
ATOM      9  C   UNL     1      48.297   6.965  13.383  0.00  0.00    +0.000 C 
BRANCH   9  10
ATOM     10  O   UNL     1      48.035   7.428  14.713  0.00  0.00    +0.000 OA
BRANCH  10  11
ATOM     11  C   UNL     1      49.045   7.175  15.600  0.00  0.00    +0.000 C 
ATOM     12  O   UNL     1      50.134   6.735  15.262  0.00  0.00    +0.000 OA
BRANCH  11  16
ATOM     13  C   UNL     1      47.624   9.753  19.624  0.00  0.00    +0.000 C 
ATOM     14  N   UNL     1      48.031   8.658  18.773  0.00  0.00    +0.000 N 
ATOM     15  C   UNL     1      48.358   8.747  17.449  0.00  0.00    +0.000 A 
ATOM     16  C   UNL     1      48.673   7.475  16.980  0.00  0.00    +0.000 A 
ATOM     17  C   UNL     1      48.545   6.580  18.106  0.00  0.00    +0.000 A 
ATOM     18  C   UNL     1      48.700   5.230  18.418  0.00  0.00    +0.000 A 
ATOM     19 CL   UNL     1      49.218   4.090  17.282  0.00  0.00    +0.000 Cl
ATOM     20  N   UNL     1      48.464   4.748  19.653  0.00  0.00    +0.000 NA
ATOM     21  C   UNL     1      48.074   5.623  20.584  0.00  0.00    +0.000 A 
ATOM     22  N   UNL     1      47.888   6.941  20.440  0.00  0.00    +0.000 NA
ATOM     23  C   UNL     1      48.139   7.360  19.189  0.00  0.00    +0.000 A 
ENDBRANCH  11  16
ENDBRANCH  10  11
ENDBRANCH   9  10
ENDBRANCH   1   9
BRANCH   5  24
ATOM     24  C   UNL     1      44.092   3.239  10.251  0.00  0.00    +0.000 C 
BRANCH  24  25
ATOM     25  C   UNL     1      44.518   2.023   9.414  0.00  0.00    +0.000 C 
BRANCH  25  26
ATOM     26  C   UNL     1      45.626   2.261   8.408  0.00  0.00    +0.000 A 
ATOM     27  C   UNL     1      45.920   3.527   7.891  0.00  0.00    +0.000 A 
ATOM     28  C   UNL     1      46.972   3.659   6.996  0.00  0.00    +0.000 A 
ATOM     29  N   UNL     1      47.751   2.636   6.595  0.00  0.00    +0.000 NA
ATOM     30  C   UNL     1      47.471   1.426   7.121  0.00  0.00    +0.000 A 
ATOM     31  C   UNL     1      46.440   1.192   8.018  0.00  0.00    +0.000 A 
ENDBRANCH  25  26
ENDBRANCH  24  25
ENDBRANCH   5  24
TORSDOF 7
ENDMDL
MODEL 9
REMARK VINA RESULT:    -6.609      2.528      3.532
REMARK INTER + INTRA:         -10.218
REMARK INTER:                  -9.045
REMARK INTRA:                  -1.173
REMARK UNBOUND:                -0.905
REMARK  Name = 
REMARK  8 active torsions:
REMARK  status: ('A' for Active; 'I' for Inactive)
REMARK    1  A    between atoms: C_1  and  N_2
REMARK    2  A    between atoms: C_4  and  C_5
REMARK    3  A    between atoms: C_5  and  O_7
REMARK    4  A    between atoms: O_7  and  C_8
REMARK    5  A    between atoms: C_8  and  C_9
REMARK    6  A    between atoms: N_13  and  C_14
REMARK    7  A    between atoms: C_14  and  C_15
REMARK    8  A    between atoms: C_15  and  C_16
REMARK                            x       y       z     vdW  Elec       q    Type
REMARK                         _______ _______ _______ _____ _____    ______ ____
ROOT
ATOM      1  C   UNL     1      47.350   6.664  13.449  0.00  0.00    +0.000 A 
ATOM      2  C   UNL     1      47.672   5.390  13.911  0.00  0.00    +0.000 A 
ATOM      3  C   UNL     1      46.744   4.359  13.787  0.00  0.00    +0.000 A 
ATOM      4  C   UNL     1      45.525   4.603  13.161  0.00  0.00    +0.000 A 
ATOM      5  N   UNL     1      44.654   3.516  12.982  0.00  0.00    +0.000 N 
ATOM      6  N   UNL     1      45.192   5.833  12.726  0.00  0.00    +0.000 NA
ATOM      7  C   UNL     1      46.087   6.834  12.896  0.00  0.00    +0.000 A 
ATOM      8  H   UNL     1      44.370   3.170  13.895  0.00  0.00    +0.000 HD
ENDROOT
BRANCH   1   9
ATOM      9  C   UNL     1      48.325   7.800  13.537  0.00  0.00    +0.000 C 
BRANCH   9  10
ATOM     10  O   UNL     1      49.552   7.363  14.135  0.00  0.00    +0.000 OA
BRANCH  10  11
ATOM     11  C   UNL     1      49.777   7.873  15.384  0.00  0.00    +0.000 C 
ATOM     12  O   UNL     1      49.855   9.072  15.610  0.00  0.00    +0.000 OA
BRANCH  11  16
ATOM     13  C   UNL     1      48.583   4.545  18.897  0.00  0.00    +0.000 C 
ATOM     14  N   UNL     1      49.357   5.344  17.976  0.00  0.00    +0.000 N 
ATOM     15  C   UNL     1      48.869   6.311  17.144  0.00  0.00    +0.000 A 
ATOM     16  C   UNL     1      49.923   6.836  16.400  0.00  0.00    +0.000 A 
ATOM     17  C   UNL     1      51.115   6.148  16.838  0.00  0.00    +0.000 A 
ATOM     18  C   UNL     1      52.486   6.129  16.591  0.00  0.00    +0.000 A 
ATOM     19 CL   UNL     1      53.223   7.173  15.483  0.00  0.00    +0.000 Cl
ATOM     20  N   UNL     1      53.319   5.289  17.234  0.00  0.00    +0.000 NA
ATOM     21  C   UNL     1      52.777   4.463  18.134  0.00  0.00    +0.000 A 
ATOM     22  N   UNL     1      51.488   4.368  18.483  0.00  0.00    +0.000 NA
ATOM     23  C   UNL     1      50.710   5.230  17.808  0.00  0.00    +0.000 A 
ENDBRANCH  11  16
ENDBRANCH  10  11
ENDBRANCH   9  10
ENDBRANCH   1   9
BRANCH   5  24
ATOM     24  C   UNL     1      43.531   3.768  12.080  0.00  0.00    +0.000 C 
BRANCH  24  25
ATOM     25  C   UNL     1      43.540   2.762  10.919  0.00  0.00    +0.000 C 
BRANCH  25  26
ATOM     26  C   UNL     1      44.498   3.062   9.784  0.00  0.00    +0.000 A 
ATOM     27  C   UNL     1      44.877   4.363   9.437  0.00  0.00    +0.000 A 
ATOM     28  C   UNL     1      45.782   4.545   8.402  0.00  0.00    +0.000 A 
ATOM     29  N   UNL     1      46.342   3.536   7.705  0.00  0.00    +0.000 NA
ATOM     30  C   UNL     1      45.985   2.287   8.067  0.00  0.00    +0.000 A 
ATOM     31  C   UNL     1      45.086   2.003   9.084  0.00  0.00    +0.000 A 
ENDBRANCH  25  26
ENDBRANCH  24  25
ENDBRANCH   5  24
TORSDOF 7
ENDMDL
