MODEL 1
REMARK VINA RESULT:    -7.940      0.000      0.000
REMARK INTER + INTRA:         -10.613
REMARK INTER:                 -10.029
REMARK INTRA:                  -0.584
REMARK UNBOUND:                -0.584
REMARK  Name = 
REMARK  5 active torsions:
REMARK  status: ('A' for Active; 'I' for Inactive)
REMARK    1  A    between atoms: C_2  and  O_3
REMARK    2  A    between atoms: C_2  and  C_4
REMARK    3  A    between atoms: N_8  and  C_9
REMARK    4  A    between atoms: C_9  and  C_10
REMARK    5  A    between atoms: C_14  and  N_15
REMARK                            x       y       z     vdW  Elec       q    Type
REMARK                         _______ _______ _______ _____ _____    ______ ____
ROOT
ATOM      1  C   UNL     1      44.129   3.365  10.521  0.00  0.00    +0.000 C 
ENDROOT
BRANCH   1   6
ATOM      2  C   UNL     1      46.924   1.949   6.440  0.00  0.00    +0.000 A 
ATOM      3  C   UNL     1      46.394   3.185   6.786  0.00  0.00    +0.000 A 
ATOM      4  C   UNL     1      45.687   3.304   7.981  0.00  0.00    +0.000 A 
ATOM      5  C   UNL     1      45.503   2.191   8.792  0.00  0.00    +0.000 A 
ATOM      6  N   UNL     1      44.815   2.224   9.973  0.00  0.00    +0.000 N 
ATOM      7  N   UNL     1      45.994   0.985   8.449  0.00  0.00    +0.000 NA
ATOM      8  C   UNL     1      46.683   0.882   7.282  0.00  0.00    +0.000 A 
ATOM      9  H   UNL     1      44.780   1.336  10.456  0.00  0.00    +0.000 HD
BRANCH   2  11
ATOM     10  O   UNL     1      47.678   0.696   4.579  0.00  0.00    +0.000 OA
ATOM     11  C   UNL     1      47.695   1.745   5.202  0.00  0.00    +0.000 C 
BRANCH  11  12
ATOM     12  O   UNL     1      48.436   2.812   4.846  0.00  0.00    +0.000 OA
ATOM     13  H   UNL     1      49.371   2.779   5.121  0.00  0.00    +0.000 HD
ENDBRANCH  11  12
ENDBRANCH   2  11
ENDBRANCH   1   6
BRANCH   1  14
ATOM     14  C   UNL     1      44.942   4.087  11.559  0.00  0.00    +0.000 A 
ATOM     15  C   UNL     1      45.360   3.495  12.743  0.00  0.00    +0.000 A 
ATOM     16  N   UNL     1      46.012   4.151  13.728  0.00  0.00    +0.000 NA
ATOM     17  C   UNL     1      46.233   5.474  13.531  0.00  0.00    +0.000 A 
ATOM     18  C   UNL     1      45.856   6.194  12.399  0.00  0.00    +0.000 A 
ATOM     19  C   UNL     1      45.210   5.454  11.404  0.00  0.00    +0.000 A 
BRANCH  18  20
ATOM     20  N   UNL     1      45.983   7.562  12.251  0.00  0.00    +0.000 N 
ATOM     21  C   UNL     1      47.308   8.180  12.096  0.00  0.00    +0.000 C 
ATOM     22  C   UNL     1      47.222   9.613  12.647  0.00  0.00    +0.000 C 
ATOM     23  O   UNL     1      46.217  10.378  11.956  0.00  0.00    +0.000 OA
ATOM     24  C   UNL     1      44.922   9.760  12.095  0.00  0.00    +0.000 C 
ATOM     25  C   UNL     1      44.919   8.315  11.565  0.00  0.00    +0.000 C 
ENDBRANCH  18  20
ENDBRANCH   1  14
TORSDOF 5
ENDMDL
MODEL 2
REMARK VINA RESULT:    -7.846      1.609      1.954
REMARK INTER + INTRA:         -10.494
REMARK INTER:                  -9.916
REMARK INTRA:                  -0.578
REMARK UNBOUND:                -0.584
REMARK  Name = 
REMARK  5 active torsions:
REMARK  status: ('A' for Active; 'I' for Inactive)
REMARK    1  A    between atoms: C_2  and  O_3
REMARK    2  A    between atoms: C_2  and  C_4
REMARK    3  A    between atoms: N_8  and  C_9
REMARK    4  A    between atoms: C_9  and  C_10
REMARK    5  A    between atoms: C_14  and  N_15
REMARK                            x       y       z     vdW  Elec       q    Type
REMARK                         _______ _______ _______ _____ _____    ______ ____
ROOT
ATOM      1  C   UNL     1      44.172   4.531  10.554  0.00  0.00    +0.000 C 
ENDROOT
BRANCH   1   6
ATOM      2  C   UNL     1      46.787   2.089   6.856  0.00  0.00    +0.000 A 
ATOM      3  C   UNL     1      46.233   1.610   8.037  0.00  0.00    +0.000 A 
ATOM      4  C   UNL     1      45.541   2.494   8.862  0.00  0.00    +0.000 A 
ATOM      5  C   UNL     1      45.434   3.834   8.509  0.00  0.00    +0.000 A 
ATOM      6  N   UNL     1      44.780   4.763   9.269  0.00  0.00    +0.000 N 
ATOM      7  N   UNL     1      45.989   4.307   7.378  0.00  0.00    +0.000 NA
ATOM      8  C   UNL     1      46.661   3.436   6.580  0.00  0.00    +0.000 A 
ATOM      9  H   UNL     1      44.775   5.694   8.871  0.00  0.00    +0.000 HD
BRANCH   2  11
ATOM     10  O   UNL     1      47.146   0.089   5.642  0.00  0.00    +0.000 OA
ATOM     11  C   UNL     1      47.520   1.216   5.925  0.00  0.00    +0.000 C 
BRANCH  11  12
ATOM     12  O   UNL     1      48.650   1.769   5.442  0.00  0.00    +0.000 OA
ATOM     13  H   UNL     1      48.743   1.746   4.473  0.00  0.00    +0.000 HD
ENDBRANCH  11  12
ENDBRANCH   2  11
ENDBRANCH   1   6
BRANCH   1  14
ATOM     14  C   UNL     1      45.171   4.537  11.677  0.00  0.00    +0.000 A 
ATOM     15  C   UNL     1      45.327   3.477  12.560  0.00  0.00    +0.000 A 
ATOM     16  N   UNL     1      46.154   3.498  13.629  0.00  0.00    +0.000 NA
ATOM     17  C   UNL     1      46.838   4.649  13.843  0.00  0.00    +0.000 A 
ATOM     18  C   UNL     1      46.765   5.789  13.045  0.00  0.00    +0.000 A 
ATOM     19  C   UNL     1      45.915   5.696  11.939  0.00  0.00    +0.000 A 
BRANCH  18  20
ATOM     20  N   UNL     1      47.377   6.995  13.329  0.00  0.00    +0.000 N 
ATOM     21  C   UNL     1      48.535   7.054  14.233  0.00  0.00    +0.000 C 
ATOM     22  C   UNL     1      48.543   8.444  14.891  0.00  0.00    +0.000 C 
ATOM     23  O   UNL     1      48.611   9.489  13.903  0.00  0.00    +0.000 OA
ATOM     24  C   UNL     1      47.484   9.417  13.008  0.00  0.00    +0.000 C 
ATOM     25  C   UNL     1      47.400   8.051  12.303  0.00  0.00    +0.000 C 
ENDBRANCH  18  20
ENDBRANCH   1  14
TORSDOF 5
ENDMDL
MODEL 3
REMARK VINA RESULT:    -7.813      2.169      3.277
REMARK INTER + INTRA:         -10.453
REMARK INTER:                  -9.858
REMARK INTRA:                  -0.595
REMARK UNBOUND:                -0.584
REMARK  Name = 
REMARK  5 active torsions:
REMARK  status: ('A' for Active; 'I' for Inactive)
REMARK    1  A    between atoms: C_2  and  O_3
REMARK    2  A    between atoms: C_2  and  C_4
REMARK    3  A    between atoms: N_8  and  C_9
REMARK    4  A    between atoms: C_9  and  C_10
REMARK    5  A    between atoms: C_14  and  N_15
REMARK                            x       y       z     vdW  Elec       q    Type
REMARK                         _______ _______ _______ _____ _____    ______ ____
ROOT
ATOM      1  C   UNL     1      43.518   4.041  10.871  0.00  0.00    +0.000 C 
ENDROOT
BRANCH   1   6
ATOM      2  C   UNL     1      46.617   2.565   7.038  0.00  0.00    +0.000 A 
ATOM      3  C   UNL     1      45.952   3.766   7.250  0.00  0.00    +0.000 A 
ATOM      4  C   UNL     1      45.184   3.916   8.403  0.00  0.00    +0.000 A 
ATOM      5  C   UNL     1      45.077   2.866   9.307  0.00  0.00    +0.000 A 
ATOM      6  N   UNL     1      44.338   2.932  10.455  0.00  0.00    +0.000 N 
ATOM      7  N   UNL     1      45.700   1.692   9.094  0.00  0.00    +0.000 NA
ATOM      8  C   UNL     1      46.446   1.557   7.966  0.00  0.00    +0.000 A 
ATOM      9  H   UNL     1      44.371   2.092  11.017  0.00  0.00    +0.000 HD
BRANCH   2  11
ATOM     10  O   UNL     1      46.997   2.003   4.771  0.00  0.00    +0.000 OA
ATOM     11  C   UNL     1      47.458   2.333   5.852  0.00  0.00    +0.000 C 
BRANCH  11  12
ATOM     12  O   UNL     1      48.775   2.491   6.084  0.00  0.00    +0.000 OA
ATOM     13  H   UNL     1      49.043   3.384   6.369  0.00  0.00    +0.000 HD
ENDBRANCH  11  12
ENDBRANCH   2  11
ENDBRANCH   1   6
BRANCH   1  14
ATOM     14  C   UNL     1      44.311   5.130  11.538  0.00  0.00    +0.000 A 
ATOM     15  C   UNL     1      44.360   6.433  11.062  0.00  0.00    +0.000 A 
ATOM     16  N   UNL     1      45.137   7.404  11.593  0.00  0.00    +0.000 NA
ATOM     17  C   UNL     1      45.926   7.045  12.635  0.00  0.00    +0.000 A 
ATOM     18  C   UNL     1      45.984   5.773  13.202  0.00  0.00    +0.000 A 
ATOM     19  C   UNL     1      45.138   4.820  12.627  0.00  0.00    +0.000 A 
BRANCH  18  20
ATOM     20  N   UNL     1      46.870   5.384  14.188  0.00  0.00    +0.000 N 
ATOM     21  C   UNL     1      47.041   3.963  14.524  0.00  0.00    +0.000 C 
ATOM     22  C   UNL     1      47.471   3.880  15.999  0.00  0.00    +0.000 C 
ATOM     23  O   UNL     1      48.691   4.610  16.227  0.00  0.00    +0.000 OA
ATOM     24  C   UNL     1      48.525   6.000  15.880  0.00  0.00    +0.000 C 
ATOM     25  C   UNL     1      48.092   6.174  14.413  0.00  0.00    +0.000 C 
ENDBRANCH  18  20
ENDBRANCH   1  14
TORSDOF 5
ENDMDL
MODEL 4
REMARK VINA RESULT:    -6.689      4.338      8.854
REMARK INTER + INTRA:          -9.033
REMARK INTER:                  -8.655
REMARK INTRA:                  -0.377
REMARK UNBOUND:                -0.584
REMARK  Name = 
REMARK  5 active torsions:
REMARK  status: ('A' for Active; 'I' for Inactive)
REMARK    1  A    between atoms: C_2  and  O_3
REMARK    2  A    between atoms: C_2  and  C_4
REMARK    3  A    between atoms: N_8  and  C_9
REMARK    4  A    between atoms: C_9  and  C_10
REMARK    5  A    between atoms: C_14  and  N_15
REMARK                            x       y       z     vdW  Elec       q    Type
REMARK                         _______ _______ _______ _____ _____    ______ ____
ROOT
ATOM      1  C   UNL     1      46.463   5.076  13.796  0.00  0.00    +0.000 C 
ENDROOT
BRANCH   1   6
ATOM      2  C   UNL     1      48.463   4.376  18.484  0.00  0.00    +0.000 A 
ATOM      3  C   UNL     1      48.640   5.409  17.572  0.00  0.00    +0.000 A 
ATOM      4  C   UNL     1      47.947   5.366  16.364  0.00  0.00    +0.000 A 
ATOM      5  C   UNL     1      47.114   4.290  16.079  0.00  0.00    +0.000 A 
ATOM      6  N   UNL     1      46.409   4.171  14.915  0.00  0.00    +0.000 N 
ATOM      7  N   UNL     1      46.958   3.275  16.950  0.00  0.00    +0.000 NA
ATOM      8  C   UNL     1      47.638   3.329  18.126  0.00  0.00    +0.000 A 
ATOM      9  H   UNL     1      45.835   3.339  14.862  0.00  0.00    +0.000 HD
BRANCH   2  11
ATOM     10  O   UNL     1      50.267   4.813  19.952  0.00  0.00    +0.000 OA
ATOM     11  C   UNL     1      49.148   4.356  19.787  0.00  0.00    +0.000 C 
BRANCH  11  12
ATOM     12  O   UNL     1      48.435   3.761  20.763  0.00  0.00    +0.000 OA
ATOM     13  H   UNL     1      47.931   2.974  20.489  0.00  0.00    +0.000 HD
ENDBRANCH  11  12
ENDBRANCH   2  11
ENDBRANCH   1   6
BRANCH   1  14
ATOM     14  C   UNL     1      45.433   4.763  12.747  0.00  0.00    +0.000 A 
ATOM     15  C   UNL     1      44.068   4.770  12.997  0.00  0.00    +0.000 A 
ATOM     16  N   UNL     1      43.130   4.405  12.095  0.00  0.00    +0.000 NA
ATOM     17  C   UNL     1      43.583   3.983  10.889  0.00  0.00    +0.000 A 
ATOM     18  C   UNL     1      44.923   3.913  10.511  0.00  0.00    +0.000 A 
ATOM     19  C   UNL     1      45.842   4.331  11.478  0.00  0.00    +0.000 A 
BRANCH  18  20
ATOM     20  N   UNL     1      45.385   3.378   9.324  0.00  0.00    +0.000 N 
ATOM     21  C   UNL     1      45.103   1.978   8.973  0.00  0.00    +0.000 C 
ATOM     22  C   UNL     1      46.243   1.486   8.065  0.00  0.00    +0.000 C 
ATOM     23  O   UNL     1      46.353   2.297   6.881  0.00  0.00    +0.000 OA
ATOM     24  C   UNL     1      46.612   3.672   7.229  0.00  0.00    +0.000 C 
ATOM     25  C   UNL     1      45.513   4.247   8.142  0.00  0.00    +0.000 C 
ENDBRANCH  18  20
ENDBRANCH   1  14
TORSDOF 5
ENDMDL
MODEL 5
REMARK VINA RESULT:    -6.675      2.671      7.801
REMARK INTER + INTRA:          -9.015
REMARK INTER:                  -8.579
REMARK INTRA:                  -0.436
REMARK UNBOUND:                -0.584
REMARK  Name = 
REMARK  5 active torsions:
REMARK  status: ('A' for Active; 'I' for Inactive)
REMARK    1  A    between atoms: C_2  and  O_3
REMARK    2  A    between atoms: C_2  and  C_4
REMARK    3  A    between atoms: N_8  and  C_9
REMARK    4  A    between atoms: C_9  and  C_10
REMARK    5  A    between atoms: C_14  and  N_15
REMARK                            x       y       z     vdW  Elec       q    Type
REMARK                         _______ _______ _______ _____ _____    ______ ____
ROOT
ATOM      1  C   UNL     1      44.736   5.982  10.558  0.00  0.00    +0.000 C 
ENDROOT
BRANCH   1   6
ATOM      2  C   UNL     1      47.439   5.154  14.857  0.00  0.00    +0.000 A 
ATOM      3  C   UNL     1      46.166   4.730  14.495  0.00  0.00    +0.000 A 
ATOM      4  C   UNL     1      45.673   5.078  13.239  0.00  0.00    +0.000 A 
ATOM      5  C   UNL     1      46.443   5.856  12.382  0.00  0.00    +0.000 A 
ATOM      6  N   UNL     1      46.027   6.246  11.140  0.00  0.00    +0.000 N 
ATOM      7  N   UNL     1      47.667   6.289  12.738  0.00  0.00    +0.000 NA
ATOM      8  C   UNL     1      48.138   5.943  13.966  0.00  0.00    +0.000 A 
ATOM      9  H   UNL     1      46.706   6.796  10.630  0.00  0.00    +0.000 HD
BRANCH   2  11
ATOM     10  O   UNL     1      48.729   3.826  16.332  0.00  0.00    +0.000 OA
ATOM     11  C   UNL     1      48.036   4.816  16.160  0.00  0.00    +0.000 C 
BRANCH  11  12
ATOM     12  O   UNL     1      47.719   5.683  17.140  0.00  0.00    +0.000 OA
ATOM     13  H   UNL     1      47.147   6.424  16.871  0.00  0.00    +0.000 HD
ENDBRANCH  11  12
ENDBRANCH   2  11
ENDBRANCH   1   6
BRANCH   1  14
ATOM     14  C   UNL     1      44.605   4.574  10.050  0.00  0.00    +0.000 A 
ATOM     15  C   UNL     1      43.838   3.606  10.684  0.00  0.00    +0.000 A 
ATOM     16  N   UNL     1      43.779   2.313  10.296  0.00  0.00    +0.000 NA
ATOM     17  C   UNL     1      44.550   1.963   9.238  0.00  0.00    +0.000 A 
ATOM     18  C   UNL     1      45.374   2.827   8.520  0.00  0.00    +0.000 A 
ATOM     19  C   UNL     1      45.371   4.157   8.952  0.00  0.00    +0.000 A 
BRANCH  18  20
ATOM     20  N   UNL     1      46.241   2.444   7.515  0.00  0.00    +0.000 N 
ATOM     21  C   UNL     1      46.966   3.452   6.727  0.00  0.00    +0.000 C 
ATOM     22  C   UNL     1      47.247   2.846   5.341  0.00  0.00    +0.000 C 
ATOM     23  O   UNL     1      48.013   1.632   5.448  0.00  0.00    +0.000 OA
ATOM     24  C   UNL     1      47.307   0.653   6.237  0.00  0.00    +0.000 C 
ATOM     25  C   UNL     1      46.984   1.180   7.647  0.00  0.00    +0.000 C 
ENDBRANCH  18  20
ENDBRANCH   1  14
TORSDOF 5
ENDMDL
MODEL 6
REMARK VINA RESULT:    -6.434      6.010      8.724
REMARK INTER + INTRA:          -8.711
REMARK INTER:                  -8.165
REMARK INTRA:                  -0.546
REMARK UNBOUND:                -0.584
REMARK  Name = 
REMARK  5 active torsions:
REMARK  status: ('A' for Active; 'I' for Inactive)
REMARK    1  A    between atoms: C_2  and  O_3
REMARK    2  A    between atoms: C_2  and  C_4
REMARK    3  A    between atoms: N_8  and  C_9
REMARK    4  A    between atoms: C_9  and  C_10
REMARK    5  A    between atoms: C_14  and  N_15
REMARK                            x       y       z     vdW  Elec       q    Type
REMARK                         _______ _______ _______ _____ _____    ______ ____
ROOT
ATOM      1  C   UNL     1      47.583   4.337  16.679  0.00  0.00    +0.000 C 
ENDROOT
BRANCH   1   6
ATOM      2  C   UNL     1      52.188   2.369  17.862  0.00  0.00    +0.000 A 
ATOM      3  C   UNL     1      51.692   3.658  18.010  0.00  0.00    +0.000 A 
ATOM      4  C   UNL     1      50.378   3.922  17.627  0.00  0.00    +0.000 A 
ATOM      5  C   UNL     1      49.596   2.908  17.086  0.00  0.00    +0.000 A 
ATOM      6  N   UNL     1      48.304   3.089  16.679  0.00  0.00    +0.000 N 
ATOM      7  N   UNL     1      50.080   1.663  16.918  0.00  0.00    +0.000 NA
ATOM      8  C   UNL     1      51.363   1.418  17.296  0.00  0.00    +0.000 A 
ATOM      9  H   UNL     1      47.862   2.253  16.321  0.00  0.00    +0.000 HD
BRANCH   2  11
ATOM     10  O   UNL     1      53.807   1.084  19.016  0.00  0.00    +0.000 OA
ATOM     11  C   UNL     1      53.560   2.007  18.255  0.00  0.00    +0.000 C 
BRANCH  11  12
ATOM     12  O   UNL     1      54.503   2.806  17.722  0.00  0.00    +0.000 OA
ATOM     13  H   UNL     1      54.912   3.438  18.341  0.00  0.00    +0.000 HD
ENDBRANCH  11  12
ENDBRANCH   2  11
ENDBRANCH   1   6
BRANCH   1  14
ATOM     14  C   UNL     1      47.476   4.943  15.308  0.00  0.00    +0.000 A 
ATOM     15  C   UNL     1      48.174   6.080  14.924  0.00  0.00    +0.000 A 
ATOM     16  N   UNL     1      48.023   6.693  13.729  0.00  0.00    +0.000 NA
ATOM     17  C   UNL     1      47.106   6.159  12.886  0.00  0.00    +0.000 A 
ATOM     18  C   UNL     1      46.329   5.032  13.149  0.00  0.00    +0.000 A 
ATOM     19  C   UNL     1      46.551   4.427  14.390  0.00  0.00    +0.000 A 
BRANCH  18  20
ATOM     20  N   UNL     1      45.318   4.558  12.336  0.00  0.00    +0.000 N 
ATOM     21  C   UNL     1      45.039   5.193  11.040  0.00  0.00    +0.000 C 
ATOM     22  C   UNL     1      43.550   4.973  10.722  0.00  0.00    +0.000 C 
ATOM     23  O   UNL     1      43.228   3.570  10.684  0.00  0.00    +0.000 OA
ATOM     24  C   UNL     1      43.520   2.946  11.951  0.00  0.00    +0.000 C 
ATOM     25  C   UNL     1      44.997   3.121  12.347  0.00  0.00    +0.000 C 
ENDBRANCH  18  20
ENDBRANCH   1  14
TORSDOF 5
ENDMDL
MODEL 7
REMARK VINA RESULT:    -6.420      1.695      7.302
REMARK INTER + INTRA:          -8.693
REMARK INTER:                  -8.038
REMARK INTRA:                  -0.655
REMARK UNBOUND:                -0.584
REMARK  Name = 
REMARK  5 active torsions:
REMARK  status: ('A' for Active; 'I' for Inactive)
REMARK    1  A    between atoms: C_2  and  O_3
REMARK    2  A    between atoms: C_2  and  C_4
REMARK    3  A    between atoms: N_8  and  C_9
REMARK    4  A    between atoms: C_9  and  C_10
REMARK    5  A    between atoms: C_14  and  N_15
REMARK                            x       y       z     vdW  Elec       q    Type
REMARK                         _______ _______ _______ _____ _____    ______ ____
ROOT
ATOM      1  C   UNL     1      45.770   5.084  13.518  0.00  0.00    +0.000 C 
ENDROOT
BRANCH   1   6
ATOM      2  C   UNL     1      48.289   9.220  11.781  0.00  0.00    +0.000 A 
ATOM      3  C   UNL     1      48.675   7.887  11.839  0.00  0.00    +0.000 A 
ATOM      4  C   UNL     1      47.775   6.948  12.340  0.00  0.00    +0.000 A 
ATOM      5  C   UNL     1      46.526   7.355  12.791  0.00  0.00    +0.000 A 
ATOM      6  N   UNL     1      45.593   6.497  13.303  0.00  0.00    +0.000 N 
ATOM      7  N   UNL     1      46.156   8.649  12.759  0.00  0.00    +0.000 NA
ATOM      8  C   UNL     1      47.042   9.556  12.268  0.00  0.00    +0.000 A 
ATOM      9  H   UNL     1      44.726   6.942  13.575  0.00  0.00    +0.000 HD
BRANCH   2  11
ATOM     10  O   UNL     1      50.390  10.150  11.212  0.00  0.00    +0.000 OA
ATOM     11  C   UNL     1      49.175  10.270  11.252  0.00  0.00    +0.000 C 
BRANCH  11  12
ATOM     12  O   UNL     1      48.522  11.377  10.850  0.00  0.00    +0.000 OA
ATOM     13  H   UNL     1      48.010  11.282  10.027  0.00  0.00    +0.000 HD
ENDBRANCH  11  12
ENDBRANCH   2  11
ENDBRANCH   1   6
BRANCH   1  14
ATOM     14  C   UNL     1      44.986   4.247  12.546  0.00  0.00    +0.000 A 
ATOM     15  C   UNL     1      43.829   3.563  12.894  0.00  0.00    +0.000 A 
ATOM     16  N   UNL     1      43.160   2.734  12.062  0.00  0.00    +0.000 NA
ATOM     17  C   UNL     1      43.692   2.558  10.827  0.00  0.00    +0.000 A 
ATOM     18  C   UNL     1      44.850   3.171  10.354  0.00  0.00    +0.000 A 
ATOM     19  C   UNL     1      45.481   4.037  11.252  0.00  0.00    +0.000 A 
BRANCH  18  20
ATOM     20  N   UNL     1      45.449   2.903   9.138  0.00  0.00    +0.000 N 
ATOM     21  C   UNL     1      45.493   1.531   8.610  0.00  0.00    +0.000 C 
ATOM     22  C   UNL     1      46.735   1.416   7.711  0.00  0.00    +0.000 C 
ATOM     23  O   UNL     1      46.693   2.376   6.639  0.00  0.00    +0.000 OA
ATOM     24  C   UNL     1      46.632   3.718   7.160  0.00  0.00    +0.000 C 
ATOM     25  C   UNL     1      45.411   3.921   8.076  0.00  0.00    +0.000 C 
ENDBRANCH  18  20
ENDBRANCH   1  14
TORSDOF 5
ENDMDL
MODEL 8
REMARK VINA RESULT:    -6.369      2.474      7.610
REMARK INTER + INTRA:          -8.629
REMARK INTER:                  -8.073
REMARK INTRA:                  -0.556
REMARK UNBOUND:                -0.584
REMARK  Name = 
REMARK  5 active torsions:
REMARK  status: ('A' for Active; 'I' for Inactive)
REMARK    1  A    between atoms: C_2  and  O_3
REMARK    2  A    between atoms: C_2  and  C_4
REMARK    3  A    between atoms: N_8  and  C_9
REMARK    4  A    between atoms: C_9  and  C_10
REMARK    5  A    between atoms: C_14  and  N_15
REMARK                            x       y       z     vdW  Elec       q    Type
REMARK                         _______ _______ _______ _____ _____    ______ ____
ROOT
ATOM      1  C   UNL     1      45.016   6.375  11.313  0.00  0.00    +0.000 C 
ENDROOT
BRANCH   1   6
ATOM      2  C   UNL     1      49.608   7.688  13.227  0.00  0.00    +0.000 A 
ATOM      3  C   UNL     1      49.061   7.897  11.967  0.00  0.00    +0.000 A 
ATOM      4  C   UNL     1      47.764   7.456  11.715  0.00  0.00    +0.000 A 
ATOM      5  C   UNL     1      47.048   6.799  12.708  0.00  0.00    +0.000 A 
ATOM      6  N   UNL     1      45.776   6.330  12.536  0.00  0.00    +0.000 N 
ATOM      7  N   UNL     1      47.582   6.572  13.923  0.00  0.00    +0.000 NA
ATOM      8  C   UNL     1      48.849   7.008  14.158  0.00  0.00    +0.000 A 
ATOM      9  H   UNL     1      45.383   5.887  13.356  0.00  0.00    +0.000 HD
BRANCH   2  11
ATOM     10  O   UNL     1      51.556   9.003  12.953  0.00  0.00    +0.000 OA
ATOM     11  C   UNL     1      50.966   8.136  13.577  0.00  0.00    +0.000 C 
BRANCH  11  12
ATOM     12  O   UNL     1      51.498   7.479  14.624  0.00  0.00    +0.000 OA
ATOM     13  H   UNL     1      50.889   6.881  15.094  0.00  0.00    +0.000 HD
ENDBRANCH  11  12
ENDBRANCH   2  11
ENDBRANCH   1   6
BRANCH   1  14
ATOM     14  C   UNL     1      44.638   5.008  10.815  0.00  0.00    +0.000 A 
ATOM     15  C   UNL     1      43.734   4.184  11.471  0.00  0.00    +0.000 A 
ATOM     16  N   UNL     1      43.449   2.919  11.090  0.00  0.00    +0.000 NA
ATOM     17  C   UNL     1      44.124   2.443  10.015  0.00  0.00    +0.000 A 
ATOM     18  C   UNL     1      45.064   3.157   9.275  0.00  0.00    +0.000 A 
ATOM     19  C   UNL     1      45.295   4.469   9.701  0.00  0.00    +0.000 A 
BRANCH  18  20
ATOM     20  N   UNL     1      45.830   2.634   8.251  0.00  0.00    +0.000 N 
ATOM     21  C   UNL     1      46.005   1.180   8.113  0.00  0.00    +0.000 C 
ATOM     22  C   UNL     1      47.360   0.936   7.427  0.00  0.00    +0.000 C 
ATOM     23  O   UNL     1      47.417   1.582   6.142  0.00  0.00    +0.000 OA
ATOM     24  C   UNL     1      47.227   3.004   6.278  0.00  0.00    +0.000 C 
ATOM     25  C   UNL     1      45.888   3.339   6.960  0.00  0.00    +0.000 C 
ENDBRANCH  18  20
ENDBRANCH   1  14
TORSDOF 5
ENDMDL
MODEL 9
REMARK VINA RESULT:    -6.225      3.976      6.284
REMARK INTER + INTRA:          -8.447
REMARK INTER:                  -7.843
REMARK INTRA:                  -0.604
REMARK UNBOUND:                -0.584
REMARK  Name = 
REMARK  5 active torsions:
REMARK  status: ('A' for Active; 'I' for Inactive)
REMARK    1  A    between atoms: C_2  and  O_3
REMARK    2  A    between atoms: C_2  and  C_4
REMARK    3  A    between atoms: N_8  and  C_9
REMARK    4  A    between atoms: C_9  and  C_10
REMARK    5  A    between atoms: C_14  and  N_15
REMARK                            x       y       z     vdW  Elec       q    Type
REMARK                         _______ _______ _______ _____ _____    ______ ____
ROOT
ATOM      1  C   UNL     1      46.829   8.559  12.816  0.00  0.00    +0.000 C 
ENDROOT
BRANCH   1   6
ATOM      2  C   UNL     1      44.332   4.279  11.431  0.00  0.00    +0.000 A 
ATOM      3  C   UNL     1      45.384   4.948  10.819  0.00  0.00    +0.000 A 
ATOM      4  C   UNL     1      45.901   6.090  11.429  0.00  0.00    +0.000 A 
ATOM      5  C   UNL     1      45.348   6.553  12.617  0.00  0.00    +0.000 A 
ATOM      6  N   UNL     1      45.793   7.668  13.271  0.00  0.00    +0.000 N 
ATOM      7  N   UNL     1      44.313   5.921  13.201  0.00  0.00    +0.000 NA
ATOM      8  C   UNL     1      43.817   4.808  12.597  0.00  0.00    +0.000 A 
ATOM      9  H   UNL     1      45.299   7.868  14.131  0.00  0.00    +0.000 HD
BRANCH   2  11
ATOM     10  O   UNL     1      44.003   2.663   9.733  0.00  0.00    +0.000 OA
ATOM     11  C   UNL     1      43.740   3.059  10.858  0.00  0.00    +0.000 C 
BRANCH  11  12
ATOM     12  O   UNL     1      42.867   2.445  11.678  0.00  0.00    +0.000 OA
ATOM     13  H   UNL     1      42.258   1.819  11.245  0.00  0.00    +0.000 HD
ENDBRANCH  11  12
ENDBRANCH   2  11
ENDBRANCH   1   6
BRANCH   1  14
ATOM     14  C   UNL     1      46.283   9.795  12.157  0.00  0.00    +0.000 A 
ATOM     15  C   UNL     1      47.062  10.904  11.860  0.00  0.00    +0.000 A 
ATOM     16  N   UNL     1      46.575  12.058  11.351  0.00  0.00    +0.000 NA
ATOM     17  C   UNL     1      45.234  12.115  11.158  0.00  0.00    +0.000 A 
ATOM     18  C   UNL     1      44.337  11.082  11.425  0.00  0.00    +0.000 A 
ATOM     19  C   UNL     1      44.905   9.906  11.922  0.00  0.00    +0.000 A 
BRANCH  18  20
ATOM     20  N   UNL     1      42.962  11.183  11.332  0.00  0.00    +0.000 N 
ATOM     21  C   UNL     1      42.312  12.497  11.223  0.00  0.00    +0.000 C 
ATOM     22  C   UNL     1      40.904  12.374  11.828  0.00  0.00    +0.000 C 
ATOM     23  O   UNL     1      40.133  11.365  11.150  0.00  0.00    +0.000 OA
ATOM     24  C   UNL     1      40.781  10.080  11.244  0.00  0.00    +0.000 C 
ATOM     25  C   UNL     1      42.204  10.115  10.659  0.00  0.00    +0.000 C 
ENDBRANCH  18  20
ENDBRANCH   1  14
TORSDOF 5
ENDMDL
