MODEL 1
REMARK VINA RESULT:    -8.533      0.000      0.000
REMARK INTER + INTRA:         -12.488
REMARK INTER:                 -11.526
REMARK INTRA:                  -0.962
REMARK UNBOUND:                -0.962
REMARK  Name = 
REMARK  7 active torsions:
REMARK  status: ('A' for Active; 'I' for Inactive)
REMARK    1  A    between atoms: C_1  and  N_2
REMARK    2  A    between atoms: N_2  and  C_3
REMARK    3  A    between atoms: C_3  and  C_4
REMARK    4  A    between atoms: C_7  and  C_8
REMARK    5  A    between atoms: C_8  and  N_9
REMARK    6  A    between atoms: C_10  and  C_12
REMARK    7  A    between atoms: C_24  and  C_26
REMARK                            x       y       z     vdW  Elec       q    Type
REMARK                         _______ _______ _______ _____ _____    ______ ____
ROOT
ATOM      1  C   UNL     1      46.369   4.569  13.407  0.00  0.00    +0.000 A 
ATOM      2  C   UNL     1      46.666   4.206  14.731  0.00  0.00    +0.000 A 
ATOM      3  C   UNL     1      47.544   4.971  15.499  0.00  0.00    +0.000 A 
ATOM      4  C   UNL     1      48.133   6.123  14.962  0.00  0.00    +0.000 A 
ATOM      5  C   UNL     1      47.838   6.482  13.638  0.00  0.00    +0.000 A 
ATOM      6  C   UNL     1      46.957   5.717  12.870  0.00  0.00    +0.000 A 
ENDROOT
BRANCH   1   7
ATOM      7  C   UNL     1      45.478   3.693  12.560  0.00  0.00    +0.000 C 
BRANCH   7   9
ATOM      8  C   UNL     1      43.346   5.015  12.887  0.00  0.00    +0.000 C 
ATOM      9  N   UNL     1      44.240   4.261  12.015  0.00  0.00    +0.000 N 
ATOM     10  C   UNL     1      44.003   4.413  10.634  0.00  0.00    +0.000 C 
ATOM     11  O   UNL     1      43.112   5.155  10.213  0.00  0.00    +0.000 OA
BRANCH  10  12
ATOM     12  C   UNL     1      44.829   3.710   9.603  0.00  0.00    +0.000 A 
ATOM     13  C   UNL     1      44.857   2.321   9.448  0.00  0.00    +0.000 A 
ATOM     14  C   UNL     1      45.673   1.724   8.482  0.00  0.00    +0.000 A 
ATOM     15  C   UNL     1      46.402   2.515   7.600  0.00  0.00    +0.000 A 
ATOM     16  C   UNL     1      46.318   3.903   7.684  0.00  0.00    +0.000 A 
ATOM     17  C   UNL     1      45.543   4.497   8.686  0.00  0.00    +0.000 A 
ENDBRANCH  10  12
ENDBRANCH   7   9
ENDBRANCH   1   7
BRANCH   4  18
ATOM     18  C   UNL     1      49.127   6.926  15.762  0.00  0.00    +0.000 C 
BRANCH  18  19
ATOM     19  N   UNL     1      50.168   6.071  16.268  0.00  0.00    +0.000 N 
ATOM     20  C   UNL     1      50.167   5.617  17.561  0.00  0.00    +0.000 C 
ATOM     21  O   UNL     1      49.256   5.871  18.340  0.00  0.00    +0.000 OA
ATOM     22  H   UNL     1      51.026   6.032  15.727  0.00  0.00    +0.000 HD
BRANCH  20  23
ATOM     23  C   UNL     1      51.290   4.750  17.941  0.00  0.00    +0.000 A 
ATOM     24  C   UNL     1      52.408   5.301  18.551  0.00  0.00    +0.000 A 
ATOM     25  S   UNL     1      53.584   4.147  18.991  0.00  0.00    +0.000 S 
ATOM     26  C   UNL     1      52.666   2.876  18.329  0.00  0.00    +0.000 A 
ATOM     27  N   UNL     1      53.123   1.595  18.357  0.00  0.00    +0.000 NA
ATOM     28  C   UNL     1      52.344   0.736  17.788  0.00  0.00    +0.000 A 
ATOM     29  N   UNL     1      51.145   1.043  17.199  0.00  0.00    +0.000 N 
ATOM     30  C   UNL     1      50.629   2.315  17.177  0.00  0.00    +0.000 A 
ATOM     31  O   UNL     1      49.528   2.546  16.676  0.00  0.00    +0.000 OA
ATOM     32  C   UNL     1      51.470   3.321  17.794  0.00  0.00    +0.000 A 
ATOM     33  H   UNL     1      50.579   0.323  16.774  0.00  0.00    +0.000 HD
ENDBRANCH  20  23
ENDBRANCH  18  19
ENDBRANCH   4  18
TORSDOF 6
ENDMDL
MODEL 2
REMARK VINA RESULT:    -7.970      2.421      3.014
REMARK INTER + INTRA:         -11.727
REMARK INTER:                 -11.000
REMARK INTRA:                  -0.727
REMARK UNBOUND:                -0.962
REMARK  Name = 
REMARK  7 active torsions:
REMARK  status: ('A' for Active; 'I' for Inactive)
REMARK    1  A    between atoms: C_1  and  N_2
REMARK    2  A    between atoms: N_2  and  C_3
REMARK    3  A    between atoms: C_3  and  C_4
REMARK    4  A    between atoms: C_7  and  C_8
REMARK    5  A    between atoms: C_8  and  N_9
REMARK    6  A    between atoms: C_10  and  C_12
REMARK    7  A    between atoms: C_24  and  C_26
REMARK                            x       y       z     vdW  Elec       q    Type
REMARK                         _______ _______ _______ _____ _____    ______ ____
ROOT
ATOM      1  C   UNL     1      45.389   6.733  11.620  0.00  0.00    +0.000 A 
ATOM      2  C   UNL     1      45.062   7.980  12.178  0.00  0.00    +0.000 A 
ATOM      3  C   UNL     1      45.972   8.655  12.992  0.00  0.00    +0.000 A 
ATOM      4  C   UNL     1      47.232   8.103  13.254  0.00  0.00    +0.000 A 
ATOM      5  C   UNL     1      47.554   6.855  12.699  0.00  0.00    +0.000 A 
ATOM      6  C   UNL     1      46.645   6.180  11.881  0.00  0.00    +0.000 A 
ENDROOT
BRANCH   1   7
ATOM      7  C   UNL     1      44.370   5.976  10.803  0.00  0.00    +0.000 C 
BRANCH   7   9
ATOM      8  C   UNL     1      42.894   4.720  12.429  0.00  0.00    +0.000 C 
ATOM      9  N   UNL     1      43.846   4.708  11.323  0.00  0.00    +0.000 N 
ATOM     10  C   UNL     1      43.940   3.488  10.624  0.00  0.00    +0.000 C 
ATOM     11  O   UNL     1      43.241   2.518  10.928  0.00  0.00    +0.000 OA
BRANCH  10  12
ATOM     12  C   UNL     1      44.868   3.307   9.464  0.00  0.00    +0.000 A 
ATOM     13  C   UNL     1      45.410   4.367   8.731  0.00  0.00    +0.000 A 
ATOM     14  C   UNL     1      46.249   4.127   7.639  0.00  0.00    +0.000 A 
ATOM     15  C   UNL     1      46.627   2.827   7.322  0.00  0.00    +0.000 A 
ATOM     16  C   UNL     1      46.166   1.764   8.095  0.00  0.00    +0.000 A 
ATOM     17  C   UNL     1      45.283   2.002   9.154  0.00  0.00    +0.000 A 
ENDBRANCH  10  12
ENDBRANCH   7   9
ENDBRANCH   1   7
BRANCH   4  18
ATOM     18  C   UNL     1      48.202   8.794  14.179  0.00  0.00    +0.000 C 
BRANCH  18  19
ATOM     19  N   UNL     1      48.456   7.979  15.336  0.00  0.00    +0.000 N 
ATOM     20  C   UNL     1      49.678   7.402  15.561  0.00  0.00    +0.000 C 
ATOM     21  O   UNL     1      50.634   7.590  14.818  0.00  0.00    +0.000 OA
ATOM     22  H   UNL     1      47.642   7.631  15.834  0.00  0.00    +0.000 HD
BRANCH  20  23
ATOM     23  C   UNL     1      49.797   6.596  16.783  0.00  0.00    +0.000 A 
ATOM     24  C   UNL     1      50.678   6.984  17.781  0.00  0.00    +0.000 A 
ATOM     25  S   UNL     1      50.638   5.979  19.158  0.00  0.00    +0.000 S 
ATOM     26  C   UNL     1      49.482   4.954  18.445  0.00  0.00    +0.000 A 
ATOM     27  N   UNL     1      49.018   3.858  19.104  0.00  0.00    +0.000 NA
ATOM     28  C   UNL     1      48.172   3.149  18.434  0.00  0.00    +0.000 A 
ATOM     29  N   UNL     1      47.743   3.441  17.165  0.00  0.00    +0.000 N 
ATOM     30  C   UNL     1      48.157   4.554  16.476  0.00  0.00    +0.000 A 
ATOM     31  O   UNL     1      47.717   4.808  15.354  0.00  0.00    +0.000 OA
ATOM     32  C   UNL     1      49.117   5.381  17.180  0.00  0.00    +0.000 A 
ATOM     33  H   UNL     1      47.074   2.847  16.697  0.00  0.00    +0.000 HD
ENDBRANCH  20  23
ENDBRANCH  18  19
ENDBRANCH   4  18
TORSDOF 6
ENDMDL
MODEL 3
REMARK VINA RESULT:    -7.886      2.424      2.730
REMARK INTER + INTRA:         -11.614
REMARK INTER:                 -10.486
REMARK INTRA:                  -1.127
REMARK UNBOUND:                -0.962
REMARK  Name = 
REMARK  7 active torsions:
REMARK  status: ('A' for Active; 'I' for Inactive)
REMARK    1  A    between atoms: C_1  and  N_2
REMARK    2  A    between atoms: N_2  and  C_3
REMARK    3  A    between atoms: C_3  and  C_4
REMARK    4  A    between atoms: C_7  and  C_8
REMARK    5  A    between atoms: C_8  and  N_9
REMARK    6  A    between atoms: C_10  and  C_12
REMARK    7  A    between atoms: C_24  and  C_26
REMARK                            x       y       z     vdW  Elec       q    Type
REMARK                         _______ _______ _______ _____ _____    ______ ____
ROOT
ATOM      1  C   UNL     1      46.328   4.745  13.158  0.00  0.00    +0.000 A 
ATOM      2  C   UNL     1      46.814   4.587  14.467  0.00  0.00    +0.000 A 
ATOM      3  C   UNL     1      47.779   5.455  14.977  0.00  0.00    +0.000 A 
ATOM      4  C   UNL     1      48.269   6.507  14.193  0.00  0.00    +0.000 A 
ATOM      5  C   UNL     1      47.785   6.660  12.885  0.00  0.00    +0.000 A 
ATOM      6  C   UNL     1      46.817   5.793  12.375  0.00  0.00    +0.000 A 
ENDROOT
BRANCH   1   7
ATOM      7  C   UNL     1      45.340   3.755  12.590  0.00  0.00    +0.000 C 
BRANCH   7   9
ATOM      8  C   UNL     1      43.144   4.980  12.865  0.00  0.00    +0.000 C 
ATOM      9  N   UNL     1      44.086   4.257  12.018  0.00  0.00    +0.000 N 
ATOM     10  C   UNL     1      43.864   4.381  10.632  0.00  0.00    +0.000 C 
ATOM     11  O   UNL     1      42.946   5.075  10.187  0.00  0.00    +0.000 OA
BRANCH  10  12
ATOM     12  C   UNL     1      44.738   3.704   9.623  0.00  0.00    +0.000 A 
ATOM     13  C   UNL     1      44.810   2.316   9.466  0.00  0.00    +0.000 A 
ATOM     14  C   UNL     1      45.669   1.746   8.522  0.00  0.00    +0.000 A 
ATOM     15  C   UNL     1      46.401   2.560   7.663  0.00  0.00    +0.000 A 
ATOM     16  C   UNL     1      46.275   3.944   7.747  0.00  0.00    +0.000 A 
ATOM     17  C   UNL     1      45.456   4.513   8.728  0.00  0.00    +0.000 A 
ENDBRANCH  10  12
ENDBRANCH   7   9
ENDBRANCH   1   7
BRANCH   4  18
ATOM     18  C   UNL     1      49.354   7.417  14.712  0.00  0.00    +0.000 C 
BRANCH  18  19
ATOM     19  N   UNL     1      49.344   7.435  16.150  0.00  0.00    +0.000 N 
ATOM     20  C   UNL     1      50.238   6.705  16.890  0.00  0.00    +0.000 C 
ATOM     21  O   UNL     1      51.125   6.040  16.368  0.00  0.00    +0.000 OA
ATOM     22  H   UNL     1      48.502   7.787  16.595  0.00  0.00    +0.000 HD
BRANCH  20  23
ATOM     23  C   UNL     1      50.115   6.819  18.349  0.00  0.00    +0.000 A 
ATOM     24  C   UNL     1      50.607   7.943  18.996  0.00  0.00    +0.000 A 
ATOM     25  S   UNL     1      50.316   7.946  20.676  0.00  0.00    +0.000 S 
ATOM     26  C   UNL     1      49.574   6.417  20.608  0.00  0.00    +0.000 A 
ATOM     27  N   UNL     1      49.102   5.817  21.735  0.00  0.00    +0.000 NA
ATOM     28  C   UNL     1      48.595   4.645  21.544  0.00  0.00    +0.000 A 
ATOM     29  N   UNL     1      48.512   4.020  20.327  0.00  0.00    +0.000 N 
ATOM     30  C   UNL     1      48.943   4.600  19.160  0.00  0.00    +0.000 A 
ATOM     31  O   UNL     1      48.812   4.027  18.078  0.00  0.00    +0.000 OA
ATOM     32  C   UNL     1      49.531   5.915  19.318  0.00  0.00    +0.000 A 
ATOM     33  H   UNL     1      48.099   3.102  20.245  0.00  0.00    +0.000 HD
ENDBRANCH  20  23
ENDBRANCH  18  19
ENDBRANCH   4  18
TORSDOF 6
ENDMDL
MODEL 4
REMARK VINA RESULT:    -7.735      3.586      8.709
REMARK INTER + INTRA:         -11.409
REMARK INTER:                  -9.544
REMARK INTRA:                  -1.865
REMARK UNBOUND:                -0.962
REMARK  Name = 
REMARK  7 active torsions:
REMARK  status: ('A' for Active; 'I' for Inactive)
REMARK    1  A    between atoms: C_1  and  N_2
REMARK    2  A    between atoms: N_2  and  C_3
REMARK    3  A    between atoms: C_3  and  C_4
REMARK    4  A    between atoms: C_7  and  C_8
REMARK    5  A    between atoms: C_8  and  N_9
REMARK    6  A    between atoms: C_10  and  C_12
REMARK    7  A    between atoms: C_24  and  C_26
REMARK                            x       y       z     vdW  Elec       q    Type
REMARK                         _______ _______ _______ _____ _____    ______ ____
ROOT
ATOM      1  C   UNL     1      49.208   7.825  16.123  0.00  0.00    +0.000 A 
ATOM      2  C   UNL     1      49.620   6.876  15.173  0.00  0.00    +0.000 A 
ATOM      3  C   UNL     1      49.105   6.898  13.876  0.00  0.00    +0.000 A 
ATOM      4  C   UNL     1      48.177   7.878  13.500  0.00  0.00    +0.000 A 
ATOM      5  C   UNL     1      47.764   8.822  14.453  0.00  0.00    +0.000 A 
ATOM      6  C   UNL     1      48.282   8.802  15.750  0.00  0.00    +0.000 A 
ENDROOT
BRANCH   1   7
ATOM      7  C   UNL     1      49.713   7.746  17.543  0.00  0.00    +0.000 C 
BRANCH   7   9
ATOM      8  C   UNL     1      48.259   8.722  19.370  0.00  0.00    +0.000 C 
ATOM      9  N   UNL     1      48.744   7.562  18.630  0.00  0.00    +0.000 N 
ATOM     10  C   UNL     1      47.994   6.382  18.803  0.00  0.00    +0.000 C 
ATOM     11  O   UNL     1      46.988   6.359  19.517  0.00  0.00    +0.000 OA
BRANCH  10  12
ATOM     12  C   UNL     1      48.355   5.102  18.116  0.00  0.00    +0.000 A 
ATOM     13  C   UNL     1      49.483   4.341  18.437  0.00  0.00    +0.000 A 
ATOM     14  C   UNL     1      49.778   3.168  17.737  0.00  0.00    +0.000 A 
ATOM     15  C   UNL     1      48.901   2.694  16.767  0.00  0.00    +0.000 A 
ATOM     16  C   UNL     1      47.727   3.394  16.496  0.00  0.00    +0.000 A 
ATOM     17  C   UNL     1      47.461   4.596  17.159  0.00  0.00    +0.000 A 
ENDBRANCH  10  12
ENDBRANCH   7   9
ENDBRANCH   1   7
BRANCH   4  18
ATOM     18  C   UNL     1      47.570   7.877  12.120  0.00  0.00    +0.000 C 
BRANCH  18  19
ATOM     19  N   UNL     1      46.877   6.640  11.880  0.00  0.00    +0.000 N 
ATOM     20  C   UNL     1      45.510   6.553  11.932  0.00  0.00    +0.000 C 
ATOM     21  O   UNL     1      44.803   7.533  12.134  0.00  0.00    +0.000 OA
ATOM     22  H   UNL     1      47.432   5.791  11.934  0.00  0.00    +0.000 HD
BRANCH  20  23
ATOM     23  C   UNL     1      44.937   5.228  11.665  0.00  0.00    +0.000 A 
ATOM     24  C   UNL     1      44.254   4.558  12.670  0.00  0.00    +0.000 A 
ATOM     25  S   UNL     1      43.592   3.068  12.170  0.00  0.00    +0.000 S 
ATOM     26  C   UNL     1      44.244   3.238  10.608  0.00  0.00    +0.000 A 
ATOM     27  N   UNL     1      44.060   2.275   9.665  0.00  0.00    +0.000 NA
ATOM     28  C   UNL     1      44.638   2.514   8.536  0.00  0.00    +0.000 A 
ATOM     29  N   UNL     1      45.381   3.634   8.262  0.00  0.00    +0.000 N 
ATOM     30  C   UNL     1      45.565   4.646   9.172  0.00  0.00    +0.000 A 
ATOM     31  O   UNL     1      46.203   5.658   8.876  0.00  0.00    +0.000 OA
ATOM     32  C   UNL     1      44.944   4.423  10.462  0.00  0.00    +0.000 A 
ATOM     33  H   UNL     1      45.804   3.764   7.355  0.00  0.00    +0.000 HD
ENDBRANCH  20  23
ENDBRANCH  18  19
ENDBRANCH   4  18
TORSDOF 6
ENDMDL
MODEL 5
REMARK VINA RESULT:    -7.650      1.836      3.067
REMARK INTER + INTRA:         -11.295
REMARK INTER:                  -9.961
REMARK INTRA:                  -1.334
REMARK UNBOUND:                -0.962
REMARK  Name = 
REMARK  7 active torsions:
REMARK  status: ('A' for Active; 'I' for Inactive)
REMARK    1  A    between atoms: C_1  and  N_2
REMARK    2  A    between atoms: N_2  and  C_3
REMARK    3  A    between atoms: C_3  and  C_4
REMARK    4  A    between atoms: C_7  and  C_8
REMARK    5  A    between atoms: C_8  and  N_9
REMARK    6  A    between atoms: C_10  and  C_12
REMARK    7  A    between atoms: C_24  and  C_26
REMARK                            x       y       z     vdW  Elec       q    Type
REMARK                         _______ _______ _______ _____ _____    ______ ____
ROOT
ATOM      1  C   UNL     1      47.341   5.614  13.669  0.00  0.00    +0.000 A 
ATOM      2  C   UNL     1      47.995   6.141  14.796  0.00  0.00    +0.000 A 
ATOM      3  C   UNL     1      48.151   5.373  15.951  0.00  0.00    +0.000 A 
ATOM      4  C   UNL     1      47.669   4.059  15.997  0.00  0.00    +0.000 A 
ATOM      5  C   UNL     1      47.014   3.537  14.872  0.00  0.00    +0.000 A 
ATOM      6  C   UNL     1      46.859   4.304  13.715  0.00  0.00    +0.000 A 
ENDROOT
BRANCH   1   7
ATOM      7  C   UNL     1      47.110   6.477  12.453  0.00  0.00    +0.000 C 
BRANCH   7   9
ATOM      8  C   UNL     1      45.760   8.578  12.857  0.00  0.00    +0.000 C 
ATOM      9  N   UNL     1      45.848   7.217  12.340  0.00  0.00    +0.000 N 
ATOM     10  C   UNL     1      44.802   6.833  11.476  0.00  0.00    +0.000 C 
ATOM     11  O   UNL     1      43.899   7.617  11.174  0.00  0.00    +0.000 OA
BRANCH  10  12
ATOM     12  C   UNL     1      44.741   5.472  10.859  0.00  0.00    +0.000 A 
ATOM     13  C   UNL     1      44.042   4.397  11.417  0.00  0.00    +0.000 A 
ATOM     14  C   UNL     1      44.048   3.142  10.803  0.00  0.00    +0.000 A 
ATOM     15  C   UNL     1      44.679   2.969   9.575  0.00  0.00    +0.000 A 
ATOM     16  C   UNL     1      45.306   4.051   8.961  0.00  0.00    +0.000 A 
ATOM     17  C   UNL     1      45.345   5.292   9.604  0.00  0.00    +0.000 A 
ENDBRANCH  10  12
ENDBRANCH   7   9
ENDBRANCH   1   7
BRANCH   4  18
ATOM     18  C   UNL     1      47.781   3.240  17.258  0.00  0.00    +0.000 C 
BRANCH  18  19
ATOM     19  N   UNL     1      49.162   3.070  17.623  0.00  0.00    +0.000 N 
ATOM     20  C   UNL     1      49.988   2.209  16.948  0.00  0.00    +0.000 C 
ATOM     21  O   UNL     1      49.611   1.578  15.968  0.00  0.00    +0.000 OA
ATOM     22  H   UNL     1      49.432   3.400  18.544  0.00  0.00    +0.000 HD
BRANCH  20  23
ATOM     23  C   UNL     1      51.375   2.137  17.428  0.00  0.00    +0.000 A 
ATOM     24  C   UNL     1      51.989   0.902  17.574  0.00  0.00    +0.000 A 
ATOM     25  S   UNL     1      53.617   1.003  18.070  0.00  0.00    +0.000 S 
ATOM     26  C   UNL     1      53.543   2.700  18.162  0.00  0.00    +0.000 A 
ATOM     27  N   UNL     1      54.624   3.427  18.555  0.00  0.00    +0.000 NA
ATOM     28  C   UNL     1      54.418   4.701  18.615  0.00  0.00    +0.000 A 
ATOM     29  N   UNL     1      53.230   5.314  18.313  0.00  0.00    +0.000 N 
ATOM     30  C   UNL     1      52.124   4.624  17.881  0.00  0.00    +0.000 A 
ATOM     31  O   UNL     1      51.086   5.213  17.576  0.00  0.00    +0.000 OA
ATOM     32  C   UNL     1      52.298   3.187  17.804  0.00  0.00    +0.000 A 
ATOM     33  H   UNL     1      53.136   6.317  18.376  0.00  0.00    +0.000 HD
ENDBRANCH  20  23
ENDBRANCH  18  19
ENDBRANCH   4  18
TORSDOF 6
ENDMDL
MODEL 6
REMARK VINA RESULT:    -7.609      3.753      8.453
REMARK INTER + INTRA:         -11.240
REMARK INTER:                  -9.660
REMARK INTRA:                  -1.580
REMARK UNBOUND:                -0.962
REMARK  Name = 
REMARK  7 active torsions:
REMARK  status: ('A' for Active; 'I' for Inactive)
REMARK    1  A    between atoms: C_1  and  N_2
REMARK    2  A    between atoms: N_2  and  C_3
REMARK    3  A    between atoms: C_3  and  C_4
REMARK    4  A    between atoms: C_7  and  C_8
REMARK    5  A    between atoms: C_8  and  N_9
REMARK    6  A    between atoms: C_10  and  C_12
REMARK    7  A    between atoms: C_24  and  C_26
REMARK                            x       y       z     vdW  Elec       q    Type
REMARK                         _______ _______ _______ _____ _____    ______ ____
ROOT
ATOM      1  C   UNL     1      48.884   7.676  16.250  0.00  0.00    +0.000 A 
ATOM      2  C   UNL     1      48.420   8.908  15.760  0.00  0.00    +0.000 A 
ATOM      3  C   UNL     1      48.177   9.086  14.398  0.00  0.00    +0.000 A 
ATOM      4  C   UNL     1      48.380   8.030  13.500  0.00  0.00    +0.000 A 
ATOM      5  C   UNL     1      48.848   6.802  13.992  0.00  0.00    +0.000 A 
ATOM      6  C   UNL     1      49.089   6.623  15.356  0.00  0.00    +0.000 A 
ENDROOT
BRANCH   1   7
ATOM      7  C   UNL     1      49.216   7.518  17.714  0.00  0.00    +0.000 C 
BRANCH   7   9
ATOM      8  C   UNL     1      47.396   8.215  19.328  0.00  0.00    +0.000 C 
ATOM      9  N   UNL     1      48.143   7.161  18.648  0.00  0.00    +0.000 N 
ATOM     10  C   UNL     1      47.554   5.882  18.696  0.00  0.00    +0.000 C 
ATOM     11  O   UNL     1      46.472   5.693  19.259  0.00  0.00    +0.000 OA
BRANCH  10  12
ATOM     12  C   UNL     1      48.188   4.690  18.050  0.00  0.00    +0.000 A 
ATOM     13  C   UNL     1      49.453   4.203  18.393  0.00  0.00    +0.000 A 
ATOM     14  C   UNL     1      50.000   3.101  17.730  0.00  0.00    +0.000 A 
ATOM     15  C   UNL     1      49.252   2.418  16.777  0.00  0.00    +0.000 A 
ATOM     16  C   UNL     1      47.955   2.836  16.486  0.00  0.00    +0.000 A 
ATOM     17  C   UNL     1      47.430   3.972  17.111  0.00  0.00    +0.000 A 
ENDBRANCH  10  12
ENDBRANCH   7   9
ENDBRANCH   1   7
BRANCH   4  18
ATOM     18  C   UNL     1      48.177   8.226  12.019  0.00  0.00    +0.000 C 
BRANCH  18  19
ATOM     19  N   UNL     1      47.508   7.087  11.452  0.00  0.00    +0.000 N 
ATOM     20  C   UNL     1      46.141   7.003  11.397  0.00  0.00    +0.000 C 
ATOM     21  O   UNL     1      45.416   7.914  11.780  0.00  0.00    +0.000 OA
ATOM     22  H   UNL     1      48.063   6.244  11.338  0.00  0.00    +0.000 HD
BRANCH  20  23
ATOM     23  C   UNL     1      45.592   5.783  10.791  0.00  0.00    +0.000 A 
ATOM     24  C   UNL     1      45.812   5.524   9.446  0.00  0.00    +0.000 A 
ATOM     25  S   UNL     1      45.169   4.034   8.923  0.00  0.00    +0.000 S 
ATOM     26  C   UNL     1      44.523   3.708  10.462  0.00  0.00    +0.000 A 
ATOM     27  N   UNL     1      43.816   2.569  10.697  0.00  0.00    +0.000 NA
ATOM     28  C   UNL     1      43.352   2.466  11.898  0.00  0.00    +0.000 A 
ATOM     29  N   UNL     1      43.537   3.396  12.888  0.00  0.00    +0.000 N 
ATOM     30  C   UNL     1      44.271   4.542  12.705  0.00  0.00    +0.000 A 
ATOM     31  O   UNL     1      44.452   5.335  13.631  0.00  0.00    +0.000 OA
ATOM     32  C   UNL     1      44.807   4.713  11.370  0.00  0.00    +0.000 A 
ATOM     33  H   UNL     1      43.151   3.253  13.809  0.00  0.00    +0.000 HD
ENDBRANCH  20  23
ENDBRANCH  18  19
ENDBRANCH   4  18
TORSDOF 6
ENDMDL
MODEL 7
REMARK VINA RESULT:    -7.499      3.470     10.161
REMARK INTER + INTRA:         -11.091
REMARK INTER:                  -9.468
REMARK INTRA:                  -1.622
REMARK UNBOUND:                -0.962
REMARK  Name = 
REMARK  7 active torsions:
REMARK  status: ('A' for Active; 'I' for Inactive)
REMARK    1  A    between atoms: C_1  and  N_2
REMARK    2  A    between atoms: N_2  and  C_3
REMARK    3  A    between atoms: C_3  and  C_4
REMARK    4  A    between atoms: C_7  and  C_8
REMARK    5  A    between atoms: C_8  and  N_9
REMARK    6  A    between atoms: C_10  and  C_12
REMARK    7  A    between atoms: C_24  and  C_26
REMARK                            x       y       z     vdW  Elec       q    Type
REMARK                         _______ _______ _______ _____ _____    ______ ____
ROOT
ATOM      1  C   UNL     1      51.444   3.790  17.639  0.00  0.00    +0.000 A 
ATOM      2  C   UNL     1      50.616   4.924  17.590  0.00  0.00    +0.000 A 
ATOM      3  C   UNL     1      49.248   4.796  17.350  0.00  0.00    +0.000 A 
ATOM      4  C   UNL     1      48.677   3.531  17.167  0.00  0.00    +0.000 A 
ATOM      5  C   UNL     1      49.507   2.400  17.212  0.00  0.00    +0.000 A 
ATOM      6  C   UNL     1      50.876   2.527  17.455  0.00  0.00    +0.000 A 
ENDROOT
BRANCH   1   7
ATOM      7  C   UNL     1      52.934   3.944  17.823  0.00  0.00    +0.000 C 
BRANCH   7   9
ATOM      8  C   UNL     1      54.555   2.296  18.851  0.00  0.00    +0.000 C 
ATOM      9  N   UNL     1      53.564   3.355  19.010  0.00  0.00    +0.000 N 
ATOM     10  C   UNL     1      53.528   3.958  20.283  0.00  0.00    +0.000 C 
ATOM     11  O   UNL     1      54.304   3.614  21.179  0.00  0.00    +0.000 OA
BRANCH  10  12
ATOM     12  C   UNL     1      52.572   5.060  20.614  0.00  0.00    +0.000 A 
ATOM     13  C   UNL     1      52.805   6.406  20.316  0.00  0.00    +0.000 A 
ATOM     14  C   UNL     1      51.882   7.391  20.677  0.00  0.00    +0.000 A 
ATOM     15  C   UNL     1      50.672   7.032  21.262  0.00  0.00    +0.000 A 
ATOM     16  C   UNL     1      50.385   5.687  21.487  0.00  0.00    +0.000 A 
ATOM     17  C   UNL     1      51.333   4.708  21.174  0.00  0.00    +0.000 A 
ENDBRANCH  10  12
ENDBRANCH   7   9
ENDBRANCH   1   7
BRANCH   4  18
ATOM     18  C   UNL     1      47.210   3.383  16.850  0.00  0.00    +0.000 C 
BRANCH  18  19
ATOM     19  N   UNL     1      46.807   4.370  15.884  0.00  0.00    +0.000 N 
ATOM     20  C   UNL     1      46.910   4.148  14.536  0.00  0.00    +0.000 C 
ATOM     21  O   UNL     1      47.301   3.081  14.079  0.00  0.00    +0.000 OA
ATOM     22  H   UNL     1      46.696   5.321  16.225  0.00  0.00    +0.000 HD
BRANCH  20  23
ATOM     23  C   UNL     1      46.460   5.243  13.665  0.00  0.00    +0.000 A 
ATOM     24  C   UNL     1      47.300   6.320  13.425  0.00  0.00    +0.000 A 
ATOM     25  S   UNL     1      46.651   7.462  12.337  0.00  0.00    +0.000 S 
ATOM     26  C   UNL     1      45.200   6.586  12.194  0.00  0.00    +0.000 A 
ATOM     27  N   UNL     1      44.185   7.037  11.408  0.00  0.00    +0.000 NA
ATOM     28  C   UNL     1      43.129   6.293  11.419  0.00  0.00    +0.000 A 
ATOM     29  N   UNL     1      42.999   5.135  12.142  0.00  0.00    +0.000 N 
ATOM     30  C   UNL     1      44.007   4.626  12.921  0.00  0.00    +0.000 A 
ATOM     31  O   UNL     1      43.869   3.559  13.522  0.00  0.00    +0.000 OA
ATOM     32  C   UNL     1      45.214   5.428  12.952  0.00  0.00    +0.000 A 
ATOM     33  H   UNL     1      42.146   4.596  12.103  0.00  0.00    +0.000 HD
ENDBRANCH  20  23
ENDBRANCH  18  19
ENDBRANCH   4  18
TORSDOF 6
ENDMDL
MODEL 8
REMARK VINA RESULT:    -7.428      3.956      8.449
REMARK INTER + INTRA:         -10.995
REMARK INTER:                  -8.958
REMARK INTRA:                  -2.037
REMARK UNBOUND:                -0.962
REMARK  Name = 
REMARK  7 active torsions:
REMARK  status: ('A' for Active; 'I' for Inactive)
REMARK    1  A    between atoms: C_1  and  N_2
REMARK    2  A    between atoms: N_2  and  C_3
REMARK    3  A    between atoms: C_3  and  C_4
REMARK    4  A    between atoms: C_7  and  C_8
REMARK    5  A    between atoms: C_8  and  N_9
REMARK    6  A    between atoms: C_10  and  C_12
REMARK    7  A    between atoms: C_24  and  C_26
REMARK                            x       y       z     vdW  Elec       q    Type
REMARK                         _______ _______ _______ _____ _____    ______ ____
ROOT
ATOM      1  C   UNL     1      49.819   7.318  17.588  0.00  0.00    +0.000 A 
ATOM      2  C   UNL     1      48.955   8.424  17.667  0.00  0.00    +0.000 A 
ATOM      3  C   UNL     1      48.350   8.938  16.520  0.00  0.00    +0.000 A 
ATOM      4  C   UNL     1      48.586   8.348  15.272  0.00  0.00    +0.000 A 
ATOM      5  C   UNL     1      49.452   7.247  15.194  0.00  0.00    +0.000 A 
ATOM      6  C   UNL     1      50.055   6.730  16.343  0.00  0.00    +0.000 A 
ENDROOT
BRANCH   1   7
ATOM      7  C   UNL     1      50.527   6.817  18.823  0.00  0.00    +0.000 C 
BRANCH   7   9
ATOM      8  C   UNL     1      49.764   7.232  21.199  0.00  0.00    +0.000 C 
ATOM      9  N   UNL     1      49.726   6.422  19.986  0.00  0.00    +0.000 N 
ATOM     10  C   UNL     1      48.664   5.497  19.915  0.00  0.00    +0.000 C 
ATOM     11  O   UNL     1      47.826   5.411  20.816  0.00  0.00    +0.000 OA
BRANCH  10  12
ATOM     12  C   UNL     1      48.479   4.589  18.740  0.00  0.00    +0.000 A 
ATOM     13  C   UNL     1      49.343   3.534  18.431  0.00  0.00    +0.000 A 
ATOM     14  C   UNL     1      49.127   2.740  17.301  0.00  0.00    +0.000 A 
ATOM     15  C   UNL     1      47.995   2.935  16.517  0.00  0.00    +0.000 A 
ATOM     16  C   UNL     1      47.077   3.925  16.861  0.00  0.00    +0.000 A 
ATOM     17  C   UNL     1      47.323   4.754  17.960  0.00  0.00    +0.000 A 
ENDBRANCH  10  12
ENDBRANCH   7   9
ENDBRANCH   1   7
BRANCH   4  18
ATOM     18  C   UNL     1      47.984   8.930  14.017  0.00  0.00    +0.000 C 
BRANCH  18  19
ATOM     19  N   UNL     1      46.850   8.151  13.601  0.00  0.00    +0.000 N 
ATOM     20  C   UNL     1      46.885   7.362  12.480  0.00  0.00    +0.000 C 
ATOM     21  O   UNL     1      47.899   7.237  11.804  0.00  0.00    +0.000 OA
ATOM     22  H   UNL     1      45.952   8.405  14.002  0.00  0.00    +0.000 HD
BRANCH  20  23
ATOM     23  C   UNL     1      45.655   6.620  12.174  0.00  0.00    +0.000 A 
ATOM     24  C   UNL     1      44.563   7.289  11.639  0.00  0.00    +0.000 A 
ATOM     25  S   UNL     1      43.247   6.267  11.277  0.00  0.00    +0.000 S 
ATOM     26  C   UNL     1      44.067   4.903  11.877  0.00  0.00    +0.000 A 
ATOM     27  N   UNL     1      43.478   3.676  11.879  0.00  0.00    +0.000 NA
ATOM     28  C   UNL     1      44.198   2.737  12.395  0.00  0.00    +0.000 A 
ATOM     29  N   UNL     1      45.459   2.913  12.905  0.00  0.00    +0.000 N 
ATOM     30  C   UNL     1      46.105   4.124  12.894  0.00  0.00    +0.000 A 
ATOM     31  O   UNL     1      47.255   4.235  13.321  0.00  0.00    +0.000 OA
ATOM     32  C   UNL     1      45.336   5.217  12.333  0.00  0.00    +0.000 A 
ATOM     33  H   UNL     1      45.972   2.134  13.292  0.00  0.00    +0.000 HD
ENDBRANCH  20  23
ENDBRANCH  18  19
ENDBRANCH   4  18
TORSDOF 6
ENDMDL
MODEL 9
REMARK VINA RESULT:    -7.051      1.700      2.593
REMARK INTER + INTRA:         -10.486
REMARK INTER:                  -9.338
REMARK INTRA:                  -1.147
REMARK UNBOUND:                -0.962
REMARK  Name = 
REMARK  7 active torsions:
REMARK  status: ('A' for Active; 'I' for Inactive)
REMARK    1  A    between atoms: C_1  and  N_2
REMARK    2  A    between atoms: N_2  and  C_3
REMARK    3  A    between atoms: C_3  and  C_4
REMARK    4  A    between atoms: C_7  and  C_8
REMARK    5  A    between atoms: C_8  and  N_9
REMARK    6  A    between atoms: C_10  and  C_12
REMARK    7  A    between atoms: C_24  and  C_26
REMARK                            x       y       z     vdW  Elec       q    Type
REMARK                         _______ _______ _______ _____ _____    ______ ____
ROOT
ATOM      1  C   UNL     1      47.385   6.277  13.326  0.00  0.00    +0.000 A 
ATOM      2  C   UNL     1      48.262   6.834  14.271  0.00  0.00    +0.000 A 
ATOM      3  C   UNL     1      48.482   6.204  15.496  0.00  0.00    +0.000 A 
ATOM      4  C   UNL     1      47.839   4.996  15.795  0.00  0.00    +0.000 A 
ATOM      5  C   UNL     1      46.960   4.444  14.851  0.00  0.00    +0.000 A 
ATOM      6  C   UNL     1      46.742   5.072  13.624  0.00  0.00    +0.000 A 
ENDROOT
BRANCH   1   7
ATOM      7  C   UNL     1      47.096   7.004  12.035  0.00  0.00    +0.000 C 
BRANCH   7   9
ATOM      8  C   UNL     1      46.011   9.290  12.071  0.00  0.00    +0.000 C 
ATOM      9  N   UNL     1      45.893   7.841  11.949  0.00  0.00    +0.000 N 
ATOM     10  C   UNL     1      44.667   7.379  11.430  0.00  0.00    +0.000 C 
ATOM     11  O   UNL     1      43.778   8.163  11.089  0.00  0.00    +0.000 OA
BRANCH  10  12
ATOM     12  C   UNL     1      44.382   5.922  11.241  0.00  0.00    +0.000 A 
ATOM     13  C   UNL     1      43.417   5.219  11.968  0.00  0.00    +0.000 A 
ATOM     14  C   UNL     1      43.220   3.850  11.761  0.00  0.00    +0.000 A 
ATOM     15  C   UNL     1      43.925   3.188  10.761  0.00  0.00    +0.000 A 
ATOM     16  C   UNL     1      44.827   3.892   9.968  0.00  0.00    +0.000 A 
ATOM     17  C   UNL     1      45.062   5.249  10.213  0.00  0.00    +0.000 A 
ENDBRANCH  10  12
ENDBRANCH   7   9
ENDBRANCH   1   7
BRANCH   4  18
ATOM     18  C   UNL     1      48.023   4.336  17.138  0.00  0.00    +0.000 C 
BRANCH  18  19
ATOM     19  N   UNL     1      49.399   3.964  17.327  0.00  0.00    +0.000 N 
ATOM     20  C   UNL     1      50.087   4.287  18.468  0.00  0.00    +0.000 C 
ATOM     21  O   UNL     1      49.554   4.863  19.409  0.00  0.00    +0.000 OA
ATOM     22  H   UNL     1      49.915   3.694  16.495  0.00  0.00    +0.000 HD
BRANCH  20  23
ATOM     23  C   UNL     1      51.486   3.843  18.526  0.00  0.00    +0.000 A 
ATOM     24  C   UNL     1      52.449   4.672  19.083  0.00  0.00    +0.000 A 
ATOM     25  S   UNL     1      54.004   3.973  19.136  0.00  0.00    +0.000 S 
ATOM     26  C   UNL     1      53.457   2.559  18.364  0.00  0.00    +0.000 A 
ATOM     27  N   UNL     1      54.313   1.540  18.084  0.00  0.00    +0.000 NA
ATOM     28  C   UNL     1      53.774   0.543  17.464  0.00  0.00    +0.000 A 
ATOM     29  N   UNL     1      52.453   0.473  17.103  0.00  0.00    +0.000 N 
ATOM     30  C   UNL     1      51.547   1.462  17.395  0.00  0.00    +0.000 A 
ATOM     31  O   UNL     1      50.358   1.344  17.093  0.00  0.00    +0.000 OA
ATOM     32  C   UNL     1      52.102   2.610  18.082  0.00  0.00    +0.000 A 
ATOM     33  H   UNL     1      52.092  -0.339  16.623  0.00  0.00    +0.000 HD
ENDBRANCH  20  23
ENDBRANCH  18  19
ENDBRANCH   4  18
TORSDOF 6
ENDMDL
