MODEL 1
REMARK VINA RESULT:    -8.614      0.000      0.000
REMARK INTER + INTRA:         -13.779
REMARK INTER:                 -12.390
REMARK INTRA:                  -1.389
REMARK UNBOUND:                -1.389
REMARK  Name = 
REMARK  8 active torsions:
REMARK  status: ('A' for Active; 'I' for Inactive)
REMARK    1  A    between atoms: N_1  and  C_2
REMARK    2  A    between atoms: C_2  and  C_3
REMARK    3  A    between atoms: C_3  and  N_4
REMARK    4  A    between atoms: C_3  and  C_17
REMARK    5  A    between atoms: C_5  and  C_7
REMARK    6  A    between atoms: C_20  and  O_21
REMARK    7  A    between atoms: O_21  and  C_22
REMARK    8  A    between atoms: C_22  and  C_23
REMARK                            x       y       z     vdW  Elec       q    Type
REMARK                         _______ _______ _______ _____ _____    ______ ____
ROOT
ATOM      1  C   UNL     1      44.071   3.856  10.090  0.00  0.00    +0.000 C 
ENDROOT
BRANCH   1   2
ATOM      2  C   UNL     1      45.018   3.259   9.048  0.00  0.00    +0.000 A 
ATOM      3  C   UNL     1      45.285   1.881   9.039  0.00  0.00    +0.000 A 
ATOM      4  C   UNL     1      46.176   1.337   8.112  0.00  0.00    +0.000 A 
ATOM      5  C   UNL     1      46.788   2.154   7.161  0.00  0.00    +0.000 A 
ATOM      6  C   UNL     1      46.567   3.531   7.191  0.00  0.00    +0.000 A 
ATOM      7  C   UNL     1      45.692   4.077   8.127  0.00  0.00    +0.000 A 
BRANCH   5   8
ATOM      8  O   UNL     1      47.582   1.514   6.248  0.00  0.00    +0.000 OA
BRANCH   8   9
ATOM      9  C   UNL     1      47.443   1.992   4.905  0.00  0.00    +0.000 C 
BRANCH   9  10
ATOM     10  C   UNL     1      46.878   0.924   3.997  0.00  0.00    +0.000 A 
ATOM     11  C   UNL     1      45.892   1.213   3.060  0.00  0.00    +0.000 A 
ATOM     12  C   UNL     1      45.400   0.185   2.263  0.00  0.00    +0.000 A 
ATOM     13  C   UNL     1      45.894  -1.103   2.428  0.00  0.00    +0.000 A 
ATOM     14  C   UNL     1      46.861  -1.312   3.392  0.00  0.00    +0.000 A 
ATOM     15  N   UNL     1      47.357  -0.335   4.181  0.00  0.00    +0.000 NA
ENDBRANCH   9  10
ENDBRANCH   8   9
ENDBRANCH   5   8
ENDBRANCH   1   2
BRANCH   1  16
ATOM     16  N   UNL     1      44.728   4.985  10.753  0.00  0.00    +0.000 N 
ATOM     17  C   UNL     1      44.047   6.061  11.259  0.00  0.00    +0.000 C 
ATOM     18  O   UNL     1      42.823   6.118  11.282  0.00  0.00    +0.000 OA
ATOM     19  H   UNL     1      45.706   5.123  10.513  0.00  0.00    +0.000 HD
BRANCH  17  20
ATOM     20  C   UNL     1      44.860   7.140  11.833  0.00  0.00    +0.000 A 
ATOM     21  C   UNL     1      44.665   8.445  11.401  0.00  0.00    +0.000 A 
ATOM     22  S   UNL     1      45.720   9.571  12.125  0.00  0.00    +0.000 S 
ATOM     23  C   UNL     1      46.500   8.348  13.015  0.00  0.00    +0.000 A 
ATOM     24  N   UNL     1      47.568   8.632  13.808  0.00  0.00    +0.000 NA
ATOM     25  C   UNL     1      48.083   7.604  14.396  0.00  0.00    +0.000 A 
ATOM     26  N   UNL     1      47.609   6.322  14.286  0.00  0.00    +0.000 N 
ATOM     27  C   UNL     1      46.495   6.000  13.548  0.00  0.00    +0.000 A 
ATOM     28  O   UNL     1      46.023   4.869  13.558  0.00  0.00    +0.000 OA
ATOM     29  C   UNL     1      45.922   7.108  12.809  0.00  0.00    +0.000 A 
ATOM     30  H   UNL     1      48.034   5.567  14.806  0.00  0.00    +0.000 HD
ENDBRANCH  17  20
ENDBRANCH   1  16
BRANCH   1  31
ATOM     31  C   UNL     1      43.616   2.738  11.082  0.00  0.00    +0.000 C 
BRANCH  31  32
ATOM     32  N   UNL     1      44.302   2.748  12.384  0.00  0.00    +0.000 NA
ATOM     33  H   UNL     1      44.393   3.715  12.695  0.00  0.00    +0.000 HD
ATOM     34  H   UNL     1      45.256   2.406  12.266  0.00  0.00    +0.000 HD
ENDBRANCH  31  32
ENDBRANCH   1  31
TORSDOF 8
ENDMDL
MODEL 2
REMARK VINA RESULT:    -7.821      3.050      5.435
REMARK INTER + INTRA:         -12.639
REMARK INTER:                 -11.714
REMARK INTRA:                  -0.924
REMARK UNBOUND:                -1.389
REMARK  Name = 
REMARK  8 active torsions:
REMARK  status: ('A' for Active; 'I' for Inactive)
REMARK    1  A    between atoms: N_1  and  C_2
REMARK    2  A    between atoms: C_2  and  C_3
REMARK    3  A    between atoms: C_3  and  N_4
REMARK    4  A    between atoms: C_3  and  C_17
REMARK    5  A    between atoms: C_5  and  C_7
REMARK    6  A    between atoms: C_20  and  O_21
REMARK    7  A    between atoms: O_21  and  C_22
REMARK    8  A    between atoms: C_22  and  C_23
REMARK                            x       y       z     vdW  Elec       q    Type
REMARK                         _______ _______ _______ _____ _____    ______ ____
ROOT
ATOM      1  C   UNL     1      46.683   7.817  12.786  0.00  0.00    +0.000 C 
ENDROOT
BRANCH   1   2
ATOM      2  C   UNL     1      45.983   6.710  11.998  0.00  0.00    +0.000 A 
ATOM      3  C   UNL     1      46.376   6.419  10.682  0.00  0.00    +0.000 A 
ATOM      4  C   UNL     1      45.715   5.432   9.946  0.00  0.00    +0.000 A 
ATOM      5  C   UNL     1      44.678   4.701  10.523  0.00  0.00    +0.000 A 
ATOM      6  C   UNL     1      44.248   5.014  11.812  0.00  0.00    +0.000 A 
ATOM      7  C   UNL     1      44.894   6.010  12.541  0.00  0.00    +0.000 A 
BRANCH   5   8
ATOM      8  O   UNL     1      44.148   3.704   9.748  0.00  0.00    +0.000 OA
BRANCH   8   9
ATOM      9  C   UNL     1      44.894   2.482   9.763  0.00  0.00    +0.000 C 
BRANCH   9  10
ATOM     10  C   UNL     1      45.687   2.305   8.489  0.00  0.00    +0.000 A 
ATOM     11  C   UNL     1      45.688   3.276   7.493  0.00  0.00    +0.000 A 
ATOM     12  C   UNL     1      46.425   3.050   6.335  0.00  0.00    +0.000 A 
ATOM     13  C   UNL     1      47.130   1.861   6.196  0.00  0.00    +0.000 A 
ATOM     14  C   UNL     1      47.063   0.939   7.222  0.00  0.00    +0.000 A 
ATOM     15  N   UNL     1      46.357   1.130   8.357  0.00  0.00    +0.000 NA
ENDBRANCH   9  10
ENDBRANCH   8   9
ENDBRANCH   5   8
ENDBRANCH   1   2
BRANCH   1  16
ATOM     16  N   UNL     1      47.155   7.280  14.064  0.00  0.00    +0.000 N 
ATOM     17  C   UNL     1      48.430   6.818  14.262  0.00  0.00    +0.000 C 
ATOM     18  O   UNL     1      49.306   6.907  13.408  0.00  0.00    +0.000 OA
ATOM     19  H   UNL     1      46.430   6.929  14.683  0.00  0.00    +0.000 HD
BRANCH  17  20
ATOM     20  C   UNL     1      48.723   6.250  15.583  0.00  0.00    +0.000 A 
ATOM     21  C   UNL     1      49.684   6.850  16.386  0.00  0.00    +0.000 A 
ATOM     22  S   UNL     1      49.943   6.041  17.864  0.00  0.00    +0.000 S 
ATOM     23  C   UNL     1      48.807   4.838  17.466  0.00  0.00    +0.000 A 
ATOM     24  N   UNL     1      48.589   3.780  18.293  0.00  0.00    +0.000 NA
ATOM     25  C   UNL     1      47.727   2.927  17.850  0.00  0.00    +0.000 A 
ATOM     26  N   UNL     1      47.043   3.049  16.668  0.00  0.00    +0.000 N 
ATOM     27  C   UNL     1      47.184   4.132  15.834  0.00  0.00    +0.000 A 
ATOM     28  O   UNL     1      46.478   4.276  14.843  0.00  0.00    +0.000 OA
ATOM     29  C   UNL     1      48.194   5.085  16.250  0.00  0.00    +0.000 A 
ATOM     30  H   UNL     1      46.351   2.365  16.398  0.00  0.00    +0.000 HD
ENDBRANCH  17  20
ENDBRANCH   1  16
BRANCH   1  31
ATOM     31  C   UNL     1      45.715   9.033  12.948  0.00  0.00    +0.000 C 
BRANCH  31  32
ATOM     32  N   UNL     1      46.251  10.319  12.472  0.00  0.00    +0.000 NA
ATOM     33  H   UNL     1      46.570  10.200  11.511  0.00  0.00    +0.000 HD
ATOM     34  H   UNL     1      47.082  10.559  13.012  0.00  0.00    +0.000 HD
ENDBRANCH  31  32
ENDBRANCH   1  31
TORSDOF 8
ENDMDL
MODEL 3
REMARK VINA RESULT:    -7.648      3.728      6.458
REMARK INTER + INTRA:         -12.390
REMARK INTER:                 -11.098
REMARK INTRA:                  -1.293
REMARK UNBOUND:                -1.389
REMARK  Name = 
REMARK  8 active torsions:
REMARK  status: ('A' for Active; 'I' for Inactive)
REMARK    1  A    between atoms: N_1  and  C_2
REMARK    2  A    between atoms: C_2  and  C_3
REMARK    3  A    between atoms: C_3  and  N_4
REMARK    4  A    between atoms: C_3  and  C_17
REMARK    5  A    between atoms: C_5  and  C_7
REMARK    6  A    between atoms: C_20  and  O_21
REMARK    7  A    between atoms: O_21  and  C_22
REMARK    8  A    between atoms: C_22  and  C_23
REMARK                            x       y       z     vdW  Elec       q    Type
REMARK                         _______ _______ _______ _____ _____    ______ ____
ROOT
ATOM      1  C   UNL     1      47.982   6.885  13.765  0.00  0.00    +0.000 C 
ENDROOT
BRANCH   1   2
ATOM      2  C   UNL     1      46.991   6.018  12.989  0.00  0.00    +0.000 A 
ATOM      3  C   UNL     1      46.430   6.483  11.789  0.00  0.00    +0.000 A 
ATOM      4  C   UNL     1      45.497   5.709  11.095  0.00  0.00    +0.000 A 
ATOM      5  C   UNL     1      45.137   4.448  11.569  0.00  0.00    +0.000 A 
ATOM      6  C   UNL     1      45.652   3.996  12.785  0.00  0.00    +0.000 A 
ATOM      7  C   UNL     1      46.568   4.775  13.488  0.00  0.00    +0.000 A 
BRANCH   5   8
ATOM      8  O   UNL     1      44.277   3.735  10.777  0.00  0.00    +0.000 OA
BRANCH   8   9
ATOM      9  C   UNL     1      44.264   4.140   9.404  0.00  0.00    +0.000 C 
BRANCH   9  10
ATOM     10  C   UNL     1      45.258   3.346   8.587  0.00  0.00    +0.000 A 
ATOM     11  C   UNL     1      45.447   1.985   8.795  0.00  0.00    +0.000 A 
ATOM     12  C   UNL     1      46.388   1.311   8.023  0.00  0.00    +0.000 A 
ATOM     13  C   UNL     1      47.121   2.013   7.074  0.00  0.00    +0.000 A 
ATOM     14  C   UNL     1      46.887   3.367   6.940  0.00  0.00    +0.000 A 
ATOM     15  N   UNL     1      45.982   4.048   7.675  0.00  0.00    +0.000 NA
ENDBRANCH   9  10
ENDBRANCH   8   9
ENDBRANCH   5   8
ENDBRANCH   1   2
BRANCH   1  16
ATOM     16  N   UNL     1      47.961   6.499  15.178  0.00  0.00    +0.000 N 
ATOM     17  C   UNL     1      49.095   6.294  15.920  0.00  0.00    +0.000 C 
ATOM     18  O   UNL     1      50.220   6.510  15.482  0.00  0.00    +0.000 OA
ATOM     19  H   UNL     1      47.109   6.044  15.493  0.00  0.00    +0.000 HD
BRANCH  17  20
ATOM     20  C   UNL     1      48.901   5.846  17.304  0.00  0.00    +0.000 A 
ATOM     21  C   UNL     1      49.186   4.529  17.642  0.00  0.00    +0.000 A 
ATOM     22  S   UNL     1      48.860   4.156  19.272  0.00  0.00    +0.000 S 
ATOM     23  C   UNL     1      48.292   5.730  19.575  0.00  0.00    +0.000 A 
ATOM     24  N   UNL     1      47.786   6.070  20.792  0.00  0.00    +0.000 NA
ATOM     25  C   UNL     1      47.359   7.286  20.870  0.00  0.00    +0.000 A 
ATOM     26  N   UNL     1      47.417   8.202  19.851  0.00  0.00    +0.000 N 
ATOM     27  C   UNL     1      47.977   7.921  18.628  0.00  0.00    +0.000 A 
ATOM     28  O   UNL     1      48.123   8.789  17.775  0.00  0.00    +0.000 OA
ATOM     29  C   UNL     1      48.407   6.547  18.464  0.00  0.00    +0.000 A 
ATOM     30  H   UNL     1      47.102   9.151  19.991  0.00  0.00    +0.000 HD
ENDBRANCH  17  20
ENDBRANCH   1  16
BRANCH   1  31
ATOM     31  C   UNL     1      47.648   8.393  13.533  0.00  0.00    +0.000 C 
BRANCH  31  32
ATOM     32  N   UNL     1      47.225   9.127  14.736  0.00  0.00    +0.000 NA
ATOM     33  H   UNL     1      47.998   9.716  15.045  0.00  0.00    +0.000 HD
ATOM     34  H   UNL     1      47.061   8.466  15.495  0.00  0.00    +0.000 HD
ENDBRANCH  31  32
ENDBRANCH   1  31
TORSDOF 8
ENDMDL
MODEL 4
REMARK VINA RESULT:    -7.449      3.794      6.690
REMARK INTER + INTRA:         -12.104
REMARK INTER:                 -10.962
REMARK INTRA:                  -1.142
REMARK UNBOUND:                -1.389
REMARK  Name = 
REMARK  8 active torsions:
REMARK  status: ('A' for Active; 'I' for Inactive)
REMARK    1  A    between atoms: N_1  and  C_2
REMARK    2  A    between atoms: C_2  and  C_3
REMARK    3  A    between atoms: C_3  and  N_4
REMARK    4  A    between atoms: C_3  and  C_17
REMARK    5  A    between atoms: C_5  and  C_7
REMARK    6  A    between atoms: C_20  and  O_21
REMARK    7  A    between atoms: O_21  and  C_22
REMARK    8  A    between atoms: C_22  and  C_23
REMARK                            x       y       z     vdW  Elec       q    Type
REMARK                         _______ _______ _______ _____ _____    ______ ____
ROOT
ATOM      1  C   UNL     1      48.550   6.251  13.910  0.00  0.00    +0.000 C 
ENDROOT
BRANCH   1   2
ATOM      2  C   UNL     1      47.318   5.670  13.216  0.00  0.00    +0.000 A 
ATOM      3  C   UNL     1      46.624   6.422  12.255  0.00  0.00    +0.000 A 
ATOM      4  C   UNL     1      45.478   5.909  11.644  0.00  0.00    +0.000 A 
ATOM      5  C   UNL     1      45.026   4.628  11.959  0.00  0.00    +0.000 A 
ATOM      6  C   UNL     1      45.680   3.890  12.946  0.00  0.00    +0.000 A 
ATOM      7  C   UNL     1      46.813   4.408  13.570  0.00  0.00    +0.000 A 
BRANCH   5   8
ATOM      8  O   UNL     1      43.942   4.186  11.250  0.00  0.00    +0.000 OA
BRANCH   8   9
ATOM      9  C   UNL     1      43.924   4.596   9.878  0.00  0.00    +0.000 C 
BRANCH   9  10
ATOM     10  C   UNL     1      44.849   3.747   9.037  0.00  0.00    +0.000 A 
ATOM     11  C   UNL     1      44.967   2.377   9.244  0.00  0.00    +0.000 A 
ATOM     12  C   UNL     1      45.846   1.649   8.449  0.00  0.00    +0.000 A 
ATOM     13  C   UNL     1      46.592   2.307   7.478  0.00  0.00    +0.000 A 
ATOM     14  C   UNL     1      46.431   3.673   7.347  0.00  0.00    +0.000 A 
ATOM     15  N   UNL     1      45.587   4.405   8.104  0.00  0.00    +0.000 NA
ENDBRANCH   9  10
ENDBRANCH   8   9
ENDBRANCH   5   8
ENDBRANCH   1   2
BRANCH   1  16
ATOM     16  N   UNL     1      48.226   6.545  15.308  0.00  0.00    +0.000 N 
ATOM     17  C   UNL     1      49.136   6.450  16.328  0.00  0.00    +0.000 C 
ATOM     18  O   UNL     1      50.321   6.202  16.136  0.00  0.00    +0.000 OA
ATOM     19  H   UNL     1      47.242   6.472  15.552  0.00  0.00    +0.000 HD
BRANCH  17  20
ATOM     20  C   UNL     1      48.634   6.715  17.682  0.00  0.00    +0.000 A 
ATOM     21  C   UNL     1      48.215   7.996  18.016  0.00  0.00    +0.000 A 
ATOM     22  S   UNL     1      47.710   8.149  19.636  0.00  0.00    +0.000 S 
ATOM     23  C   UNL     1      48.068   6.518  19.958  0.00  0.00    +0.000 A 
ATOM     24  N   UNL     1      47.923   6.003  21.210  0.00  0.00    +0.000 NA
ATOM     25  C   UNL     1      48.264   4.762  21.318  0.00  0.00    +0.000 A 
ATOM     26  N   UNL     1      48.710   3.981  20.283  0.00  0.00    +0.000 N 
ATOM     27  C   UNL     1      48.810   4.442  18.992  0.00  0.00    +0.000 A 
ATOM     28  O   UNL     1      49.099   3.694  18.064  0.00  0.00    +0.000 OA
ATOM     29  C   UNL     1      48.508   5.850  18.829  0.00  0.00    +0.000 A 
ATOM     30  H   UNL     1      48.922   3.004  20.426  0.00  0.00    +0.000 HD
ENDBRANCH  17  20
ENDBRANCH   1  16
BRANCH   1  31
ATOM     31  C   UNL     1      49.055   7.499  13.118  0.00  0.00    +0.000 C 
BRANCH  31  32
ATOM     32  N   UNL     1      50.501   7.754  13.220  0.00  0.00    +0.000 NA
ATOM     33  H   UNL     1      50.955   6.910  13.566  0.00  0.00    +0.000 HD
ATOM     34  H   UNL     1      50.668   8.468  13.929  0.00  0.00    +0.000 HD
ENDBRANCH  31  32
ENDBRANCH   1  31
TORSDOF 8
ENDMDL
MODEL 5
REMARK VINA RESULT:    -7.291      1.667      2.692
REMARK INTER + INTRA:         -11.876
REMARK INTER:                 -11.071
REMARK INTRA:                  -0.805
REMARK UNBOUND:                -1.389
REMARK  Name = 
REMARK  8 active torsions:
REMARK  status: ('A' for Active; 'I' for Inactive)
REMARK    1  A    between atoms: N_1  and  C_2
REMARK    2  A    between atoms: C_2  and  C_3
REMARK    3  A    between atoms: C_3  and  N_4
REMARK    4  A    between atoms: C_3  and  C_17
REMARK    5  A    between atoms: C_5  and  C_7
REMARK    6  A    between atoms: C_20  and  O_21
REMARK    7  A    between atoms: O_21  and  C_22
REMARK    8  A    between atoms: C_22  and  C_23
REMARK                            x       y       z     vdW  Elec       q    Type
REMARK                         _______ _______ _______ _____ _____    ______ ____
ROOT
ATOM      1  C   UNL     1      44.232   4.355  10.005  0.00  0.00    +0.000 C 
ENDROOT
BRANCH   1   2
ATOM      2  C   UNL     1      45.138   3.589   9.041  0.00  0.00    +0.000 A 
ATOM      3  C   UNL     1      45.799   4.262   8.003  0.00  0.00    +0.000 A 
ATOM      4  C   UNL     1      46.600   3.560   7.098  0.00  0.00    +0.000 A 
ATOM      5  C   UNL     1      46.776   2.184   7.236  0.00  0.00    +0.000 A 
ATOM      6  C   UNL     1      46.085   1.497   8.234  0.00  0.00    +0.000 A 
ATOM      7  C   UNL     1      45.273   2.194   9.127  0.00  0.00    +0.000 A 
BRANCH   5   8
ATOM      8  O   UNL     1      47.640   1.601   6.348  0.00  0.00    +0.000 OA
BRANCH   8   9
ATOM      9  C   UNL     1      47.518   2.078   5.003  0.00  0.00    +0.000 C 
BRANCH   9  10
ATOM     10  C   UNL     1      46.929   1.022   4.096  0.00  0.00    +0.000 A 
ATOM     11  C   UNL     1      45.938   1.329   3.170  0.00  0.00    +0.000 A 
ATOM     12  C   UNL     1      45.423   0.311   2.373  0.00  0.00    +0.000 A 
ATOM     13  C   UNL     1      45.901  -0.984   2.528  0.00  0.00    +0.000 A 
ATOM     14  C   UNL     1      46.873  -1.211   3.483  0.00  0.00    +0.000 A 
ATOM     15  N   UNL     1      47.391  -0.245   4.271  0.00  0.00    +0.000 NA
ENDBRANCH   9  10
ENDBRANCH   8   9
ENDBRANCH   5   8
ENDBRANCH   1   2
BRANCH   1  16
ATOM     16  N   UNL     1      44.932   5.549  10.484  0.00  0.00    +0.000 N 
ATOM     17  C   UNL     1      44.305   6.582  11.130  0.00  0.00    +0.000 C 
ATOM     18  O   UNL     1      43.120   6.543  11.444  0.00  0.00    +0.000 OA
ATOM     19  H   UNL     1      45.810   5.756  10.016  0.00  0.00    +0.000 HD
BRANCH  17  20
ATOM     20  C   UNL     1      45.139   7.736  11.486  0.00  0.00    +0.000 A 
ATOM     21  C   UNL     1      46.396   7.526  12.038  0.00  0.00    +0.000 A 
ATOM     22  S   UNL     1      47.214   8.966  12.442  0.00  0.00    +0.000 S 
ATOM     23  C   UNL     1      45.903   9.919  11.926  0.00  0.00    +0.000 A 
ATOM     24  N   UNL     1      45.926  11.273  12.062  0.00  0.00    +0.000 NA
ATOM     25  C   UNL     1      44.851  11.866  11.662  0.00  0.00    +0.000 A 
ATOM     26  N   UNL     1      43.766  11.232  11.113  0.00  0.00    +0.000 N 
ATOM     27  C   UNL     1      43.727   9.875  10.899  0.00  0.00    +0.000 A 
ATOM     28  O   UNL     1      42.796   9.347  10.301  0.00  0.00    +0.000 OA
ATOM     29  C   UNL     1      44.880   9.152  11.396  0.00  0.00    +0.000 A 
ATOM     30  H   UNL     1      42.971  11.760  10.782  0.00  0.00    +0.000 HD
ENDBRANCH  17  20
ENDBRANCH   1  16
BRANCH   1  31
ATOM     31  C   UNL     1      43.775   3.405  11.158  0.00  0.00    +0.000 C 
BRANCH  31  32
ATOM     32  N   UNL     1      42.485   3.754  11.774  0.00  0.00    +0.000 NA
ATOM     33  H   UNL     1      41.833   2.986  11.617  0.00  0.00    +0.000 HD
ATOM     34  H   UNL     1      42.087   4.559  11.291  0.00  0.00    +0.000 HD
ENDBRANCH  31  32
ENDBRANCH   1  31
TORSDOF 8
ENDMDL
MODEL 6
REMARK VINA RESULT:    -7.121      3.197      5.125
REMARK INTER + INTRA:         -11.632
REMARK INTER:                 -10.279
REMARK INTRA:                  -1.353
REMARK UNBOUND:                -1.389
REMARK  Name = 
REMARK  8 active torsions:
REMARK  status: ('A' for Active; 'I' for Inactive)
REMARK    1  A    between atoms: N_1  and  C_2
REMARK    2  A    between atoms: C_2  and  C_3
REMARK    3  A    between atoms: C_3  and  N_4
REMARK    4  A    between atoms: C_3  and  C_17
REMARK    5  A    between atoms: C_5  and  C_7
REMARK    6  A    between atoms: C_20  and  O_21
REMARK    7  A    between atoms: O_21  and  C_22
REMARK    8  A    between atoms: C_22  and  C_23
REMARK                            x       y       z     vdW  Elec       q    Type
REMARK                         _______ _______ _______ _____ _____    ______ ____
ROOT
ATOM      1  C   UNL     1      46.916   5.604  14.108  0.00  0.00    +0.000 C 
ENDROOT
BRANCH   1   2
ATOM      2  C   UNL     1      46.175   5.054  12.889  0.00  0.00    +0.000 A 
ATOM      3  C   UNL     1      45.712   3.729  12.879  0.00  0.00    +0.000 A 
ATOM      4  C   UNL     1      45.066   3.212  11.753  0.00  0.00    +0.000 A 
ATOM      5  C   UNL     1      44.845   4.018  10.637  0.00  0.00    +0.000 A 
ATOM      6  C   UNL     1      45.343   5.321  10.618  0.00  0.00    +0.000 A 
ATOM      7  C   UNL     1      46.003   5.832  11.733  0.00  0.00    +0.000 A 
BRANCH   5   8
ATOM      8  O   UNL     1      44.135   3.444   9.617  0.00  0.00    +0.000 OA
BRANCH   8   9
ATOM      9  C   UNL     1      44.557   2.119   9.275  0.00  0.00    +0.000 C 
BRANCH   9  10
ATOM     10  C   UNL     1      45.660   2.142   8.242  0.00  0.00    +0.000 A 
ATOM     11  C   UNL     1      45.889   3.260   7.448  0.00  0.00    +0.000 A 
ATOM     12  C   UNL     1      46.909   3.217   6.503  0.00  0.00    +0.000 A 
ATOM     13  C   UNL     1      47.666   2.059   6.368  0.00  0.00    +0.000 A 
ATOM     14  C   UNL     1      47.365   0.985   7.182  0.00  0.00    +0.000 A 
ATOM     15  N   UNL     1      46.381   0.997   8.107  0.00  0.00    +0.000 NA
ENDBRANCH   9  10
ENDBRANCH   8   9
ENDBRANCH   5   8
ENDBRANCH   1   2
BRANCH   1  16
ATOM     16  N   UNL     1      48.065   6.394  13.663  0.00  0.00    +0.000 N 
ATOM     17  C   UNL     1      48.756   7.249  14.482  0.00  0.00    +0.000 C 
ATOM     18  O   UNL     1      48.522   7.346  15.682  0.00  0.00    +0.000 OA
ATOM     19  H   UNL     1      48.115   6.566  12.663  0.00  0.00    +0.000 HD
BRANCH  17  20
ATOM     20  C   UNL     1      49.841   8.018  13.863  0.00  0.00    +0.000 A 
ATOM     21  C   UNL     1      51.132   7.900  14.363  0.00  0.00    +0.000 A 
ATOM     22  S   UNL     1      52.266   8.895  13.569  0.00  0.00    +0.000 S 
ATOM     23  C   UNL     1      51.065   9.545  12.554  0.00  0.00    +0.000 A 
ATOM     24  N   UNL     1      51.361  10.526  11.659  0.00  0.00    +0.000 NA
ATOM     25  C   UNL     1      50.348  10.951  10.980  0.00  0.00    +0.000 A 
ATOM     26  N   UNL     1      49.071  10.464  11.094  0.00  0.00    +0.000 N 
ATOM     27  C   UNL     1      48.741   9.430  11.938  0.00  0.00    +0.000 A 
ATOM     28  O   UNL     1      47.620   8.935  11.937  0.00  0.00    +0.000 OA
ATOM     29  C   UNL     1      49.828   8.965  12.776  0.00  0.00    +0.000 A 
ATOM     30  H   UNL     1      48.330  10.812  10.503  0.00  0.00    +0.000 HD
ENDBRANCH  17  20
ENDBRANCH   1  16
BRANCH   1  31
ATOM     31  C   UNL     1      47.308   4.425  15.056  0.00  0.00    +0.000 C 
BRANCH  31  32
ATOM     32  N   UNL     1      47.107   4.689  16.490  0.00  0.00    +0.000 NA
ATOM     33  H   UNL     1      46.176   5.085  16.618  0.00  0.00    +0.000 HD
ATOM     34  H   UNL     1      47.759   5.411  16.795  0.00  0.00    +0.000 HD
ENDBRANCH  31  32
ENDBRANCH   1  31
TORSDOF 8
ENDMDL
MODEL 7
REMARK VINA RESULT:    -6.909      3.068      5.035
REMARK INTER + INTRA:         -11.327
REMARK INTER:                 -10.009
REMARK INTRA:                  -1.318
REMARK UNBOUND:                -1.389
REMARK  Name = 
REMARK  8 active torsions:
REMARK  status: ('A' for Active; 'I' for Inactive)
REMARK    1  A    between atoms: N_1  and  C_2
REMARK    2  A    between atoms: C_2  and  C_3
REMARK    3  A    between atoms: C_3  and  N_4
REMARK    4  A    between atoms: C_3  and  C_17
REMARK    5  A    between atoms: C_5  and  C_7
REMARK    6  A    between atoms: C_20  and  O_21
REMARK    7  A    between atoms: O_21  and  C_22
REMARK    8  A    between atoms: C_22  and  C_23
REMARK                            x       y       z     vdW  Elec       q    Type
REMARK                         _______ _______ _______ _____ _____    ______ ____
ROOT
ATOM      1  C   UNL     1      46.922   5.765  14.154  0.00  0.00    +0.000 C 
ENDROOT
BRANCH   1   2
ATOM      2  C   UNL     1      46.186   5.198  12.941  0.00  0.00    +0.000 A 
ATOM      3  C   UNL     1      45.730   3.871  12.944  0.00  0.00    +0.000 A 
ATOM      4  C   UNL     1      45.089   3.338  11.823  0.00  0.00    +0.000 A 
ATOM      5  C   UNL     1      44.864   4.131  10.698  0.00  0.00    +0.000 A 
ATOM      6  C   UNL     1      45.355   5.436  10.666  0.00  0.00    +0.000 A 
ATOM      7  C   UNL     1      46.011   5.963  11.776  0.00  0.00    +0.000 A 
BRANCH   5   8
ATOM      8  O   UNL     1      44.159   3.541   9.684  0.00  0.00    +0.000 OA
BRANCH   8   9
ATOM      9  C   UNL     1      44.566   3.940   8.370  0.00  0.00    +0.000 C 
BRANCH   9  10
ATOM     10  C   UNL     1      45.658   3.042   7.836  0.00  0.00    +0.000 A 
ATOM     11  C   UNL     1      46.546   3.479   6.859  0.00  0.00    +0.000 A 
ATOM     12  C   UNL     1      47.521   2.602   6.395  0.00  0.00    +0.000 A 
ATOM     13  C   UNL     1      47.578   1.312   6.908  0.00  0.00    +0.000 A 
ATOM     14  C   UNL     1      46.649   0.948   7.863  0.00  0.00    +0.000 A 
ATOM     15  N   UNL     1      45.691   1.777   8.331  0.00  0.00    +0.000 NA
ENDBRANCH   9  10
ENDBRANCH   8   9
ENDBRANCH   5   8
ENDBRANCH   1   2
BRANCH   1  16
ATOM     16  N   UNL     1      48.108   6.497  13.705  0.00  0.00    +0.000 N 
ATOM     17  C   UNL     1      48.155   7.863  13.600  0.00  0.00    +0.000 C 
ATOM     18  O   UNL     1      47.236   8.587  13.967  0.00  0.00    +0.000 OA
ATOM     19  H   UNL     1      48.761   5.964  13.139  0.00  0.00    +0.000 HD
BRANCH  17  20
ATOM     20  C   UNL     1      49.397   8.438  13.070  0.00  0.00    +0.000 A 
ATOM     21  C   UNL     1      49.353   9.217  11.921  0.00  0.00    +0.000 A 
ATOM     22  S   UNL     1      50.883   9.765  11.407  0.00  0.00    +0.000 S 
ATOM     23  C   UNL     1      51.662   8.950  12.681  0.00  0.00    +0.000 A 
ATOM     24  N   UNL     1      53.019   8.954  12.788  0.00  0.00    +0.000 NA
ATOM     25  C   UNL     1      53.476   8.266  13.781  0.00  0.00    +0.000 A 
ATOM     26  N   UNL     1      52.700   7.598  14.693  0.00  0.00    +0.000 N 
ATOM     27  C   UNL     1      51.326   7.621  14.660  0.00  0.00    +0.000 A 
ATOM     28  O   UNL     1      50.654   7.115  15.551  0.00  0.00    +0.000 OA
ATOM     29  C   UNL     1      50.762   8.320  13.522  0.00  0.00    +0.000 A 
ATOM     30  H   UNL     1      53.120   7.112  15.472  0.00  0.00    +0.000 HD
ENDBRANCH  17  20
ENDBRANCH   1  16
BRANCH   1  31
ATOM     31  C   UNL     1      47.253   4.608  15.151  0.00  0.00    +0.000 C 
BRANCH  31  32
ATOM     32  N   UNL     1      48.400   4.863  16.037  0.00  0.00    +0.000 NA
ATOM     33  H   UNL     1      49.251   4.852  15.476  0.00  0.00    +0.000 HD
ATOM     34  H   UNL     1      48.494   4.091  16.697  0.00  0.00    +0.000 HD
ENDBRANCH  31  32
ENDBRANCH   1  31
TORSDOF 8
ENDMDL
MODEL 8
REMARK VINA RESULT:    -6.901      3.313      6.075
REMARK INTER + INTRA:         -11.316
REMARK INTER:                 -10.153
REMARK INTRA:                  -1.163
REMARK UNBOUND:                -1.389
REMARK  Name = 
REMARK  8 active torsions:
REMARK  status: ('A' for Active; 'I' for Inactive)
REMARK    1  A    between atoms: N_1  and  C_2
REMARK    2  A    between atoms: C_2  and  C_3
REMARK    3  A    between atoms: C_3  and  N_4
REMARK    4  A    between atoms: C_3  and  C_17
REMARK    5  A    between atoms: C_5  and  C_7
REMARK    6  A    between atoms: C_20  and  O_21
REMARK    7  A    between atoms: O_21  and  C_22
REMARK    8  A    between atoms: C_22  and  C_23
REMARK                            x       y       z     vdW  Elec       q    Type
REMARK                         _______ _______ _______ _____ _____    ______ ____
ROOT
ATOM      1  C   UNL     1      46.933   8.872  12.690  0.00  0.00    +0.000 C 
ENDROOT
BRANCH   1   2
ATOM      2  C   UNL     1      46.278   7.550  12.291  0.00  0.00    +0.000 A 
ATOM      3  C   UNL     1      45.050   7.543  11.611  0.00  0.00    +0.000 A 
ATOM      4  C   UNL     1      44.431   6.336  11.277  0.00  0.00    +0.000 A 
ATOM      5  C   UNL     1      45.042   5.122  11.587  0.00  0.00    +0.000 A 
ATOM      6  C   UNL     1      46.238   5.117  12.306  0.00  0.00    +0.000 A 
ATOM      7  C   UNL     1      46.848   6.320  12.655  0.00  0.00    +0.000 A 
BRANCH   5   8
ATOM      8  O   UNL     1      44.395   3.999  11.149  0.00  0.00    +0.000 OA
BRANCH   8   9
ATOM      9  C   UNL     1      43.997   4.043   9.774  0.00  0.00    +0.000 C 
BRANCH   9  10
ATOM     10  C   UNL     1      45.040   3.416   8.878  0.00  0.00    +0.000 A 
ATOM     11  C   UNL     1      45.320   2.055   8.930  0.00  0.00    +0.000 A 
ATOM     12  C   UNL     1      46.303   1.538   8.091  0.00  0.00    +0.000 A 
ATOM     13  C   UNL     1      46.986   2.392   7.234  0.00  0.00    +0.000 A 
ATOM     14  C   UNL     1      46.662   3.734   7.255  0.00  0.00    +0.000 A 
ATOM     15  N   UNL     1      45.715   4.265   8.058  0.00  0.00    +0.000 NA
ENDBRANCH   9  10
ENDBRANCH   8   9
ENDBRANCH   5   8
ENDBRANCH   1   2
BRANCH   1  16
ATOM     16  N   UNL     1      47.144   8.893  14.138  0.00  0.00    +0.000 N 
ATOM     17  C   UNL     1      48.383   8.826  14.721  0.00  0.00    +0.000 C 
ATOM     18  O   UNL     1      49.422   8.839  14.068  0.00  0.00    +0.000 OA
ATOM     19  H   UNL     1      46.349   8.600  14.699  0.00  0.00    +0.000 HD
BRANCH  17  20
ATOM     20  C   UNL     1      48.418   8.790  16.187  0.00  0.00    +0.000 A 
ATOM     21  C   UNL     1      48.180   9.956  16.904  0.00  0.00    +0.000 A 
ATOM     22  S   UNL     1      48.307   9.758  18.592  0.00  0.00    +0.000 S 
ATOM     23  C   UNL     1      48.721   8.117  18.423  0.00  0.00    +0.000 A 
ATOM     24  N   UNL     1      49.033   7.358  19.509  0.00  0.00    +0.000 NA
ATOM     25  C   UNL     1      49.361   6.140  19.230  0.00  0.00    +0.000 A 
ATOM     26  N   UNL     1      49.380   5.604  17.968  0.00  0.00    +0.000 N 
ATOM     27  C   UNL     1      49.010   6.316  16.852  0.00  0.00    +0.000 A 
ATOM     28  O   UNL     1      48.923   5.783  15.751  0.00  0.00    +0.000 OA
ATOM     29  C   UNL     1      48.701   7.710  17.100  0.00  0.00    +0.000 A 
ATOM     30  H   UNL     1      49.608   4.631  17.823  0.00  0.00    +0.000 HD
ENDBRANCH  17  20
ENDBRANCH   1  16
BRANCH   1  31
ATOM     31  C   UNL     1      46.060  10.062  12.177  0.00  0.00    +0.000 C 
BRANCH  31  32
ATOM     32  N   UNL     1      46.598  11.399  12.475  0.00  0.00    +0.000 NA
ATOM     33  H   UNL     1      46.383  12.016  11.692  0.00  0.00    +0.000 HD
ATOM     34  H   UNL     1      47.615  11.352  12.520  0.00  0.00    +0.000 HD
ENDBRANCH  31  32
ENDBRANCH   1  31
TORSDOF 8
ENDMDL
MODEL 9
REMARK VINA RESULT:    -6.834      2.994      4.728
REMARK INTER + INTRA:         -11.219
REMARK INTER:                 -10.143
REMARK INTRA:                  -1.077
REMARK UNBOUND:                -1.389
REMARK  Name = 
REMARK  8 active torsions:
REMARK  status: ('A' for Active; 'I' for Inactive)
REMARK    1  A    between atoms: N_1  and  C_2
REMARK    2  A    between atoms: C_2  and  C_3
REMARK    3  A    between atoms: C_3  and  N_4
REMARK    4  A    between atoms: C_3  and  C_17
REMARK    5  A    between atoms: C_5  and  C_7
REMARK    6  A    between atoms: C_20  and  O_21
REMARK    7  A    between atoms: O_21  and  C_22
REMARK    8  A    between atoms: C_22  and  C_23
REMARK                            x       y       z     vdW  Elec       q    Type
REMARK                         _______ _______ _______ _____ _____    ______ ____
ROOT
ATOM      1  C   UNL     1      46.643   6.768  13.142  0.00  0.00    +0.000 C 
ENDROOT
BRANCH   1   2
ATOM      2  C   UNL     1      45.980   5.831  12.133  0.00  0.00    +0.000 A 
ATOM      3  C   UNL     1      45.469   4.590  12.547  0.00  0.00    +0.000 A 
ATOM      4  C   UNL     1      44.894   3.715  11.622  0.00  0.00    +0.000 A 
ATOM      5  C   UNL     1      44.791   4.079  10.280  0.00  0.00    +0.000 A 
ATOM      6  C   UNL     1      45.337   5.288   9.849  0.00  0.00    +0.000 A 
ATOM      7  C   UNL     1      45.928   6.154  10.768  0.00  0.00    +0.000 A 
BRANCH   5   8
ATOM      8  O   UNL     1      44.142   3.188   9.468  0.00  0.00    +0.000 OA
BRANCH   8   9
ATOM      9  C   UNL     1      44.827   1.944   9.286  0.00  0.00    +0.000 C 
BRANCH   9  10
ATOM     10  C   UNL     1      45.811   2.020   8.142  0.00  0.00    +0.000 A 
ATOM     11  C   UNL     1      45.821   3.096   7.262  0.00  0.00    +0.000 A 
ATOM     12  C   UNL     1      46.740   3.103   6.217  0.00  0.00    +0.000 A 
ATOM     13  C   UNL     1      47.616   2.034   6.072  0.00  0.00    +0.000 A 
ATOM     14  C   UNL     1      47.531   0.994   6.978  0.00  0.00    +0.000 A 
ATOM     15  N   UNL     1      46.650   0.959   8.000  0.00  0.00    +0.000 NA
ENDBRANCH   9  10
ENDBRANCH   8   9
ENDBRANCH   5   8
ENDBRANCH   1   2
BRANCH   1  16
ATOM     16  N   UNL     1      47.020   8.014  12.472  0.00  0.00    +0.000 N 
ATOM     17  C   UNL     1      46.237   9.139  12.477  0.00  0.00    +0.000 C 
ATOM     18  O   UNL     1      45.199   9.219  13.126  0.00  0.00    +0.000 OA
ATOM     19  H   UNL     1      47.691   7.917  11.715  0.00  0.00    +0.000 HD
BRANCH  17  20
ATOM     20  C   UNL     1      46.729  10.284  11.701  0.00  0.00    +0.000 A 
ATOM     21  C   UNL     1      45.819  11.113  11.057  0.00  0.00    +0.000 A 
ATOM     22  S   UNL     1      46.551  12.363  10.158  0.00  0.00    +0.000 S 
ATOM     23  C   UNL     1      48.110  11.818  10.569  0.00  0.00    +0.000 A 
ATOM     24  N   UNL     1      49.218  12.422  10.061  0.00  0.00    +0.000 NA
ATOM     25  C   UNL     1      50.333  11.883  10.428  0.00  0.00    +0.000 A 
ATOM     26  N   UNL     1      50.442  10.813  11.278  0.00  0.00    +0.000 N 
ATOM     27  C   UNL     1      49.352  10.214  11.864  0.00  0.00    +0.000 A 
ATOM     28  O   UNL     1      49.480   9.336  12.710  0.00  0.00    +0.000 OA
ATOM     29  C   UNL     1      48.071  10.735  11.429  0.00  0.00    +0.000 A 
ATOM     30  H   UNL     1      51.347  10.464  11.558  0.00  0.00    +0.000 HD
ENDBRANCH  17  20
ENDBRANCH   1  16
BRANCH   1  31
ATOM     31  C   UNL     1      47.851   6.040  13.815  0.00  0.00    +0.000 C 
BRANCH  31  32
ATOM     32  N   UNL     1      49.176   6.477  13.347  0.00  0.00    +0.000 NA
ATOM     33  H   UNL     1      49.247   7.486  13.473  0.00  0.00    +0.000 HD
ATOM     34  H   UNL     1      49.250   6.317  12.343  0.00  0.00    +0.000 HD
ENDBRANCH  31  32
ENDBRANCH   1  31
TORSDOF 8
ENDMDL
