MODEL 1
REMARK VINA RESULT:    -7.833      0.000      0.000
REMARK INTER + INTRA:         -12.975
REMARK INTER:                 -11.496
REMARK INTRA:                  -1.479
REMARK UNBOUND:                -1.479
REMARK  Name = 
REMARK  10 active torsions:
REMARK  status: ('A' for Active; 'I' for Inactive)
REMARK    1  A    between atoms: C_1  and  C_2
REMARK    2  A    between atoms: C_2  and  C_3
REMARK    3  A    between atoms: C_2  and  N_10
REMARK    4  A    between atoms: C_3  and  C_4
REMARK    5  A    between atoms: N_10  and  C_11
REMARK    6  A    between atoms: N_10  and  C_12
REMARK    7  A    between atoms: C_12  and  C_13
REMARK    8  A    between atoms: C_16  and  C_17
REMARK    9  A    between atoms: C_17  and  N_18
REMARK   10  A    between atoms: C_19  and  C_21
REMARK                            x       y       z     vdW  Elec       q    Type
REMARK                         _______ _______ _______ _____ _____    ______ ____
ROOT
ATOM      1  C   UNL     1      46.825   4.700  13.961  0.00  0.00    +0.000 A 
ATOM      2  C   UNL     1      47.607   5.801  13.576  0.00  0.00    +0.000 A 
ATOM      3  C   UNL     1      48.465   6.416  14.494  0.00  0.00    +0.000 A 
ATOM      4  C   UNL     1      48.529   5.962  15.819  0.00  0.00    +0.000 A 
ATOM      5  C   UNL     1      47.751   4.867  16.190  0.00  0.00    +0.000 A 
ATOM      6  F   UNL     1      47.824   4.383  17.439  0.00  0.00    +0.000 F 
ATOM      7  C   UNL     1      46.894   4.250  15.287  0.00  0.00    +0.000 A 
ENDROOT
BRANCH   1   8
ATOM      8  C   UNL     1      45.930   3.986  12.980  0.00  0.00    +0.000 C 
BRANCH   8   9
ATOM      9  N   UNL     1      44.663   4.667  12.615  0.00  0.00    +0.000 NA
ATOM     10  C   UNL     1      43.610   3.636  12.703  0.00  0.00    +0.000 C 
BRANCH   9  12
ATOM     11  C   UNL     1      44.016   6.728  11.226  0.00  0.00    +0.000 C 
ATOM     12  C   UNL     1      44.658   5.329  11.275  0.00  0.00    +0.000 C 
BRANCH  12  13
ATOM     13  C   UNL     1      43.981   4.483  10.145  0.00  0.00    +0.000 C 
BRANCH  13  14
ATOM     14  C   UNL     1      44.905   3.731   9.210  0.00  0.00    +0.000 A 
ATOM     15  C   UNL     1      45.670   4.412   8.250  0.00  0.00    +0.000 A 
ATOM     16  C   UNL     1      46.523   3.713   7.393  0.00  0.00    +0.000 A 
ATOM     17  C   UNL     1      46.627   2.325   7.488  0.00  0.00    +0.000 A 
ATOM     18  C   UNL     1      45.877   1.638   8.437  0.00  0.00    +0.000 A 
ATOM     19  C   UNL     1      45.026   2.339   9.293  0.00  0.00    +0.000 A 
ENDBRANCH  13  14
ENDBRANCH  12  13
ENDBRANCH   9  12
ENDBRANCH   8   9
ENDBRANCH   1   8
BRANCH   4  20
ATOM     20  C   UNL     1      49.418   6.631  16.824  0.00  0.00    +0.000 C 
BRANCH  20  21
ATOM     21  N   UNL     1      50.519   5.791  17.219  0.00  0.00    +0.000 N 
ATOM     22  C   UNL     1      50.688   5.358  18.507  0.00  0.00    +0.000 C 
ATOM     23  O   UNL     1      49.929   5.695  19.413  0.00  0.00    +0.000 OA
ATOM     24  H   UNL     1      51.242   5.627  16.525  0.00  0.00    +0.000 HD
BRANCH  22  25
ATOM     25  C   UNL     1      51.781   4.406  18.745  0.00  0.00    +0.000 A 
ATOM     26  C   UNL     1      52.832   4.778  19.572  0.00  0.00    +0.000 A 
ATOM     27  S   UNL     1      54.008   3.563  19.776  0.00  0.00    +0.000 S 
ATOM     28  C   UNL     1      53.173   2.508  18.735  0.00  0.00    +0.000 A 
ATOM     29  N   UNL     1      53.672   1.275  18.450  0.00  0.00    +0.000 NA
ATOM     30  C   UNL     1      52.956   0.587  17.626  0.00  0.00    +0.000 A 
ATOM     31  N   UNL     1      51.778   1.018  17.068  0.00  0.00    +0.000 N 
ATOM     32  C   UNL     1      51.211   2.232  17.370  0.00  0.00    +0.000 A 
ATOM     33  O   UNL     1      50.111   2.547  16.923  0.00  0.00    +0.000 OA
ATOM     34  C   UNL     1      51.998   3.062  18.262  0.00  0.00    +0.000 A 
ATOM     35  H   UNL     1      51.255   0.421  16.446  0.00  0.00    +0.000 HD
ENDBRANCH  22  25
ENDBRANCH  20  21
ENDBRANCH   4  20
TORSDOF 8
ENDMDL
MODEL 2
REMARK VINA RESULT:    -7.729      4.284      9.209
REMARK INTER + INTRA:         -12.822
REMARK INTER:                  -9.764
REMARK INTRA:                  -3.058
REMARK UNBOUND:                -1.479
REMARK  Name = 
REMARK  10 active torsions:
REMARK  status: ('A' for Active; 'I' for Inactive)
REMARK    1  A    between atoms: C_1  and  C_2
REMARK    2  A    between atoms: C_2  and  C_3
REMARK    3  A    between atoms: C_2  and  N_10
REMARK    4  A    between atoms: C_3  and  C_4
REMARK    5  A    between atoms: N_10  and  C_11
REMARK    6  A    between atoms: N_10  and  C_12
REMARK    7  A    between atoms: C_12  and  C_13
REMARK    8  A    between atoms: C_16  and  C_17
REMARK    9  A    between atoms: C_17  and  N_18
REMARK   10  A    between atoms: C_19  and  C_21
REMARK                            x       y       z     vdW  Elec       q    Type
REMARK                         _______ _______ _______ _____ _____    ______ ____
ROOT
ATOM      1  C   UNL     1      48.266   5.463  20.310  0.00  0.00    +0.000 A 
ATOM      2  C   UNL     1      47.215   5.933  19.505  0.00  0.00    +0.000 A 
ATOM      3  C   UNL     1      46.972   5.359  18.253  0.00  0.00    +0.000 A 
ATOM      4  C   UNL     1      47.794   4.331  17.770  0.00  0.00    +0.000 A 
ATOM      5  C   UNL     1      48.833   3.871  18.578  0.00  0.00    +0.000 A 
ATOM      6  F   UNL     1      49.609   2.859  18.162  0.00  0.00    +0.000 F 
ATOM      7  C   UNL     1      49.085   4.434  19.822  0.00  0.00    +0.000 A 
ENDROOT
BRANCH   1   8
ATOM      8  C   UNL     1      48.522   6.027  21.685  0.00  0.00    +0.000 C 
BRANCH   8   9
ATOM      9  N   UNL     1      49.334   7.267  21.756  0.00  0.00    +0.000 NA
ATOM     10  C   UNL     1      48.381   8.384  21.614  0.00  0.00    +0.000 C 
BRANCH   9  12
ATOM     11  C   UNL     1      51.838   7.640  21.322  0.00  0.00    +0.000 C 
ATOM     12  C   UNL     1      50.435   7.366  20.750  0.00  0.00    +0.000 C 
BRANCH  12  13
ATOM     13  C   UNL     1      50.187   8.434  19.633  0.00  0.00    +0.000 C 
BRANCH  13  14
ATOM     14  C   UNL     1      49.989   7.915  18.224  0.00  0.00    +0.000 A 
ATOM     15  C   UNL     1      48.978   8.433  17.399  0.00  0.00    +0.000 A 
ATOM     16  C   UNL     1      48.802   7.952  16.100  0.00  0.00    +0.000 A 
ATOM     17  C   UNL     1      49.638   6.951  15.606  0.00  0.00    +0.000 A 
ATOM     18  C   UNL     1      50.646   6.431  16.411  0.00  0.00    +0.000 A 
ATOM     19  C   UNL     1      50.821   6.913  17.709  0.00  0.00    +0.000 A 
ENDBRANCH  13  14
ENDBRANCH  12  13
ENDBRANCH   9  12
ENDBRANCH   8   9
ENDBRANCH   1   8
BRANCH   4  20
ATOM     20  C   UNL     1      47.567   3.729  16.417  0.00  0.00    +0.000 C 
BRANCH  20  21
ATOM     21  N   UNL     1      46.971   4.664  15.499  0.00  0.00    +0.000 N 
ATOM     22  C   UNL     1      46.890   4.425  14.154  0.00  0.00    +0.000 C 
ATOM     23  O   UNL     1      47.359   3.410  13.643  0.00  0.00    +0.000 OA
ATOM     24  H   UNL     1      46.716   5.574  15.873  0.00  0.00    +0.000 HD
BRANCH  22  25
ATOM     25  C   UNL     1      46.146   5.405  13.352  0.00  0.00    +0.000 A 
ATOM     26  C   UNL     1      46.716   6.647  13.104  0.00  0.00    +0.000 A 
ATOM     27  S   UNL     1      45.750   7.665  12.139  0.00  0.00    +0.000 S 
ATOM     28  C   UNL     1      44.518   6.496  12.048  0.00  0.00    +0.000 A 
ATOM     29  N   UNL     1      43.365   6.753  11.374  0.00  0.00    +0.000 NA
ATOM     30  C   UNL     1      42.502   5.794  11.406  0.00  0.00    +0.000 A 
ATOM     31  N   UNL     1      42.693   4.595  12.044  0.00  0.00    +0.000 N 
ATOM     32  C   UNL     1      43.861   4.272  12.691  0.00  0.00    +0.000 A 
ATOM     33  O   UNL     1      44.032   3.155  13.174  0.00  0.00    +0.000 OA
ATOM     34  C   UNL     1      44.850   5.333  12.719  0.00  0.00    +0.000 A 
ATOM     35  H   UNL     1      41.985   3.877  12.013  0.00  0.00    +0.000 HD
ENDBRANCH  22  25
ENDBRANCH  20  21
ENDBRANCH   4  20
TORSDOF 8
ENDMDL
MODEL 3
REMARK VINA RESULT:    -7.653      3.862     10.052
REMARK INTER + INTRA:         -12.711
REMARK INTER:                  -9.800
REMARK INTRA:                  -2.911
REMARK UNBOUND:                -1.479
REMARK  Name = 
REMARK  10 active torsions:
REMARK  status: ('A' for Active; 'I' for Inactive)
REMARK    1  A    between atoms: C_1  and  C_2
REMARK    2  A    between atoms: C_2  and  C_3
REMARK    3  A    between atoms: C_2  and  N_10
REMARK    4  A    between atoms: C_3  and  C_4
REMARK    5  A    between atoms: N_10  and  C_11
REMARK    6  A    between atoms: N_10  and  C_12
REMARK    7  A    between atoms: C_12  and  C_13
REMARK    8  A    between atoms: C_16  and  C_17
REMARK    9  A    between atoms: C_17  and  N_18
REMARK   10  A    between atoms: C_19  and  C_21
REMARK                            x       y       z     vdW  Elec       q    Type
REMARK                         _______ _______ _______ _____ _____    ______ ____
ROOT
ATOM      1  C   UNL     1      51.416   4.781  17.814  0.00  0.00    +0.000 A 
ATOM      2  C   UNL     1      50.515   5.773  17.392  0.00  0.00    +0.000 A 
ATOM      3  C   UNL     1      49.218   5.430  16.998  0.00  0.00    +0.000 A 
ATOM      4  C   UNL     1      48.811   4.088  16.986  0.00  0.00    +0.000 A 
ATOM      5  C   UNL     1      49.712   3.111  17.410  0.00  0.00    +0.000 A 
ATOM      6  F   UNL     1      49.337   1.825  17.451  0.00  0.00    +0.000 F 
ATOM      7  C   UNL     1      51.003   3.441  17.801  0.00  0.00    +0.000 A 
ENDROOT
BRANCH   1   8
ATOM      8  C   UNL     1      52.804   5.126  18.293  0.00  0.00    +0.000 C 
BRANCH   8   9
ATOM      9  N   UNL     1      52.903   6.122  19.389  0.00  0.00    +0.000 NA
ATOM     10  C   UNL     1      54.008   7.025  19.015  0.00  0.00    +0.000 C 
BRANCH   9  12
ATOM     11  C   UNL     1      53.304   4.021  20.812  0.00  0.00    +0.000 C 
ATOM     12  C   UNL     1      53.114   5.548  20.753  0.00  0.00    +0.000 C 
BRANCH  12  13
ATOM     13  C   UNL     1      51.984   5.901  21.778  0.00  0.00    +0.000 C 
BRANCH  13  14
ATOM     14  C   UNL     1      50.565   5.927  21.246  0.00  0.00    +0.000 A 
ATOM     15  C   UNL     1      49.811   4.748  21.147  0.00  0.00    +0.000 A 
ATOM     16  C   UNL     1      48.502   4.779  20.660  0.00  0.00    +0.000 A 
ATOM     17  C   UNL     1      47.929   5.989  20.271  0.00  0.00    +0.000 A 
ATOM     18  C   UNL     1      48.665   7.166  20.367  0.00  0.00    +0.000 A 
ATOM     19  C   UNL     1      49.972   7.133  20.855  0.00  0.00    +0.000 A 
ENDBRANCH  13  14
ENDBRANCH  12  13
ENDBRANCH   9  12
ENDBRANCH   8   9
ENDBRANCH   1   8
BRANCH   4  20
ATOM     20  C   UNL     1      47.435   3.700  16.535  0.00  0.00    +0.000 C 
BRANCH  20  21
ATOM     21  N   UNL     1      46.894   4.632  15.580  0.00  0.00    +0.000 N 
ATOM     22  C   UNL     1      46.770   4.333  14.250  0.00  0.00    +0.000 C 
ATOM     23  O   UNL     1      47.151   3.262  13.785  0.00  0.00    +0.000 OA
ATOM     24  H   UNL     1      46.716   5.576  15.911  0.00  0.00    +0.000 HD
BRANCH  22  25
ATOM     25  C   UNL     1      46.087   5.327  13.411  0.00  0.00    +0.000 A 
ATOM     26  C   UNL     1      46.723   6.529  13.135  0.00  0.00    +0.000 A 
ATOM     27  S   UNL     1      45.822   7.568  12.129  0.00  0.00    +0.000 S 
ATOM     28  C   UNL     1      44.532   6.462  12.056  0.00  0.00    +0.000 A 
ATOM     29  N   UNL     1      43.402   6.759  11.360  0.00  0.00    +0.000 NA
ATOM     30  C   UNL     1      42.490   5.847  11.409  0.00  0.00    +0.000 A 
ATOM     31  N   UNL     1      42.611   4.659  12.084  0.00  0.00    +0.000 N 
ATOM     32  C   UNL     1      43.753   4.295  12.754  0.00  0.00    +0.000 A 
ATOM     33  O   UNL     1      43.860   3.185  13.271  0.00  0.00    +0.000 OA
ATOM     34  C   UNL     1      44.795   5.304  12.764  0.00  0.00    +0.000 A 
ATOM     35  H   UNL     1      41.867   3.978  12.064  0.00  0.00    +0.000 HD
ENDBRANCH  22  25
ENDBRANCH  20  21
ENDBRANCH   4  20
TORSDOF 8
ENDMDL
MODEL 4
REMARK VINA RESULT:    -7.624      3.974      9.241
REMARK INTER + INTRA:         -12.668
REMARK INTER:                  -9.462
REMARK INTRA:                  -3.206
REMARK UNBOUND:                -1.479
REMARK  Name = 
REMARK  10 active torsions:
REMARK  status: ('A' for Active; 'I' for Inactive)
REMARK    1  A    between atoms: C_1  and  C_2
REMARK    2  A    between atoms: C_2  and  C_3
REMARK    3  A    between atoms: C_2  and  N_10
REMARK    4  A    between atoms: C_3  and  C_4
REMARK    5  A    between atoms: N_10  and  C_11
REMARK    6  A    between atoms: N_10  and  C_12
REMARK    7  A    between atoms: C_12  and  C_13
REMARK    8  A    between atoms: C_16  and  C_17
REMARK    9  A    between atoms: C_17  and  N_18
REMARK   10  A    between atoms: C_19  and  C_21
REMARK                            x       y       z     vdW  Elec       q    Type
REMARK                         _______ _______ _______ _____ _____    ______ ____
ROOT
ATOM      1  C   UNL     1      49.986   5.315  19.580  0.00  0.00    +0.000 A 
ATOM      2  C   UNL     1      50.502   4.434  18.617  0.00  0.00    +0.000 A 
ATOM      3  C   UNL     1      49.663   3.871  17.650  0.00  0.00    +0.000 A 
ATOM      4  C   UNL     1      48.289   4.152  17.652  0.00  0.00    +0.000 A 
ATOM      5  C   UNL     1      47.787   5.030  18.611  0.00  0.00    +0.000 A 
ATOM      6  F   UNL     1      46.485   5.353  18.611  0.00  0.00    +0.000 F 
ATOM      7  C   UNL     1      48.611   5.593  19.577  0.00  0.00    +0.000 A 
ENDROOT
BRANCH   1   8
ATOM      8  C   UNL     1      50.875   5.977  20.603  0.00  0.00    +0.000 C 
BRANCH   8   9
ATOM      9  N   UNL     1      51.860   6.963  20.092  0.00  0.00    +0.000 NA
ATOM     10  C   UNL     1      53.127   6.664  20.786  0.00  0.00    +0.000 C 
BRANCH   9  12
ATOM     11  C   UNL     1      50.208   8.650  21.104  0.00  0.00    +0.000 C 
ATOM     12  C   UNL     1      51.475   8.397  20.266  0.00  0.00    +0.000 C 
BRANCH  12  13
ATOM     13  C   UNL     1      51.289   9.177  18.922  0.00  0.00    +0.000 C 
BRANCH  13  14
ATOM     14  C   UNL     1      50.717   8.399  17.755  0.00  0.00    +0.000 A 
ATOM     15  C   UNL     1      49.341   8.424  17.477  0.00  0.00    +0.000 A 
ATOM     16  C   UNL     1      48.820   7.707  16.397  0.00  0.00    +0.000 A 
ATOM     17  C   UNL     1      49.667   6.961  15.579  0.00  0.00    +0.000 A 
ATOM     18  C   UNL     1      51.033   6.931  15.841  0.00  0.00    +0.000 A 
ATOM     19  C   UNL     1      51.552   7.649  16.919  0.00  0.00    +0.000 A 
ENDBRANCH  13  14
ENDBRANCH  12  13
ENDBRANCH   9  12
ENDBRANCH   8   9
ENDBRANCH   1   8
BRANCH   4  20
ATOM     20  C   UNL     1      47.370   3.531  16.644  0.00  0.00    +0.000 C 
BRANCH  20  21
ATOM     21  N   UNL     1      46.858   4.497  15.707  0.00  0.00    +0.000 N 
ATOM     22  C   UNL     1      46.792   4.254  14.362  0.00  0.00    +0.000 C 
ATOM     23  O   UNL     1      47.204   3.206  13.868  0.00  0.00    +0.000 OA
ATOM     24  H   UNL     1      46.657   5.424  16.070  0.00  0.00    +0.000 HD
BRANCH  22  25
ATOM     25  C   UNL     1      46.133   5.275  13.538  0.00  0.00    +0.000 A 
ATOM     26  C   UNL     1      46.763   6.498  13.346  0.00  0.00    +0.000 A 
ATOM     27  S   UNL     1      45.894   7.569  12.348  0.00  0.00    +0.000 S 
ATOM     28  C   UNL     1      44.625   6.451  12.164  0.00  0.00    +0.000 A 
ATOM     29  N   UNL     1      43.524   6.764  11.431  0.00  0.00    +0.000 NA
ATOM     30  C   UNL     1      42.625   5.839  11.395  0.00  0.00    +0.000 A 
ATOM     31  N   UNL     1      42.733   4.622  12.021  0.00  0.00    +0.000 N 
ATOM     32  C   UNL     1      43.849   4.244  12.727  0.00  0.00    +0.000 A 
ATOM     33  O   UNL     1      43.949   3.113  13.197  0.00  0.00    +0.000 OA
ATOM     34  C   UNL     1      44.874   5.265  12.831  0.00  0.00    +0.000 A 
ATOM     35  H   UNL     1      42.001   3.933  11.936  0.00  0.00    +0.000 HD
ENDBRANCH  22  25
ENDBRANCH  20  21
ENDBRANCH   4  20
TORSDOF 8
ENDMDL
MODEL 5
REMARK VINA RESULT:    -7.357      4.187      8.898
REMARK INTER + INTRA:         -12.276
REMARK INTER:                  -9.554
REMARK INTRA:                  -2.722
REMARK UNBOUND:                -1.479
REMARK  Name = 
REMARK  10 active torsions:
REMARK  status: ('A' for Active; 'I' for Inactive)
REMARK    1  A    between atoms: C_1  and  C_2
REMARK    2  A    between atoms: C_2  and  C_3
REMARK    3  A    between atoms: C_2  and  N_10
REMARK    4  A    between atoms: C_3  and  C_4
REMARK    5  A    between atoms: N_10  and  C_11
REMARK    6  A    between atoms: N_10  and  C_12
REMARK    7  A    between atoms: C_12  and  C_13
REMARK    8  A    between atoms: C_16  and  C_17
REMARK    9  A    between atoms: C_17  and  N_18
REMARK   10  A    between atoms: C_19  and  C_21
REMARK                            x       y       z     vdW  Elec       q    Type
REMARK                         _______ _______ _______ _____ _____    ______ ____
ROOT
ATOM      1  C   UNL     1      49.957   7.180  18.341  0.00  0.00    +0.000 A 
ATOM      2  C   UNL     1      50.473   6.596  17.173  0.00  0.00    +0.000 A 
ATOM      3  C   UNL     1      50.019   7.009  15.916  0.00  0.00    +0.000 A 
ATOM      4  C   UNL     1      49.019   7.986  15.807  0.00  0.00    +0.000 A 
ATOM      5  C   UNL     1      48.516   8.561  16.973  0.00  0.00    +0.000 A 
ATOM      6  F   UNL     1      47.591   9.529  16.899  0.00  0.00    +0.000 F 
ATOM      7  C   UNL     1      48.958   8.158  18.227  0.00  0.00    +0.000 A 
ENDROOT
BRANCH   1   8
ATOM      8  C   UNL     1      50.463   6.792  19.708  0.00  0.00    +0.000 C 
BRANCH   8   9
ATOM      9  N   UNL     1      49.475   6.812  20.815  0.00  0.00    +0.000 NA
ATOM     10  C   UNL     1      50.241   6.539  22.046  0.00  0.00    +0.000 C 
BRANCH   9  12
ATOM     11  C   UNL     1      47.424   5.711  21.902  0.00  0.00    +0.000 C 
ATOM     12  C   UNL     1      48.334   5.858  20.668  0.00  0.00    +0.000 C 
BRANCH  12  13
ATOM     13  C   UNL     1      48.759   4.411  20.247  0.00  0.00    +0.000 C 
BRANCH  13  14
ATOM     14  C   UNL     1      48.452   3.997  18.823  0.00  0.00    +0.000 A 
ATOM     15  C   UNL     1      47.387   4.577  18.116  0.00  0.00    +0.000 A 
ATOM     16  C   UNL     1      47.112   4.193  16.802  0.00  0.00    +0.000 A 
ATOM     17  C   UNL     1      47.901   3.229  16.175  0.00  0.00    +0.000 A 
ATOM     18  C   UNL     1      48.962   2.648  16.863  0.00  0.00    +0.000 A 
ATOM     19  C   UNL     1      49.236   3.034  18.175  0.00  0.00    +0.000 A 
ENDBRANCH  13  14
ENDBRANCH  12  13
ENDBRANCH   9  12
ENDBRANCH   8   9
ENDBRANCH   1   8
BRANCH   4  20
ATOM     20  C   UNL     1      48.499   8.415  14.469  0.00  0.00    +0.000 C 
BRANCH  20  21
ATOM     21  N   UNL     1      47.447   7.554  13.994  0.00  0.00    +0.000 N 
ATOM     22  C   UNL     1      47.683   6.499  13.154  0.00  0.00    +0.000 C 
ATOM     23  O   UNL     1      48.806   6.248  12.723  0.00  0.00    +0.000 OA
ATOM     24  H   UNL     1      46.494   7.833  14.210  0.00  0.00    +0.000 HD
BRANCH  22  25
ATOM     25  C   UNL     1      46.539   5.630  12.848  0.00  0.00    +0.000 A 
ATOM     26  C   UNL     1      46.635   4.270  13.115  0.00  0.00    +0.000 A 
ATOM     27  S   UNL     1      45.224   3.396  12.734  0.00  0.00    +0.000 S 
ATOM     28  C   UNL     1      44.446   4.797  12.164  0.00  0.00    +0.000 A 
ATOM     29  N   UNL     1      43.186   4.734  11.657  0.00  0.00    +0.000 NA
ATOM     30  C   UNL     1      42.724   5.863  11.234  0.00  0.00    +0.000 A 
ATOM     31  N   UNL     1      43.406   7.052  11.283  0.00  0.00    +0.000 N 
ATOM     32  C   UNL     1      44.658   7.171  11.836  0.00  0.00    +0.000 A 
ATOM     33  O   UNL     1      45.202   8.268  11.945  0.00  0.00    +0.000 OA
ATOM     34  C   UNL     1      45.240   5.923  12.290  0.00  0.00    +0.000 A 
ATOM     35  H   UNL     1      42.978   7.904  10.954  0.00  0.00    +0.000 HD
ENDBRANCH  22  25
ENDBRANCH  20  21
ENDBRANCH   4  20
TORSDOF 8
ENDMDL
MODEL 6
REMARK VINA RESULT:    -7.315      4.382      8.874
REMARK INTER + INTRA:         -12.215
REMARK INTER:                 -10.168
REMARK INTRA:                  -2.047
REMARK UNBOUND:                -1.479
REMARK  Name = 
REMARK  10 active torsions:
REMARK  status: ('A' for Active; 'I' for Inactive)
REMARK    1  A    between atoms: C_1  and  C_2
REMARK    2  A    between atoms: C_2  and  C_3
REMARK    3  A    between atoms: C_2  and  N_10
REMARK    4  A    between atoms: C_3  and  C_4
REMARK    5  A    between atoms: N_10  and  C_11
REMARK    6  A    between atoms: N_10  and  C_12
REMARK    7  A    between atoms: C_12  and  C_13
REMARK    8  A    between atoms: C_16  and  C_17
REMARK    9  A    between atoms: C_17  and  N_18
REMARK   10  A    between atoms: C_19  and  C_21
REMARK                            x       y       z     vdW  Elec       q    Type
REMARK                         _______ _______ _______ _____ _____    ______ ____
ROOT
ATOM      1  C   UNL     1      48.834   8.055  16.265  0.00  0.00    +0.000 A 
ATOM      2  C   UNL     1      49.233   6.919  15.544  0.00  0.00    +0.000 A 
ATOM      3  C   UNL     1      49.161   6.905  14.148  0.00  0.00    +0.000 A 
ATOM      4  C   UNL     1      48.655   8.012  13.452  0.00  0.00    +0.000 A 
ATOM      5  C   UNL     1      48.264   9.136  14.177  0.00  0.00    +0.000 A 
ATOM      6  F   UNL     1      47.818  10.227  13.537  0.00  0.00    +0.000 F 
ATOM      7  C   UNL     1      48.330   9.160  15.564  0.00  0.00    +0.000 A 
ENDROOT
BRANCH   1   8
ATOM      8  C   UNL     1      48.948   8.119  17.768  0.00  0.00    +0.000 C 
BRANCH   8   9
ATOM      9  N   UNL     1      47.710   7.855  18.543  0.00  0.00    +0.000 NA
ATOM     10  C   UNL     1      47.457   9.079  19.327  0.00  0.00    +0.000 C 
BRANCH   9  12
ATOM     11  C   UNL     1      47.612   6.922  20.933  0.00  0.00    +0.000 C 
ATOM     12  C   UNL     1      47.755   6.649  19.425  0.00  0.00    +0.000 C 
BRANCH  12  13
ATOM     13  C   UNL     1      49.039   5.771  19.245  0.00  0.00    +0.000 C 
BRANCH  13  14
ATOM     14  C   UNL     1      48.920   4.569  18.331  0.00  0.00    +0.000 A 
ATOM     15  C   UNL     1      47.710   4.270  17.686  0.00  0.00    +0.000 A 
ATOM     16  C   UNL     1      47.608   3.162  16.841  0.00  0.00    +0.000 A 
ATOM     17  C   UNL     1      48.715   2.341  16.628  0.00  0.00    +0.000 A 
ATOM     18  C   UNL     1      49.922   2.628  17.259  0.00  0.00    +0.000 A 
ATOM     19  C   UNL     1      50.022   3.736  18.101  0.00  0.00    +0.000 A 
ENDBRANCH  13  14
ENDBRANCH  12  13
ENDBRANCH   9  12
ENDBRANCH   8   9
ENDBRANCH   1   8
BRANCH   4  20
ATOM     20  C   UNL     1      48.540   8.000  11.957  0.00  0.00    +0.000 C 
BRANCH  20  21
ATOM     21  N   UNL     1      47.763   6.885  11.481  0.00  0.00    +0.000 N 
ATOM     22  C   UNL     1      46.395   6.878  11.506  0.00  0.00    +0.000 C 
ATOM     23  O   UNL     1      45.746   7.812  11.974  0.00  0.00    +0.000 OA
ATOM     24  H   UNL     1      48.275   6.043  11.234  0.00  0.00    +0.000 HD
BRANCH  22  25
ATOM     25  C   UNL     1      45.728   5.732  10.875  0.00  0.00    +0.000 A 
ATOM     26  C   UNL     1      45.839   5.559   9.502  0.00  0.00    +0.000 A 
ATOM     27  S   UNL     1      45.038   4.173   8.918  0.00  0.00    +0.000 S 
ATOM     28  C   UNL     1      44.483   3.774  10.475  0.00  0.00    +0.000 A 
ATOM     29  N   UNL     1      43.695   2.683  10.674  0.00  0.00    +0.000 NA
ATOM     30  C   UNL     1      43.321   2.510  11.896  0.00  0.00    +0.000 A 
ATOM     31  N   UNL     1      43.673   3.325  12.942  0.00  0.00    +0.000 N 
ATOM     32  C   UNL     1      44.510   4.405  12.797  0.00  0.00    +0.000 A 
ATOM     33  O   UNL     1      44.876   5.059  13.771  0.00  0.00    +0.000 OA
ATOM     34  C   UNL     1      44.927   4.668  11.433  0.00  0.00    +0.000 A 
ATOM     35  H   UNL     1      43.363   3.121  13.880  0.00  0.00    +0.000 HD
ENDBRANCH  22  25
ENDBRANCH  20  21
ENDBRANCH   4  20
TORSDOF 8
ENDMDL
MODEL 7
REMARK VINA RESULT:    -7.252      4.173      9.081
REMARK INTER + INTRA:         -12.122
REMARK INTER:                  -8.864
REMARK INTRA:                  -3.257
REMARK UNBOUND:                -1.479
REMARK  Name = 
REMARK  10 active torsions:
REMARK  status: ('A' for Active; 'I' for Inactive)
REMARK    1  A    between atoms: C_1  and  C_2
REMARK    2  A    between atoms: C_2  and  C_3
REMARK    3  A    between atoms: C_2  and  N_10
REMARK    4  A    between atoms: C_3  and  C_4
REMARK    5  A    between atoms: N_10  and  C_11
REMARK    6  A    between atoms: N_10  and  C_12
REMARK    7  A    between atoms: C_12  and  C_13
REMARK    8  A    between atoms: C_16  and  C_17
REMARK    9  A    between atoms: C_17  and  N_18
REMARK   10  A    between atoms: C_19  and  C_21
REMARK                            x       y       z     vdW  Elec       q    Type
REMARK                         _______ _______ _______ _____ _____    ______ ____
ROOT
ATOM      1  C   UNL     1      48.470   6.643  19.526  0.00  0.00    +0.000 A 
ATOM      2  C   UNL     1      47.206   6.107  19.232  0.00  0.00    +0.000 A 
ATOM      3  C   UNL     1      47.034   5.260  18.133  0.00  0.00    +0.000 A 
ATOM      4  C   UNL     1      48.114   4.964  17.289  0.00  0.00    +0.000 A 
ATOM      5  C   UNL     1      49.365   5.499  17.591  0.00  0.00    +0.000 A 
ATOM      6  F   UNL     1      50.426   5.198  16.828  0.00  0.00    +0.000 F 
ATOM      7  C   UNL     1      49.547   6.343  18.679  0.00  0.00    +0.000 A 
ENDROOT
BRANCH   1   8
ATOM      8  C   UNL     1      48.696   7.518  20.733  0.00  0.00    +0.000 C 
BRANCH   8   9
ATOM      9  N   UNL     1      49.364   8.822  20.496  0.00  0.00    +0.000 NA
ATOM     10  C   UNL     1      50.332   8.986  21.597  0.00  0.00    +0.000 C 
BRANCH   9  12
ATOM     11  C   UNL     1      46.951   9.697  20.610  0.00  0.00    +0.000 C 
ATOM     12  C   UNL     1      48.447  10.000  20.404  0.00  0.00    +0.000 C 
BRANCH  12  13
ATOM     13  C   UNL     1      48.564  10.800  19.064  0.00  0.00    +0.000 C 
BRANCH  13  14
ATOM     14  C   UNL     1      48.967  10.014  17.833  0.00  0.00    +0.000 A 
ATOM     15  C   UNL     1      48.001   9.392  17.027  0.00  0.00    +0.000 A 
ATOM     16  C   UNL     1      48.378   8.672  15.891  0.00  0.00    +0.000 A 
ATOM     17  C   UNL     1      49.725   8.567  15.544  0.00  0.00    +0.000 A 
ATOM     18  C   UNL     1      50.692   9.182  16.333  0.00  0.00    +0.000 A 
ATOM     19  C   UNL     1      50.313   9.902  17.467  0.00  0.00    +0.000 A 
ENDBRANCH  13  14
ENDBRANCH  12  13
ENDBRANCH   9  12
ENDBRANCH   8   9
ENDBRANCH   1   8
BRANCH   4  20
ATOM     20  C   UNL     1      47.939   4.085  16.087  0.00  0.00    +0.000 C 
BRANCH  20  21
ATOM     21  N   UNL     1      46.980   4.621  15.157  0.00  0.00    +0.000 N 
ATOM     22  C   UNL     1      47.340   5.432  14.115  0.00  0.00    +0.000 C 
ATOM     23  O   UNL     1      48.504   5.783  13.934  0.00  0.00    +0.000 OA
ATOM     24  H   UNL     1      45.999   4.473  15.375  0.00  0.00    +0.000 HD
BRANCH  22  25
ATOM     25  C   UNL     1      46.279   5.805  13.171  0.00  0.00    +0.000 A 
ATOM     26  C   UNL     1      46.057   7.149  12.901  0.00  0.00    +0.000 A 
ATOM     27  S   UNL     1      44.815   7.425  11.769  0.00  0.00    +0.000 S 
ATOM     28  C   UNL     1      44.503   5.760  11.625  0.00  0.00    +0.000 A 
ATOM     29  N   UNL     1      43.512   5.306  10.813  0.00  0.00    +0.000 NA
ATOM     30  C   UNL     1      43.362   4.024  10.817  0.00  0.00    +0.000 A 
ATOM     31  N   UNL     1      44.124   3.153  11.554  0.00  0.00    +0.000 N 
ATOM     32  C   UNL     1      45.170   3.562  12.345  0.00  0.00    +0.000 A 
ATOM     33  O   UNL     1      45.888   2.747  12.920  0.00  0.00    +0.000 OA
ATOM     34  C   UNL     1      45.355   5.000  12.407  0.00  0.00    +0.000 A 
ATOM     35  H   UNL     1      43.970   2.158  11.496  0.00  0.00    +0.000 HD
ENDBRANCH  22  25
ENDBRANCH  20  21
ENDBRANCH   4  20
TORSDOF 8
ENDMDL
MODEL 8
REMARK VINA RESULT:    -7.169      4.349      9.048
REMARK INTER + INTRA:         -12.000
REMARK INTER:                  -9.724
REMARK INTRA:                  -2.276
REMARK UNBOUND:                -1.479
REMARK  Name = 
REMARK  10 active torsions:
REMARK  status: ('A' for Active; 'I' for Inactive)
REMARK    1  A    between atoms: C_1  and  C_2
REMARK    2  A    between atoms: C_2  and  C_3
REMARK    3  A    between atoms: C_2  and  N_10
REMARK    4  A    between atoms: C_3  and  C_4
REMARK    5  A    between atoms: N_10  and  C_11
REMARK    6  A    between atoms: N_10  and  C_12
REMARK    7  A    between atoms: C_12  and  C_13
REMARK    8  A    between atoms: C_16  and  C_17
REMARK    9  A    between atoms: C_17  and  N_18
REMARK   10  A    between atoms: C_19  and  C_21
REMARK                            x       y       z     vdW  Elec       q    Type
REMARK                         _______ _______ _______ _____ _____    ______ ____
ROOT
ATOM      1  C   UNL     1      49.848   8.184  15.840  0.00  0.00    +0.000 A 
ATOM      2  C   UNL     1      49.661   6.942  15.213  0.00  0.00    +0.000 A 
ATOM      3  C   UNL     1      48.992   6.861  13.988  0.00  0.00    +0.000 A 
ATOM      4  C   UNL     1      48.470   8.015  13.386  0.00  0.00    +0.000 A 
ATOM      5  C   UNL     1      48.664   9.244  14.016  0.00  0.00    +0.000 A 
ATOM      6  F   UNL     1      48.214  10.370  13.443  0.00  0.00    +0.000 F 
ATOM      7  C   UNL     1      49.324   9.335  15.234  0.00  0.00    +0.000 A 
ENDROOT
BRANCH   1   8
ATOM      8  C   UNL     1      50.609   8.308  17.136  0.00  0.00    +0.000 C 
BRANCH   8   9
ATOM      9  N   UNL     1      49.803   8.498  18.368  0.00  0.00    +0.000 NA
ATOM     10  C   UNL     1      50.669   8.080  19.486  0.00  0.00    +0.000 C 
BRANCH   9  12
ATOM     11  C   UNL     1      47.302   8.562  18.949  0.00  0.00    +0.000 C 
ATOM     12  C   UNL     1      48.498   7.768  18.394  0.00  0.00    +0.000 C 
BRANCH  12  13
ATOM     13  C   UNL     1      48.539   6.411  19.174  0.00  0.00    +0.000 C 
BRANCH  13  14
ATOM     14  C   UNL     1      48.501   5.146  18.343  0.00  0.00    +0.000 A 
ATOM     15  C   UNL     1      47.304   4.703  17.758  0.00  0.00    +0.000 A 
ATOM     16  C   UNL     1      47.276   3.537  16.990  0.00  0.00    +0.000 A 
ATOM     17  C   UNL     1      48.444   2.801  16.791  0.00  0.00    +0.000 A 
ATOM     18  C   UNL     1      49.638   3.231  17.362  0.00  0.00    +0.000 A 
ATOM     19  C   UNL     1      49.664   4.397  18.129  0.00  0.00    +0.000 A 
ENDBRANCH  13  14
ENDBRANCH  12  13
ENDBRANCH   9  12
ENDBRANCH   8   9
ENDBRANCH   1   8
BRANCH   4  20
ATOM     20  C   UNL     1      47.722   7.941  12.090  0.00  0.00    +0.000 C 
BRANCH  20  21
ATOM     21  N   UNL     1      46.986   6.711  11.956  0.00  0.00    +0.000 N 
ATOM     22  C   UNL     1      45.634   6.637  12.162  0.00  0.00    +0.000 C 
ATOM     23  O   UNL     1      44.973   7.612  12.511  0.00  0.00    +0.000 OA
ATOM     24  H   UNL     1      47.530   5.864  11.820  0.00  0.00    +0.000 HD
BRANCH  22  25
ATOM     25  C   UNL     1      44.992   5.348  11.870  0.00  0.00    +0.000 A 
ATOM     26  C   UNL     1      44.275   4.709  12.872  0.00  0.00    +0.000 A 
ATOM     27  S   UNL     1      43.565   3.241  12.379  0.00  0.00    +0.000 S 
ATOM     28  C   UNL     1      44.222   3.389  10.817  0.00  0.00    +0.000 A 
ATOM     29  N   UNL     1      44.012   2.424   9.881  0.00  0.00    +0.000 NA
ATOM     30  C   UNL     1      44.588   2.645   8.748  0.00  0.00    +0.000 A 
ATOM     31  N   UNL     1      45.349   3.751   8.462  0.00  0.00    +0.000 N 
ATOM     32  C   UNL     1      45.542   4.774   9.358  0.00  0.00    +0.000 A 
ATOM     33  O   UNL     1      46.153   5.791   9.038  0.00  0.00    +0.000 OA
ATOM     34  C   UNL     1      44.948   4.556  10.663  0.00  0.00    +0.000 A 
ATOM     35  H   UNL     1      45.755   3.873   7.547  0.00  0.00    +0.000 HD
ENDBRANCH  22  25
ENDBRANCH  20  21
ENDBRANCH   4  20
TORSDOF 8
ENDMDL
MODEL 9
REMARK VINA RESULT:    -7.124      4.381      8.968
REMARK INTER + INTRA:         -11.935
REMARK INTER:                  -9.640
REMARK INTRA:                  -2.295
REMARK UNBOUND:                -1.479
REMARK  Name = 
REMARK  10 active torsions:
REMARK  status: ('A' for Active; 'I' for Inactive)
REMARK    1  A    between atoms: C_1  and  C_2
REMARK    2  A    between atoms: C_2  and  C_3
REMARK    3  A    between atoms: C_2  and  N_10
REMARK    4  A    between atoms: C_3  and  C_4
REMARK    5  A    between atoms: N_10  and  C_11
REMARK    6  A    between atoms: N_10  and  C_12
REMARK    7  A    between atoms: C_12  and  C_13
REMARK    8  A    between atoms: C_16  and  C_17
REMARK    9  A    between atoms: C_17  and  N_18
REMARK   10  A    between atoms: C_19  and  C_21
REMARK                            x       y       z     vdW  Elec       q    Type
REMARK                         _______ _______ _______ _____ _____    ______ ____
ROOT
ATOM      1  C   UNL     1      48.901   8.859  17.915  0.00  0.00    +0.000 A 
ATOM      2  C   UNL     1      48.208   9.389  16.814  0.00  0.00    +0.000 A 
ATOM      3  C   UNL     1      48.410   8.868  15.533  0.00  0.00    +0.000 A 
ATOM      4  C   UNL     1      49.333   7.832  15.324  0.00  0.00    +0.000 A 
ATOM      5  C   UNL     1      50.013   7.311  16.424  0.00  0.00    +0.000 A 
ATOM      6  F   UNL     1      50.868   6.291  16.263  0.00  0.00    +0.000 F 
ATOM      7  C   UNL     1      49.821   7.823  17.701  0.00  0.00    +0.000 A 
ENDROOT
BRANCH   1   8
ATOM      8  C   UNL     1      48.666   9.367  19.315  0.00  0.00    +0.000 C 
BRANCH   8   9
ATOM      9  N   UNL     1      47.520   8.780  20.054  0.00  0.00    +0.000 NA
ATOM     10  C   UNL     1      46.604   9.902  20.336  0.00  0.00    +0.000 C 
BRANCH   9  12
ATOM     11  C   UNL     1      49.364   8.101  21.708  0.00  0.00    +0.000 C 
ATOM     12  C   UNL     1      47.878   8.049  21.307  0.00  0.00    +0.000 C 
BRANCH  12  13
ATOM     13  C   UNL     1      47.465   6.539  21.308  0.00  0.00    +0.000 C 
BRANCH  13  14
ATOM     14  C   UNL     1      47.822   5.733  20.076  0.00  0.00    +0.000 A 
ATOM     15  C   UNL     1      46.986   5.729  18.949  0.00  0.00    +0.000 A 
ATOM     16  C   UNL     1      47.323   4.987  17.815  0.00  0.00    +0.000 A 
ATOM     17  C   UNL     1      48.503   4.244  17.790  0.00  0.00    +0.000 A 
ATOM     18  C   UNL     1      49.343   4.242  18.900  0.00  0.00    +0.000 A 
ATOM     19  C   UNL     1      49.005   4.985  20.031  0.00  0.00    +0.000 A 
ENDBRANCH  13  14
ENDBRANCH  12  13
ENDBRANCH   9  12
ENDBRANCH   8   9
ENDBRANCH   1   8
BRANCH   4  20
ATOM     20  C   UNL     1      49.585   7.284  13.953  0.00  0.00    +0.000 C 
BRANCH  20  21
ATOM     21  N   UNL     1      48.363   7.039  13.232  0.00  0.00    +0.000 N 
ATOM     22  C   UNL     1      47.527   5.999  13.536  0.00  0.00    +0.000 C 
ATOM     23  O   UNL     1      47.790   5.187  14.420  0.00  0.00    +0.000 OA
ATOM     24  H   UNL     1      48.201   7.600  12.401  0.00  0.00    +0.000 HD
BRANCH  22  25
ATOM     25  C   UNL     1      46.254   5.940  12.804  0.00  0.00    +0.000 A 
ATOM     26  C   UNL     1      45.697   7.117  12.322  0.00  0.00    +0.000 A 
ATOM     27  S   UNL     1      44.239   6.888  11.473  0.00  0.00    +0.000 S 
ATOM     28  C   UNL     1      44.279   5.211  11.751  0.00  0.00    +0.000 A 
ATOM     29  N   UNL     1      43.279   4.407  11.300  0.00  0.00    +0.000 NA
ATOM     30  C   UNL     1      43.417   3.160  11.602  0.00  0.00    +0.000 A 
ATOM     31  N   UNL     1      44.474   2.642  12.308  0.00  0.00    +0.000 N 
ATOM     32  C   UNL     1      45.531   3.407  12.736  0.00  0.00    +0.000 A 
ATOM     33  O   UNL     1      46.504   2.895  13.285  0.00  0.00    +0.000 OA
ATOM     34  C   UNL     1      45.405   4.825  12.456  0.00  0.00    +0.000 A 
ATOM     35  H   UNL     1      44.533   1.652  12.493  0.00  0.00    +0.000 HD
ENDBRANCH  22  25
ENDBRANCH  20  21
ENDBRANCH   4  20
TORSDOF 8
ENDMDL
