MODEL 1
REMARK VINA RESULT:    -8.082      0.000      0.000
REMARK INTER + INTRA:         -13.170
REMARK INTER:                 -11.862
REMARK INTRA:                  -1.308
REMARK UNBOUND:                -1.308
REMARK  Name = 
REMARK  10 active torsions:
REMARK  status: ('A' for Active; 'I' for Inactive)
REMARK    1  A    between atoms: C_1  and  C_2
REMARK    2  A    between atoms: C_2  and  N_3
REMARK    3  A    between atoms: C_2  and  C_16
REMARK    4  A    between atoms: N_3  and  C_4
REMARK    5  A    between atoms: C_4  and  C_5
REMARK    6  A    between atoms: C_4  and  C_6
REMARK    7  A    between atoms: C_19  and  C_20
REMARK    8  A    between atoms: C_20  and  O_21
REMARK    9  A    between atoms: O_21  and  C_22
REMARK   10  A    between atoms: C_22  and  C_23
REMARK                            x       y       z     vdW  Elec       q    Type
REMARK                         _______ _______ _______ _____ _____    ______ ____
ROOT
ATOM      1  C   UNL     1      48.306   7.053  14.613  0.00  0.00    +0.000 C 
ATOM      2  C   UNL     1      47.939   5.557  14.651  0.00  0.00    +0.000 C 
ENDROOT
BRANCH   2   3
ATOM      3  C   UNL     1      46.872   5.227  13.611  0.00  0.00    +0.000 A 
ATOM      4  C   UNL     1      46.568   3.878  13.342  0.00  0.00    +0.000 A 
ATOM      5  C   UNL     1      45.468   3.525  12.557  0.00  0.00    +0.000 A 
ATOM      6  C   UNL     1      44.606   4.508  12.062  0.00  0.00    +0.000 A 
ATOM      7  C   UNL     1      44.944   5.846  12.252  0.00  0.00    +0.000 A 
ATOM      8  C   UNL     1      46.090   6.193  12.970  0.00  0.00    +0.000 A 
BRANCH   6   9
ATOM      9  C   UNL     1      43.328   4.137  11.367  0.00  0.00    +0.000 C 
BRANCH   9  10
ATOM     10  O   UNL     1      43.673   3.371  10.217  0.00  0.00    +0.000 OA
BRANCH  10  11
ATOM     11  C   UNL     1      44.301   4.166   9.220  0.00  0.00    +0.000 C 
BRANCH  11  12
ATOM     12  C   UNL     1      45.290   3.297   8.491  0.00  0.00    +0.000 A 
ATOM     13  C   UNL     1      45.411   1.935   8.791  0.00  0.00    +0.000 A 
ATOM     14  C   UNL     1      46.324   1.137   8.099  0.00  0.00    +0.000 A 
ATOM     15  C   UNL     1      47.122   1.694   7.100  0.00  0.00    +0.000 A 
ATOM     16  C   UNL     1      47.011   3.047   6.793  0.00  0.00    +0.000 A 
ATOM     17  C   UNL     1      46.100   3.847   7.481  0.00  0.00    +0.000 A 
ENDBRANCH  11  12
ENDBRANCH  10  11
ENDBRANCH   9  10
ENDBRANCH   6   9
ENDBRANCH   2   3
BRANCH   2  18
ATOM     18  N   UNL     1      47.632   5.259  16.062  0.00  0.00    +0.000 NA
ATOM     19  H   UNL     1      46.620   5.281  16.184  0.00  0.00    +0.000 HD
BRANCH  18  20
ATOM     20  C   UNL     1      48.180   4.046  16.683  0.00  0.00    +0.000 C 
ATOM     21  C   UNL     1      47.001   3.235  17.228  0.00  0.00    +0.000 C 
BRANCH  20  22
ATOM     22  C   UNL     1      49.208   4.376  17.730  0.00  0.00    +0.000 A 
ATOM     23  C   UNL     1      49.176   5.474  18.570  0.00  0.00    +0.000 A 
ATOM     24  S   UNL     1      50.612   5.660  19.484  0.00  0.00    +0.000 S 
ATOM     25  C   UNL     1      51.320   4.293  18.754  0.00  0.00    +0.000 A 
ATOM     26  N   UNL     1      52.623   3.959  18.973  0.00  0.00    +0.000 NA
ATOM     27  C   UNL     1      53.018   2.922  18.307  0.00  0.00    +0.000 A 
ATOM     28  N   UNL     1      52.217   2.143  17.511  0.00  0.00    +0.000 N 
ATOM     29  C   UNL     1      50.863   2.366  17.369  0.00  0.00    +0.000 A 
ATOM     30  O   UNL     1      50.124   1.528  16.870  0.00  0.00    +0.000 OA
ATOM     31  C   UNL     1      50.426   3.626  17.942  0.00  0.00    +0.000 A 
ATOM     32  H   UNL     1      52.575   1.301  17.087  0.00  0.00    +0.000 HD
ENDBRANCH  20  22
ENDBRANCH  18  20
ENDBRANCH   2  18
TORSDOF 8
ENDMDL
MODEL 2
REMARK VINA RESULT:    -7.654      1.971      2.680
REMARK INTER + INTRA:         -12.542
REMARK INTER:                 -11.338
REMARK INTRA:                  -1.205
REMARK UNBOUND:                -1.308
REMARK  Name = 
REMARK  10 active torsions:
REMARK  status: ('A' for Active; 'I' for Inactive)
REMARK    1  A    between atoms: C_1  and  C_2
REMARK    2  A    between atoms: C_2  and  N_3
REMARK    3  A    between atoms: C_2  and  C_16
REMARK    4  A    between atoms: N_3  and  C_4
REMARK    5  A    between atoms: C_4  and  C_5
REMARK    6  A    between atoms: C_4  and  C_6
REMARK    7  A    between atoms: C_19  and  C_20
REMARK    8  A    between atoms: C_20  and  O_21
REMARK    9  A    between atoms: O_21  and  C_22
REMARK   10  A    between atoms: C_22  and  C_23
REMARK                            x       y       z     vdW  Elec       q    Type
REMARK                         _______ _______ _______ _____ _____    ______ ____
ROOT
ATOM      1  C   UNL     1      47.850   8.545  13.791  0.00  0.00    +0.000 C 
ATOM      2  C   UNL     1      48.120   7.029  13.774  0.00  0.00    +0.000 C 
ENDROOT
BRANCH   2   3
ATOM      3  C   UNL     1      47.105   6.301  12.895  0.00  0.00    +0.000 A 
ATOM      4  C   UNL     1      46.616   5.045  13.306  0.00  0.00    +0.000 A 
ATOM      5  C   UNL     1      45.544   4.434  12.650  0.00  0.00    +0.000 A 
ATOM      6  C   UNL     1      44.894   5.085  11.598  0.00  0.00    +0.000 A 
ATOM      7  C   UNL     1      45.421   6.288  11.132  0.00  0.00    +0.000 A 
ATOM      8  C   UNL     1      46.542   6.853  11.740  0.00  0.00    +0.000 A 
BRANCH   6   9
ATOM      9  C   UNL     1      43.636   4.523  11.000  0.00  0.00    +0.000 C 
BRANCH   9  10
ATOM     10  O   UNL     1      43.943   4.107   9.673  0.00  0.00    +0.000 OA
BRANCH  10  11
ATOM     11  C   UNL     1      44.359   2.749   9.627  0.00  0.00    +0.000 C 
BRANCH  11  12
ATOM     12  C   UNL     1      45.416   2.624   8.563  0.00  0.00    +0.000 A 
ATOM     13  C   UNL     1      45.811   3.734   7.807  0.00  0.00    +0.000 A 
ATOM     14  C   UNL     1      46.802   3.607   6.832  0.00  0.00    +0.000 A 
ATOM     15  C   UNL     1      47.406   2.371   6.605  0.00  0.00    +0.000 A 
ATOM     16  C   UNL     1      47.021   1.260   7.351  0.00  0.00    +0.000 A 
ATOM     17  C   UNL     1      46.033   1.383   8.327  0.00  0.00    +0.000 A 
ENDBRANCH  11  12
ENDBRANCH  10  11
ENDBRANCH   9  10
ENDBRANCH   6   9
ENDBRANCH   2   3
BRANCH   2  18
ATOM     18  N   UNL     1      48.211   6.624  15.189  0.00  0.00    +0.000 NA
ATOM     19  H   UNL     1      48.466   5.638  15.227  0.00  0.00    +0.000 HD
BRANCH  18  20
ATOM     20  C   UNL     1      49.059   7.392  16.109  0.00  0.00    +0.000 C 
ATOM     21  C   UNL     1      50.501   6.912  15.916  0.00  0.00    +0.000 C 
BRANCH  20  22
ATOM     22  C   UNL     1      48.581   7.278  17.530  0.00  0.00    +0.000 A 
ATOM     23  C   UNL     1      48.165   8.330  18.325  0.00  0.00    +0.000 A 
ATOM     24  S   UNL     1      47.898   7.874  19.954  0.00  0.00    +0.000 S 
ATOM     25  C   UNL     1      48.362   6.265  19.638  0.00  0.00    +0.000 A 
ATOM     26  N   UNL     1      48.506   5.352  20.638  0.00  0.00    +0.000 NA
ATOM     27  C   UNL     1      48.908   4.190  20.236  0.00  0.00    +0.000 A 
ATOM     28  N   UNL     1      49.102   3.832  18.925  0.00  0.00    +0.000 N 
ATOM     29  C   UNL     1      48.838   4.684  17.873  0.00  0.00    +0.000 A 
ATOM     30  O   UNL     1      48.770   4.278  16.720  0.00  0.00    +0.000 OA
ATOM     31  C   UNL     1      48.572   6.049  18.291  0.00  0.00    +0.000 A 
ATOM     32  H   UNL     1      49.338   2.883  18.680  0.00  0.00    +0.000 HD
ENDBRANCH  20  22
ENDBRANCH  18  20
ENDBRANCH   2  18
TORSDOF 8
ENDMDL
MODEL 3
REMARK VINA RESULT:    -7.266      2.316      3.137
REMARK INTER + INTRA:         -11.972
REMARK INTER:                 -10.467
REMARK INTRA:                  -1.505
REMARK UNBOUND:                -1.308
REMARK  Name = 
REMARK  10 active torsions:
REMARK  status: ('A' for Active; 'I' for Inactive)
REMARK    1  A    between atoms: C_1  and  C_2
REMARK    2  A    between atoms: C_2  and  N_3
REMARK    3  A    between atoms: C_2  and  C_16
REMARK    4  A    between atoms: N_3  and  C_4
REMARK    5  A    between atoms: C_4  and  C_5
REMARK    6  A    between atoms: C_4  and  C_6
REMARK    7  A    between atoms: C_19  and  C_20
REMARK    8  A    between atoms: C_20  and  O_21
REMARK    9  A    between atoms: O_21  and  C_22
REMARK   10  A    between atoms: C_22  and  C_23
REMARK                            x       y       z     vdW  Elec       q    Type
REMARK                         _______ _______ _______ _____ _____    ______ ____
ROOT
ATOM      1  C   UNL     1      49.465   7.121  11.801  0.00  0.00    +0.000 C 
ATOM      2  C   UNL     1      48.661   6.726  13.054  0.00  0.00    +0.000 C 
ENDROOT
BRANCH   2   3
ATOM      3  C   UNL     1      47.293   6.164  12.675  0.00  0.00    +0.000 A 
ATOM      4  C   UNL     1      46.682   6.590  11.479  0.00  0.00    +0.000 A 
ATOM      5  C   UNL     1      45.536   5.962  10.986  0.00  0.00    +0.000 A 
ATOM      6  C   UNL     1      44.998   4.852  11.644  0.00  0.00    +0.000 A 
ATOM      7  C   UNL     1      45.546   4.474  12.869  0.00  0.00    +0.000 A 
ATOM      8  C   UNL     1      46.641   5.158  13.396  0.00  0.00    +0.000 A 
BRANCH   6   9
ATOM      9  C   UNL     1      43.876   4.061  11.036  0.00  0.00    +0.000 C 
BRANCH   9  10
ATOM     10  O   UNL     1      44.239   3.770   9.691  0.00  0.00    +0.000 OA
BRANCH  10  11
ATOM     11  C   UNL     1      44.737   2.446   9.550  0.00  0.00    +0.000 C 
BRANCH  11  12
ATOM     12  C   UNL     1      45.691   2.432   8.387  0.00  0.00    +0.000 A 
ATOM     13  C   UNL     1      45.879   3.570   7.594  0.00  0.00    +0.000 A 
ATOM     14  C   UNL     1      46.776   3.547   6.525  0.00  0.00    +0.000 A 
ATOM     15  C   UNL     1      47.493   2.385   6.240  0.00  0.00    +0.000 A 
ATOM     16  C   UNL     1      47.315   1.247   7.020  0.00  0.00    +0.000 A 
ATOM     17  C   UNL     1      46.420   1.267   8.090  0.00  0.00    +0.000 A 
ENDBRANCH  11  12
ENDBRANCH  10  11
ENDBRANCH   9  10
ENDBRANCH   6   9
ENDBRANCH   2   3
BRANCH   2  18
ATOM     18  N   UNL     1      48.692   7.907  13.936  0.00  0.00    +0.000 NA
ATOM     19  H   UNL     1      48.143   8.648  13.503  0.00  0.00    +0.000 HD
BRANCH  18  20
ATOM     20  C   UNL     1      48.312   7.768  15.348  0.00  0.00    +0.000 C 
ATOM     21  C   UNL     1      48.561   9.117  16.027  0.00  0.00    +0.000 C 
BRANCH  20  22
ATOM     22  C   UNL     1      49.037   6.628  16.008  0.00  0.00    +0.000 A 
ATOM     23  C   UNL     1      48.438   5.546  16.629  0.00  0.00    +0.000 A 
ATOM     24  S   UNL     1      49.554   4.553  17.465  0.00  0.00    +0.000 S 
ATOM     25  C   UNL     1      50.858   5.563  17.040  0.00  0.00    +0.000 A 
ATOM     26  N   UNL     1      52.106   5.376  17.554  0.00  0.00    +0.000 NA
ATOM     27  C   UNL     1      52.971   6.257  17.168  0.00  0.00    +0.000 A 
ATOM     28  N   UNL     1      52.729   7.254  16.257  0.00  0.00    +0.000 N 
ATOM     29  C   UNL     1      51.519   7.396  15.610  0.00  0.00    +0.000 A 
ATOM     30  O   UNL     1      51.396   8.117  14.629  0.00  0.00    +0.000 OA
ATOM     31  C   UNL     1      50.472   6.552  16.158  0.00  0.00    +0.000 A 
ATOM     32  H   UNL     1      53.474   7.855  15.941  0.00  0.00    +0.000 HD
ENDBRANCH  20  22
ENDBRANCH  18  20
ENDBRANCH   2  18
TORSDOF 8
ENDMDL
MODEL 4
REMARK VINA RESULT:    -7.241      4.036      8.663
REMARK INTER + INTRA:         -11.936
REMARK INTER:                 -10.056
REMARK INTRA:                  -1.880
REMARK UNBOUND:                -1.308
REMARK  Name = 
REMARK  10 active torsions:
REMARK  status: ('A' for Active; 'I' for Inactive)
REMARK    1  A    between atoms: C_1  and  C_2
REMARK    2  A    between atoms: C_2  and  N_3
REMARK    3  A    between atoms: C_2  and  C_16
REMARK    4  A    between atoms: N_3  and  C_4
REMARK    5  A    between atoms: C_4  and  C_5
REMARK    6  A    between atoms: C_4  and  C_6
REMARK    7  A    between atoms: C_19  and  C_20
REMARK    8  A    between atoms: C_20  and  O_21
REMARK    9  A    between atoms: O_21  and  C_22
REMARK   10  A    between atoms: C_22  and  C_23
REMARK                            x       y       z     vdW  Elec       q    Type
REMARK                         _______ _______ _______ _____ _____    ______ ____
ROOT
ATOM      1  C   UNL     1      49.610   7.434  11.848  0.00  0.00    +0.000 C 
ATOM      2  C   UNL     1      48.364   7.711  12.711  0.00  0.00    +0.000 C 
ENDROOT
BRANCH   2   3
ATOM      3  C   UNL     1      48.740   7.864  14.183  0.00  0.00    +0.000 A 
ATOM      4  C   UNL     1      48.083   8.837  14.962  0.00  0.00    +0.000 A 
ATOM      5  C   UNL     1      48.240   8.882  16.350  0.00  0.00    +0.000 A 
ATOM      6  C   UNL     1      49.015   7.922  17.007  0.00  0.00    +0.000 A 
ATOM      7  C   UNL     1      49.733   7.008  16.238  0.00  0.00    +0.000 A 
ATOM      8  C   UNL     1      49.635   7.020  14.847  0.00  0.00    +0.000 A 
BRANCH   6   9
ATOM      9  C   UNL     1      49.052   7.851  18.506  0.00  0.00    +0.000 C 
BRANCH   9  10
ATOM     10  O   UNL     1      47.893   7.141  18.929  0.00  0.00    +0.000 OA
BRANCH  10  11
ATOM     11  C   UNL     1      48.226   5.943  19.617  0.00  0.00    +0.000 C 
BRANCH  11  12
ATOM     12  C   UNL     1      48.284   4.830  18.606  0.00  0.00    +0.000 A 
ATOM     13  C   UNL     1      47.222   4.602  17.724  0.00  0.00    +0.000 A 
ATOM     14  C   UNL     1      47.293   3.573  16.783  0.00  0.00    +0.000 A 
ATOM     15  C   UNL     1      48.428   2.764  16.716  0.00  0.00    +0.000 A 
ATOM     16  C   UNL     1      49.490   2.981  17.589  0.00  0.00    +0.000 A 
ATOM     17  C   UNL     1      49.423   4.008  18.529  0.00  0.00    +0.000 A 
ENDBRANCH  11  12
ENDBRANCH  10  11
ENDBRANCH   9  10
ENDBRANCH   6   9
ENDBRANCH   2   3
BRANCH   2  18
ATOM     18  N   UNL     1      47.395   6.656  12.361  0.00  0.00    +0.000 NA
ATOM     19  H   UNL     1      47.017   6.265  13.223  0.00  0.00    +0.000 HD
BRANCH  18  20
ATOM     20  C   UNL     1      46.300   6.957  11.431  0.00  0.00    +0.000 C 
ATOM     21  C   UNL     1      45.221   7.707  12.217  0.00  0.00    +0.000 C 
BRANCH  20  22
ATOM     22  C   UNL     1      45.787   5.714  10.756  0.00  0.00    +0.000 A 
ATOM     23  C   UNL     1      45.805   5.473   9.394  0.00  0.00    +0.000 A 
ATOM     24  S   UNL     1      44.944   4.061   8.954  0.00  0.00    +0.000 S 
ATOM     25  C   UNL     1      44.503   3.757  10.571  0.00  0.00    +0.000 A 
ATOM     26  N   UNL     1      43.628   2.766  10.900  0.00  0.00    +0.000 NA
ATOM     27  C   UNL     1      43.363   2.698  12.165  0.00  0.00    +0.000 A 
ATOM     28  N   UNL     1      43.949   3.469  13.137  0.00  0.00    +0.000 N 
ATOM     29  C   UNL     1      44.939   4.390  12.863  0.00  0.00    +0.000 A 
ATOM     30  O   UNL     1      45.623   4.880  13.751  0.00  0.00    +0.000 OA
ATOM     31  C   UNL     1      45.122   4.630  11.443  0.00  0.00    +0.000 A 
ATOM     32  H   UNL     1      43.753   3.305  14.112  0.00  0.00    +0.000 HD
ENDBRANCH  20  22
ENDBRANCH  18  20
ENDBRANCH   2  18
TORSDOF 8
ENDMDL
MODEL 5
REMARK VINA RESULT:    -7.163      2.410      2.991
REMARK INTER + INTRA:         -11.820
REMARK INTER:                 -10.688
REMARK INTRA:                  -1.132
REMARK UNBOUND:                -1.308
REMARK  Name = 
REMARK  10 active torsions:
REMARK  status: ('A' for Active; 'I' for Inactive)
REMARK    1  A    between atoms: C_1  and  C_2
REMARK    2  A    between atoms: C_2  and  N_3
REMARK    3  A    between atoms: C_2  and  C_16
REMARK    4  A    between atoms: N_3  and  C_4
REMARK    5  A    between atoms: C_4  and  C_5
REMARK    6  A    between atoms: C_4  and  C_6
REMARK    7  A    between atoms: C_19  and  C_20
REMARK    8  A    between atoms: C_20  and  O_21
REMARK    9  A    between atoms: O_21  and  C_22
REMARK   10  A    between atoms: C_22  and  C_23
REMARK                            x       y       z     vdW  Elec       q    Type
REMARK                         _______ _______ _______ _____ _____    ______ ____
ROOT
ATOM      1  C   UNL     1      48.240   8.636  13.654  0.00  0.00    +0.000 C 
ATOM      2  C   UNL     1      48.327   7.168  14.110  0.00  0.00    +0.000 C 
ENDROOT
BRANCH   2   3
ATOM      3  C   UNL     1      47.407   6.278  13.277  0.00  0.00    +0.000 A 
ATOM      4  C   UNL     1      46.908   5.087  13.840  0.00  0.00    +0.000 A 
ATOM      5  C   UNL     1      45.909   4.347  13.202  0.00  0.00    +0.000 A 
ATOM      6  C   UNL     1      45.340   4.804  12.010  0.00  0.00    +0.000 A 
ATOM      7  C   UNL     1      45.883   5.936  11.405  0.00  0.00    +0.000 A 
ATOM      8  C   UNL     1      46.936   6.625  12.006  0.00  0.00    +0.000 A 
BRANCH   6   9
ATOM      9  C   UNL     1      44.150   4.115  11.407  0.00  0.00    +0.000 C 
BRANCH   9  10
ATOM     10  O   UNL     1      44.640   3.122  10.512  0.00  0.00    +0.000 OA
BRANCH  10  11
ATOM     11  C   UNL     1      44.458   3.496   9.153  0.00  0.00    +0.000 C 
BRANCH  11  12
ATOM     12  C   UNL     1      45.534   2.829   8.341  0.00  0.00    +0.000 A 
ATOM     13  C   UNL     1      45.797   1.461   8.479  0.00  0.00    +0.000 A 
ATOM     14  C   UNL     1      46.790   0.852   7.711  0.00  0.00    +0.000 A 
ATOM     15  C   UNL     1      47.529   1.605   6.798  0.00  0.00    +0.000 A 
ATOM     16  C   UNL     1      47.277   2.966   6.652  0.00  0.00    +0.000 A 
ATOM     17  C   UNL     1      46.284   3.578   7.417  0.00  0.00    +0.000 A 
ENDBRANCH  11  12
ENDBRANCH  10  11
ENDBRANCH   9  10
ENDBRANCH   6   9
ENDBRANCH   2   3
BRANCH   2  18
ATOM     18  N   UNL     1      48.117   7.190  15.569  0.00  0.00    +0.000 NA
ATOM     19  H   UNL     1      47.412   6.492  15.805  0.00  0.00    +0.000 HD
BRANCH  18  20
ATOM     20  C   UNL     1      49.268   7.056  16.470  0.00  0.00    +0.000 C 
ATOM     21  C   UNL     1      50.529   7.013  15.603  0.00  0.00    +0.000 C 
BRANCH  20  22
ATOM     22  C   UNL     1      49.128   5.863  17.375  0.00  0.00    +0.000 A 
ATOM     23  C   UNL     1      48.807   4.580  16.969  0.00  0.00    +0.000 A 
ATOM     24  S   UNL     1      48.515   3.518  18.279  0.00  0.00    +0.000 S 
ATOM     25  C   UNL     1      48.781   4.757  19.418  0.00  0.00    +0.000 A 
ATOM     26  N   UNL     1      48.548   4.571  20.747  0.00  0.00    +0.000 NA
ATOM     27  C   UNL     1      48.755   5.624  21.469  0.00  0.00    +0.000 A 
ATOM     28  N   UNL     1      49.248   6.816  21.003  0.00  0.00    +0.000 N 
ATOM     29  C   UNL     1      49.624   7.006  19.690  0.00  0.00    +0.000 A 
ATOM     30  O   UNL     1      50.290   7.974  19.346  0.00  0.00    +0.000 OA
ATOM     31  C   UNL     1      49.228   5.916  18.816  0.00  0.00    +0.000 A 
ATOM     32  H   UNL     1      49.460   7.570  21.639  0.00  0.00    +0.000 HD
ENDBRANCH  20  22
ENDBRANCH  18  20
ENDBRANCH   2  18
TORSDOF 8
ENDMDL
MODEL 6
REMARK VINA RESULT:    -6.877      3.362      4.754
REMARK INTER + INTRA:         -11.401
REMARK INTER:                  -9.619
REMARK INTRA:                  -1.781
REMARK UNBOUND:                -1.308
REMARK  Name = 
REMARK  10 active torsions:
REMARK  status: ('A' for Active; 'I' for Inactive)
REMARK    1  A    between atoms: C_1  and  C_2
REMARK    2  A    between atoms: C_2  and  N_3
REMARK    3  A    between atoms: C_2  and  C_16
REMARK    4  A    between atoms: N_3  and  C_4
REMARK    5  A    between atoms: C_4  and  C_5
REMARK    6  A    between atoms: C_4  and  C_6
REMARK    7  A    between atoms: C_19  and  C_20
REMARK    8  A    between atoms: C_20  and  O_21
REMARK    9  A    between atoms: O_21  and  C_22
REMARK   10  A    between atoms: C_22  and  C_23
REMARK                            x       y       z     vdW  Elec       q    Type
REMARK                         _______ _______ _______ _____ _____    ______ ____
ROOT
ATOM      1  C   UNL     1      49.208   9.404  12.081  0.00  0.00    +0.000 C 
ATOM      2  C   UNL     1      49.480   7.893  11.961  0.00  0.00    +0.000 C 
ENDROOT
BRANCH   2   3
ATOM      3  C   UNL     1      48.207   7.085  12.201  0.00  0.00    +0.000 A 
ATOM      4  C   UNL     1      47.181   7.115  11.236  0.00  0.00    +0.000 A 
ATOM      5  C   UNL     1      46.092   6.242  11.307  0.00  0.00    +0.000 A 
ATOM      6  C   UNL     1      46.024   5.276  12.315  0.00  0.00    +0.000 A 
ATOM      7  C   UNL     1      46.989   5.293  13.319  0.00  0.00    +0.000 A 
ATOM      8  C   UNL     1      48.031   6.221  13.286  0.00  0.00    +0.000 A 
BRANCH   6   9
ATOM      9  C   UNL     1      44.955   4.222  12.304  0.00  0.00    +0.000 C 
BRANCH   9  10
ATOM     10  O   UNL     1      44.218   4.374  11.095  0.00  0.00    +0.000 OA
BRANCH  10  11
ATOM     11  C   UNL     1      44.009   3.129  10.442  0.00  0.00    +0.000 C 
BRANCH  11  12
ATOM     12  C   UNL     1      44.982   3.039   9.297  0.00  0.00    +0.000 A 
ATOM     13  C   UNL     1      45.405   4.187   8.618  0.00  0.00    +0.000 A 
ATOM     14  C   UNL     1      46.317   4.091   7.566  0.00  0.00    +0.000 A 
ATOM     15  C   UNL     1      46.815   2.845   7.185  0.00  0.00    +0.000 A 
ATOM     16  C   UNL     1      46.402   1.696   7.853  0.00  0.00    +0.000 A 
ATOM     17  C   UNL     1      45.492   1.788   8.905  0.00  0.00    +0.000 A 
ENDBRANCH  11  12
ENDBRANCH  10  11
ENDBRANCH   9  10
ENDBRANCH   6   9
ENDBRANCH   2   3
BRANCH   2  18
ATOM     18  N   UNL     1      50.633   7.625  12.840  0.00  0.00    +0.000 NA
ATOM     19  H   UNL     1      51.442   7.414  12.257  0.00  0.00    +0.000 HD
BRANCH  18  20
ATOM     20  C   UNL     1      51.006   8.606  13.868  0.00  0.00    +0.000 C 
ATOM     21  C   UNL     1      52.492   8.924  13.683  0.00  0.00    +0.000 C 
BRANCH  20  22
ATOM     22  C   UNL     1      50.670   8.116  15.249  0.00  0.00    +0.000 A 
ATOM     23  C   UNL     1      51.151   6.956  15.829  0.00  0.00    +0.000 A 
ATOM     24  S   UNL     1      50.394   6.591  17.321  0.00  0.00    +0.000 S 
ATOM     25  C   UNL     1      49.386   7.960  17.209  0.00  0.00    +0.000 A 
ATOM     26  N   UNL     1      48.376   8.180  18.097  0.00  0.00    +0.000 NA
ATOM     27  C   UNL     1      47.676   9.238  17.845  0.00  0.00    +0.000 A 
ATOM     28  N   UNL     1      47.938  10.137  16.842  0.00  0.00    +0.000 N 
ATOM     29  C   UNL     1      49.029  10.025  16.006  0.00  0.00    +0.000 A 
ATOM     30  O   UNL     1      49.390  10.953  15.294  0.00  0.00    +0.000 OA
ATOM     31  C   UNL     1      49.722   8.756  16.133  0.00  0.00    +0.000 A 
ATOM     32  H   UNL     1      47.396  10.984  16.755  0.00  0.00    +0.000 HD
ENDBRANCH  20  22
ENDBRANCH  18  20
ENDBRANCH   2  18
TORSDOF 8
ENDMDL
MODEL 7
REMARK VINA RESULT:    -6.721      2.990      3.744
REMARK INTER + INTRA:         -11.172
REMARK INTER:                  -9.852
REMARK INTRA:                  -1.320
REMARK UNBOUND:                -1.308
REMARK  Name = 
REMARK  10 active torsions:
REMARK  status: ('A' for Active; 'I' for Inactive)
REMARK    1  A    between atoms: C_1  and  C_2
REMARK    2  A    between atoms: C_2  and  N_3
REMARK    3  A    between atoms: C_2  and  C_16
REMARK    4  A    between atoms: N_3  and  C_4
REMARK    5  A    between atoms: C_4  and  C_5
REMARK    6  A    between atoms: C_4  and  C_6
REMARK    7  A    between atoms: C_19  and  C_20
REMARK    8  A    between atoms: C_20  and  O_21
REMARK    9  A    between atoms: O_21  and  C_22
REMARK   10  A    between atoms: C_22  and  C_23
REMARK                            x       y       z     vdW  Elec       q    Type
REMARK                         _______ _______ _______ _____ _____    ______ ____
ROOT
ATOM      1  C   UNL     1      47.888   8.683  14.138  0.00  0.00    +0.000 C 
ATOM      2  C   UNL     1      48.213   7.178  14.166  0.00  0.00    +0.000 C 
ENDROOT
BRANCH   2   3
ATOM      3  C   UNL     1      47.334   6.408  13.184  0.00  0.00    +0.000 A 
ATOM      4  C   UNL     1      46.633   5.271  13.633  0.00  0.00    +0.000 A 
ATOM      5  C   UNL     1      45.664   4.655  12.836  0.00  0.00    +0.000 A 
ATOM      6  C   UNL     1      45.327   5.190  11.589  0.00  0.00    +0.000 A 
ATOM      7  C   UNL     1      46.071   6.263  11.103  0.00  0.00    +0.000 A 
ATOM      8  C   UNL     1      47.093   6.823  11.870  0.00  0.00    +0.000 A 
BRANCH   6   9
ATOM      9  C   UNL     1      44.171   4.645  10.801  0.00  0.00    +0.000 C 
BRANCH   9  10
ATOM     10  O   UNL     1      44.663   3.567  10.011  0.00  0.00    +0.000 OA
BRANCH  10  11
ATOM     11  C   UNL     1      44.667   3.884   8.626  0.00  0.00    +0.000 C 
BRANCH  11  12
ATOM     12  C   UNL     1      45.682   3.001   7.952  0.00  0.00    +0.000 A 
ATOM     13  C   UNL     1      45.858   1.671   8.351  0.00  0.00    +0.000 A 
ATOM     14  C   UNL     1      46.794   0.859   7.710  0.00  0.00    +0.000 A 
ATOM     15  C   UNL     1      47.562   1.369   6.664  0.00  0.00    +0.000 A 
ATOM     16  C   UNL     1      47.397   2.690   6.258  0.00  0.00    +0.000 A 
ATOM     17  C   UNL     1      46.462   3.504   6.896  0.00  0.00    +0.000 A 
ENDBRANCH  11  12
ENDBRANCH  10  11
ENDBRANCH   9  10
ENDBRANCH   6   9
ENDBRANCH   2   3
BRANCH   2  18
ATOM     18  N   UNL     1      48.154   6.784  15.586  0.00  0.00    +0.000 NA
ATOM     19  H   UNL     1      47.478   6.027  15.684  0.00  0.00    +0.000 HD
BRANCH  18  20
ATOM     20  C   UNL     1      49.393   6.438  16.294  0.00  0.00    +0.000 C 
ATOM     21  C   UNL     1      49.126   5.156  17.089  0.00  0.00    +0.000 C 
BRANCH  20  22
ATOM     22  C   UNL     1      49.880   7.576  17.149  0.00  0.00    +0.000 A 
ATOM     23  C   UNL     1      49.534   7.793  18.471  0.00  0.00    +0.000 A 
ATOM     24  S   UNL     1      50.091   9.297  19.069  0.00  0.00    +0.000 S 
ATOM     25  C   UNL     1      50.780   9.705  17.565  0.00  0.00    +0.000 A 
ATOM     26  N   UNL     1      51.303  10.940  17.328  0.00  0.00    +0.000 NA
ATOM     27  C   UNL     1      51.743  11.102  16.122  0.00  0.00    +0.000 A 
ATOM     28  N   UNL     1      51.784  10.125  15.160  0.00  0.00    +0.000 N 
ATOM     29  C   UNL     1      51.391   8.825  15.398  0.00  0.00    +0.000 A 
ATOM     30  O   UNL     1      51.667   7.918  14.624  0.00  0.00    +0.000 OA
ATOM     31  C   UNL     1      50.715   8.655  16.672  0.00  0.00    +0.000 A 
ATOM     32  H   UNL     1      52.217  10.301  14.265  0.00  0.00    +0.000 HD
ENDBRANCH  20  22
ENDBRANCH  18  20
ENDBRANCH   2  18
TORSDOF 8
ENDMDL
MODEL 8
REMARK VINA RESULT:    -6.657      2.636      3.804
REMARK INTER + INTRA:         -11.079
REMARK INTER:                  -9.883
REMARK INTRA:                  -1.196
REMARK UNBOUND:                -1.308
REMARK  Name = 
REMARK  10 active torsions:
REMARK  status: ('A' for Active; 'I' for Inactive)
REMARK    1  A    between atoms: C_1  and  C_2
REMARK    2  A    between atoms: C_2  and  N_3
REMARK    3  A    between atoms: C_2  and  C_16
REMARK    4  A    between atoms: N_3  and  C_4
REMARK    5  A    between atoms: C_4  and  C_5
REMARK    6  A    between atoms: C_4  and  C_6
REMARK    7  A    between atoms: C_19  and  C_20
REMARK    8  A    between atoms: C_20  and  O_21
REMARK    9  A    between atoms: O_21  and  C_22
REMARK   10  A    between atoms: C_22  and  C_23
REMARK                            x       y       z     vdW  Elec       q    Type
REMARK                         _______ _______ _______ _____ _____    ______ ____
ROOT
ATOM      1  C   UNL     1      47.526   4.166  16.761  0.00  0.00    +0.000 C 
ATOM      2  C   UNL     1      47.909   5.382  15.897  0.00  0.00    +0.000 C 
ENDROOT
BRANCH   2   3
ATOM      3  C   UNL     1      47.353   5.248  14.482  0.00  0.00    +0.000 A 
ATOM      4  C   UNL     1      46.605   4.103  14.143  0.00  0.00    +0.000 A 
ATOM      5  C   UNL     1      45.907   4.024  12.935  0.00  0.00    +0.000 A 
ATOM      6  C   UNL     1      45.891   5.109  12.054  0.00  0.00    +0.000 A 
ATOM      7  C   UNL     1      46.692   6.212  12.342  0.00  0.00    +0.000 A 
ATOM      8  C   UNL     1      47.451   6.250  13.512  0.00  0.00    +0.000 A 
BRANCH   6   9
ATOM      9  C   UNL     1      45.007   5.106  10.840  0.00  0.00    +0.000 C 
BRANCH   9  10
ATOM     10  O   UNL     1      44.792   3.748  10.472  0.00  0.00    +0.000 OA
BRANCH  10  11
ATOM     11  C   UNL     1      44.395   3.624   9.113  0.00  0.00    +0.000 C 
BRANCH  11  12
ATOM     12  C   UNL     1      45.513   2.949   8.365  0.00  0.00    +0.000 A 
ATOM     13  C   UNL     1      45.725   1.570   8.474  0.00  0.00    +0.000 A 
ATOM     14  C   UNL     1      46.758   0.956   7.765  0.00  0.00    +0.000 A 
ATOM     15  C   UNL     1      47.589   1.715   6.940  0.00  0.00    +0.000 A 
ATOM     16  C   UNL     1      47.388   3.087   6.824  0.00  0.00    +0.000 A 
ATOM     17  C   UNL     1      46.356   3.704   7.530  0.00  0.00    +0.000 A 
ENDBRANCH  11  12
ENDBRANCH  10  11
ENDBRANCH   9  10
ENDBRANCH   6   9
ENDBRANCH   2   3
BRANCH   2  18
ATOM     18  N   UNL     1      49.368   5.533  16.045  0.00  0.00    +0.000 NA
ATOM     19  H   UNL     1      49.803   5.370  15.138  0.00  0.00    +0.000 HD
BRANCH  18  20
ATOM     20  C   UNL     1      49.914   6.758  16.644  0.00  0.00    +0.000 C 
ATOM     21  C   UNL     1      51.353   6.913  16.143  0.00  0.00    +0.000 C 
BRANCH  20  22
ATOM     22  C   UNL     1      49.805   6.738  18.143  0.00  0.00    +0.000 A 
ATOM     23  C   UNL     1      50.360   5.784  18.977  0.00  0.00    +0.000 A 
ATOM     24  S   UNL     1      49.856   5.944  20.605  0.00  0.00    +0.000 S 
ATOM     25  C   UNL     1      48.861   7.274  20.226  0.00  0.00    +0.000 A 
ATOM     26  N   UNL     1      48.016   7.820  21.144  0.00  0.00    +0.000 NA
ATOM     27  C   UNL     1      47.297   8.793  20.684  0.00  0.00    +0.000 A 
ATOM     28  N   UNL     1      47.402   9.322  19.422  0.00  0.00    +0.000 N 
ATOM     29  C   UNL     1      48.338   8.889  18.506  0.00  0.00    +0.000 A 
ATOM     30  O   UNL     1      48.588   9.529  17.493  0.00  0.00    +0.000 OA
ATOM     31  C   UNL     1      49.025   7.678  18.917  0.00  0.00    +0.000 A 
ATOM     32  H   UNL     1      46.865  10.134  19.159  0.00  0.00    +0.000 HD
ENDBRANCH  20  22
ENDBRANCH  18  20
ENDBRANCH   2  18
TORSDOF 8
ENDMDL
MODEL 9
REMARK VINA RESULT:    -6.514      3.353      4.989
REMARK INTER + INTRA:         -10.869
REMARK INTER:                  -8.750
REMARK INTRA:                  -2.118
REMARK UNBOUND:                -1.308
REMARK  Name = 
REMARK  10 active torsions:
REMARK  status: ('A' for Active; 'I' for Inactive)
REMARK    1  A    between atoms: C_1  and  C_2
REMARK    2  A    between atoms: C_2  and  N_3
REMARK    3  A    between atoms: C_2  and  C_16
REMARK    4  A    between atoms: N_3  and  C_4
REMARK    5  A    between atoms: C_4  and  C_5
REMARK    6  A    between atoms: C_4  and  C_6
REMARK    7  A    between atoms: C_19  and  C_20
REMARK    8  A    between atoms: C_20  and  O_21
REMARK    9  A    between atoms: O_21  and  C_22
REMARK   10  A    between atoms: C_22  and  C_23
REMARK                            x       y       z     vdW  Elec       q    Type
REMARK                         _______ _______ _______ _____ _____    ______ ____
ROOT
ATOM      1  C   UNL     1      47.410   7.965  19.093  0.00  0.00    +0.000 C 
ATOM      2  C   UNL     1      48.931   7.850  18.877  0.00  0.00    +0.000 C 
ENDROOT
BRANCH   2   3
ATOM      3  C   UNL     1      49.289   8.003  17.401  0.00  0.00    +0.000 A 
ATOM      4  C   UNL     1      50.386   7.286  16.882  0.00  0.00    +0.000 A 
ATOM      5  C   UNL     1      50.631   7.231  15.507  0.00  0.00    +0.000 A 
ATOM      6  C   UNL     1      49.756   7.845  14.606  0.00  0.00    +0.000 A 
ATOM      7  C   UNL     1      48.717   8.623  15.113  0.00  0.00    +0.000 A 
ATOM      8  C   UNL     1      48.526   8.741  16.490  0.00  0.00    +0.000 A 
BRANCH   6   9
ATOM      9  C   UNL     1      49.907   7.648  13.126  0.00  0.00    +0.000 C 
BRANCH   9  10
ATOM     10  O   UNL     1      49.041   6.583  12.746  0.00  0.00    +0.000 OA
BRANCH  10  11
ATOM     11  C   UNL     1      48.020   7.020  11.860  0.00  0.00    +0.000 C 
BRANCH  11  12
ATOM     12  C   UNL     1      46.748   6.309  12.234  0.00  0.00    +0.000 A 
ATOM     13  C   UNL     1      46.705   5.432  13.324  0.00  0.00    +0.000 A 
ATOM     14  C   UNL     1      45.516   4.788  13.668  0.00  0.00    +0.000 A 
ATOM     15  C   UNL     1      44.358   5.015  12.924  0.00  0.00    +0.000 A 
ATOM     16  C   UNL     1      44.387   5.884  11.837  0.00  0.00    +0.000 A 
ATOM     17  C   UNL     1      45.574   6.530  11.492  0.00  0.00    +0.000 A 
ENDBRANCH  11  12
ENDBRANCH  10  11
ENDBRANCH   9  10
ENDBRANCH   6   9
ENDBRANCH   2   3
BRANCH   2  18
ATOM     18  N   UNL     1      49.336   6.603  19.552  0.00  0.00    +0.000 NA
ATOM     19  H   UNL     1      49.693   6.838  20.477  0.00  0.00    +0.000 HD
BRANCH  18  20
ATOM     20  C   UNL     1      48.382   5.491  19.655  0.00  0.00    +0.000 C 
ATOM     21  C   UNL     1      48.691   4.740  20.953  0.00  0.00    +0.000 C 
BRANCH  20  22
ATOM     22  C   UNL     1      48.421   4.612  18.436  0.00  0.00    +0.000 A 
ATOM     23  C   UNL     1      47.355   4.362  17.591  0.00  0.00    +0.000 A 
ATOM     24  S   UNL     1      47.690   3.145  16.434  0.00  0.00    +0.000 S 
ATOM     25  C   UNL     1      49.257   2.904  17.057  0.00  0.00    +0.000 A 
ATOM     26  N   UNL     1      50.053   1.890  16.619  0.00  0.00    +0.000 NA
ATOM     27  C   UNL     1      51.194   1.817  17.226  0.00  0.00    +0.000 A 
ATOM     28  N   UNL     1      51.644   2.708  18.168  0.00  0.00    +0.000 N 
ATOM     29  C   UNL     1      50.927   3.825  18.542  0.00  0.00    +0.000 A 
ATOM     30  O   UNL     1      51.441   4.733  19.182  0.00  0.00    +0.000 OA
ATOM     31  C   UNL     1      49.569   3.834  18.028  0.00  0.00    +0.000 A 
ATOM     32  H   UNL     1      52.579   2.635  18.540  0.00  0.00    +0.000 HD
ENDBRANCH  20  22
ENDBRANCH  18  20
ENDBRANCH   2  18
TORSDOF 8
ENDMDL
