MODEL 1
REMARK VINA RESULT:    -7.606      0.000      0.000
REMARK INTER + INTRA:          -8.744
REMARK INTER:                  -8.495
REMARK INTRA:                  -0.248
REMARK UNBOUND:                -0.248
REMARK  Name = 
REMARK  2 active torsions:
REMARK  status: ('A' for Active; 'I' for Inactive)
REMARK    1  A    between atoms: N_5  and  C_6
REMARK    2  A    between atoms: C_6  and  C_7
REMARK                            x       y       z     vdW  Elec       q    Type
REMARK                         _______ _______ _______ _____ _____    ______ ____
ROOT
ATOM      1  C   UNL     1      44.798   4.320  11.737  0.00  0.00    +0.000 A 
ATOM      2  C   UNL     1      45.237   3.219  12.449  0.00  0.00    +0.000 A 
ATOM      3  N   UNL     1      46.272   3.289  13.299  0.00  0.00    +0.000 NA
ATOM      4  N   UNL     1      46.918   4.493  13.483  0.00  0.00    +0.000 NA
ATOM      5  C   UNL     1      46.541   5.615  12.831  0.00  0.00    +0.000 A 
ATOM      6  N   UNL     1      47.206   6.799  13.056  0.00  0.00    +0.000 N 
ATOM      7  C   UNL     1      47.326   7.870  12.064  0.00  0.00    +0.000 C 
ATOM      8  C   UNL     1      48.807   8.173  11.777  0.00  0.00    +0.000 C 
ATOM      9  O   UNL     1      49.539   8.442  12.981  0.00  0.00    +0.000 OA
ATOM     10  C   UNL     1      49.497   7.295  13.848  0.00  0.00    +0.000 C 
ATOM     11  C   UNL     1      48.055   6.949  14.247  0.00  0.00    +0.000 C 
ATOM     12  C   UNL     1      45.459   5.534  11.957  0.00  0.00    +0.000 A 
ENDROOT
BRANCH   1  13
ATOM     13  C   UNL     1      43.661   4.205  10.763  0.00  0.00    +0.000 C 
BRANCH  13  18
ATOM     14  C   UNL     1      46.697   2.299   7.460  0.00  0.00    +0.000 A 
ATOM     15  C   UNL     1      45.758   1.785   8.315  0.00  0.00    +0.000 A 
ATOM     16  N   UNL     1      44.879   2.547   8.991  0.00  0.00    +0.000 NA
ATOM     17  C   UNL     1      44.939   3.875   8.799  0.00  0.00    +0.000 A 
ATOM     18  N   UNL     1      44.050   4.711   9.467  0.00  0.00    +0.000 N 
ATOM     19  N   UNL     1      45.829   4.470   7.996  0.00  0.00    +0.000 NA
ATOM     20  C   UNL     1      46.687   3.665   7.336  0.00  0.00    +0.000 A 
ATOM     21  H   UNL     1      44.462   5.637   9.451  0.00  0.00    +0.000 HD
ENDBRANCH  13  18
ENDBRANCH   1  13
TORSDOF 2
ENDMDL
MODEL 2
REMARK VINA RESULT:    -7.564      1.764      2.644
REMARK INTER + INTRA:          -8.697
REMARK INTER:                  -8.310
REMARK INTRA:                  -0.387
REMARK UNBOUND:                -0.248
REMARK  Name = 
REMARK  2 active torsions:
REMARK  status: ('A' for Active; 'I' for Inactive)
REMARK    1  A    between atoms: N_5  and  C_6
REMARK    2  A    between atoms: C_6  and  C_7
REMARK                            x       y       z     vdW  Elec       q    Type
REMARK                         _______ _______ _______ _____ _____    ______ ____
ROOT
ATOM      1  C   UNL     1      44.507   5.343  11.389  0.00  0.00    +0.000 A 
ATOM      2  C   UNL     1      44.285   6.707  11.391  0.00  0.00    +0.000 A 
ATOM      3  N   UNL     1      44.997   7.543  12.161  0.00  0.00    +0.000 NA
ATOM      4  N   UNL     1      45.992   7.036  12.971  0.00  0.00    +0.000 NA
ATOM      5  C   UNL     1      46.275   5.715  13.016  0.00  0.00    +0.000 A 
ATOM      6  N   UNL     1      47.287   5.255  13.829  0.00  0.00    +0.000 N 
ATOM      7  C   UNL     1      47.313   3.916  14.421  0.00  0.00    +0.000 C 
ATOM      8  C   UNL     1      47.387   4.007  15.955  0.00  0.00    +0.000 C 
ATOM      9  O   UNL     1      48.478   4.832  16.387  0.00  0.00    +0.000 OA
ATOM     10  C   UNL     1      48.313   6.169  15.886  0.00  0.00    +0.000 C 
ATOM     11  C   UNL     1      48.293   6.192  14.350  0.00  0.00    +0.000 C 
ATOM     12  C   UNL     1      45.535   4.857  12.206  0.00  0.00    +0.000 A 
ENDROOT
BRANCH   1  13
ATOM     13  C   UNL     1      43.668   4.426  10.547  0.00  0.00    +0.000 C 
BRANCH  13  18
ATOM     14  C   UNL     1      46.669   2.043   7.535  0.00  0.00    +0.000 A 
ATOM     15  C   UNL     1      45.835   1.671   8.555  0.00  0.00    +0.000 A 
ATOM     16  N   UNL     1      44.929   2.500   9.108  0.00  0.00    +0.000 NA
ATOM     17  C   UNL     1      44.853   3.746   8.615  0.00  0.00    +0.000 A 
ATOM     18  N   UNL     1      43.931   4.644   9.143  0.00  0.00    +0.000 N 
ATOM     19  N   UNL     1      45.635   4.205   7.630  0.00  0.00    +0.000 NA
ATOM     20  C   UNL     1      46.524   3.337   7.104  0.00  0.00    +0.000 A 
ATOM     21  H   UNL     1      44.253   5.570   8.884  0.00  0.00    +0.000 HD
ENDBRANCH  13  18
ENDBRANCH   1  13
TORSDOF 2
ENDMDL
MODEL 3
REMARK VINA RESULT:    -7.273      1.606      2.052
REMARK INTER + INTRA:          -8.372
REMARK INTER:                  -8.022
REMARK INTRA:                  -0.350
REMARK UNBOUND:                -0.248
REMARK  Name = 
REMARK  2 active torsions:
REMARK  status: ('A' for Active; 'I' for Inactive)
REMARK    1  A    between atoms: N_5  and  C_6
REMARK    2  A    between atoms: C_6  and  C_7
REMARK                            x       y       z     vdW  Elec       q    Type
REMARK                         _______ _______ _______ _____ _____    ______ ____
ROOT
ATOM      1  C   UNL     1      44.120   4.336  11.096  0.00  0.00    +0.000 A 
ATOM      2  C   UNL     1      43.272   4.311  12.188  0.00  0.00    +0.000 A 
ATOM      3  N   UNL     1      43.420   5.151  13.223  0.00  0.00    +0.000 NA
ATOM      4  N   UNL     1      44.439   6.080  13.200  0.00  0.00    +0.000 NA
ATOM      5  C   UNL     1      45.301   6.173  12.164  0.00  0.00    +0.000 A 
ATOM      6  N   UNL     1      46.295   7.126  12.178  0.00  0.00    +0.000 N 
ATOM      7  C   UNL     1      47.582   6.973  11.496  0.00  0.00    +0.000 C 
ATOM      8  C   UNL     1      48.741   7.092  12.500  0.00  0.00    +0.000 C 
ATOM      9  O   UNL     1      48.656   8.299  13.271  0.00  0.00    +0.000 OA
ATOM     10  C   UNL     1      47.432   8.316  14.025  0.00  0.00    +0.000 C 
ATOM     11  C   UNL     1      46.205   8.266  13.102  0.00  0.00    +0.000 C 
ATOM     12  C   UNL     1      45.133   5.302  11.090  0.00  0.00    +0.000 A 
ENDROOT
BRANCH   1  13
ATOM     13  C   UNL     1      43.955   3.357   9.969  0.00  0.00    +0.000 C 
BRANCH  13  18
ATOM     14  C   UNL     1      47.085   2.283   6.390  0.00  0.00    +0.000 A 
ATOM     15  C   UNL     1      46.501   3.435   6.844  0.00  0.00    +0.000 A 
ATOM     16  N   UNL     1      45.823   3.512   8.005  0.00  0.00    +0.000 NA
ATOM     17  C   UNL     1      45.733   2.393   8.741  0.00  0.00    +0.000 A 
ATOM     18  N   UNL     1      45.050   2.415   9.953  0.00  0.00    +0.000 N 
ATOM     19  N   UNL     1      46.258   1.217   8.374  0.00  0.00    +0.000 NA
ATOM     20  C   UNL     1      46.932   1.191   7.205  0.00  0.00    +0.000 A 
ATOM     21  H   UNL     1      44.819   1.452  10.168  0.00  0.00    +0.000 HD
ENDBRANCH  13  18
ENDBRANCH   1  13
TORSDOF 2
ENDMDL
MODEL 4
REMARK VINA RESULT:    -6.409      3.068      3.964
REMARK INTER + INTRA:          -7.406
REMARK INTER:                  -7.156
REMARK INTRA:                  -0.250
REMARK UNBOUND:                -0.248
REMARK  Name = 
REMARK  2 active torsions:
REMARK  status: ('A' for Active; 'I' for Inactive)
REMARK    1  A    between atoms: N_5  and  C_6
REMARK    2  A    between atoms: C_6  and  C_7
REMARK                            x       y       z     vdW  Elec       q    Type
REMARK                         _______ _______ _______ _____ _____    ______ ____
ROOT
ATOM      1  C   UNL     1      46.620   5.012  13.628  0.00  0.00    +0.000 A 
ATOM      2  C   UNL     1      47.500   5.833  12.948  0.00  0.00    +0.000 A 
ATOM      3  N   UNL     1      48.579   6.365  13.541  0.00  0.00    +0.000 NA
ATOM      4  N   UNL     1      48.833   6.081  14.866  0.00  0.00    +0.000 NA
ATOM      5  C   UNL     1      48.025   5.279  15.594  0.00  0.00    +0.000 A 
ATOM      6  N   UNL     1      48.326   5.012  16.911  0.00  0.00    +0.000 N 
ATOM      7  C   UNL     1      47.321   4.702  17.931  0.00  0.00    +0.000 C 
ATOM      8  C   UNL     1      47.402   5.711  19.090  0.00  0.00    +0.000 C 
ATOM      9  O   UNL     1      48.730   5.805  19.623  0.00  0.00    +0.000 OA
ATOM     10  C   UNL     1      49.640   6.250  18.602  0.00  0.00    +0.000 C 
ATOM     11  C   UNL     1      49.680   5.268  17.422  0.00  0.00    +0.000 C 
ATOM     12  C   UNL     1      46.912   4.725  14.967  0.00  0.00    +0.000 A 
ENDROOT
BRANCH   1  13
ATOM     13  C   UNL     1      45.398   4.463  12.951  0.00  0.00    +0.000 C 
BRANCH  13  18
ATOM     14  C   UNL     1      45.067   2.935   8.334  0.00  0.00    +0.000 A 
ATOM     15  C   UNL     1      44.696   2.419   9.547  0.00  0.00    +0.000 A 
ATOM     16  N   UNL     1      44.701   3.136  10.687  0.00  0.00    +0.000 NA
ATOM     17  C   UNL     1      45.086   4.420  10.606  0.00  0.00    +0.000 A 
ATOM     18  N   UNL     1      45.104   5.210  11.751  0.00  0.00    +0.000 N 
ATOM     19  N   UNL     1      45.478   5.008   9.469  0.00  0.00    +0.000 NA
ATOM     20  C   UNL     1      45.453   4.251   8.352  0.00  0.00    +0.000 A 
ATOM     21  H   UNL     1      45.714   5.994  11.547  0.00  0.00    +0.000 HD
ENDBRANCH  13  18
ENDBRANCH   1  13
TORSDOF 2
ENDMDL
MODEL 5
REMARK VINA RESULT:    -6.384      1.643      2.206
REMARK INTER + INTRA:          -7.378
REMARK INTER:                  -7.028
REMARK INTRA:                  -0.350
REMARK UNBOUND:                -0.248
REMARK  Name = 
REMARK  2 active torsions:
REMARK  status: ('A' for Active; 'I' for Inactive)
REMARK    1  A    between atoms: N_5  and  C_6
REMARK    2  A    between atoms: C_6  and  C_7
REMARK                            x       y       z     vdW  Elec       q    Type
REMARK                         _______ _______ _______ _____ _____    ______ ____
ROOT
ATOM      1  C   UNL     1      46.390   5.022  13.645  0.00  0.00    +0.000 A 
ATOM      2  C   UNL     1      46.852   4.468  14.824  0.00  0.00    +0.000 A 
ATOM      3  N   UNL     1      47.940   4.939  15.453  0.00  0.00    +0.000 NA
ATOM      4  N   UNL     1      48.617   6.015  14.921  0.00  0.00    +0.000 NA
ATOM      5  C   UNL     1      48.221   6.617  13.778  0.00  0.00    +0.000 A 
ATOM      6  N   UNL     1      48.920   7.698  13.290  0.00  0.00    +0.000 N 
ATOM      7  C   UNL     1      48.998   8.047  11.870  0.00  0.00    +0.000 C 
ATOM      8  C   UNL     1      50.463   8.073  11.402  0.00  0.00    +0.000 C 
ATOM      9  O   UNL     1      51.273   8.918  12.231  0.00  0.00    +0.000 OA
ATOM     10  C   UNL     1      51.264   8.433  13.585  0.00  0.00    +0.000 C 
ATOM     11  C   UNL     1      49.843   8.432  14.169  0.00  0.00    +0.000 C 
ATOM     12  C   UNL     1      47.086   6.126  13.137  0.00  0.00    +0.000 A 
ENDROOT
BRANCH   1  13
ATOM     13  C   UNL     1      45.194   4.451  12.941  0.00  0.00    +0.000 C 
BRANCH  13  18
ATOM     14  C   UNL     1      45.201   2.899   8.320  0.00  0.00    +0.000 A 
ATOM     15  C   UNL     1      44.792   2.366   9.514  0.00  0.00    +0.000 A 
ATOM     16  N   UNL     1      44.695   3.084  10.649  0.00  0.00    +0.000 NA
ATOM     17  C   UNL     1      45.014   4.387  10.583  0.00  0.00    +0.000 A 
ATOM     18  N   UNL     1      44.926   5.179  11.723  0.00  0.00    +0.000 N 
ATOM     19  N   UNL     1      45.437   4.993   9.466  0.00  0.00    +0.000 NA
ATOM     20  C   UNL     1      45.514   4.234   8.354  0.00  0.00    +0.000 A 
ATOM     21  H   UNL     1      45.503   5.994  11.549  0.00  0.00    +0.000 HD
ENDBRANCH  13  18
ENDBRANCH   1  13
TORSDOF 2
ENDMDL
MODEL 6
REMARK VINA RESULT:    -6.357      3.382      7.108
REMARK INTER + INTRA:          -7.349
REMARK INTER:                  -7.003
REMARK INTRA:                  -0.346
REMARK UNBOUND:                -0.248
REMARK  Name = 
REMARK  2 active torsions:
REMARK  status: ('A' for Active; 'I' for Inactive)
REMARK    1  A    between atoms: N_5  and  C_6
REMARK    2  A    between atoms: C_6  and  C_7
REMARK                            x       y       z     vdW  Elec       q    Type
REMARK                         _______ _______ _______ _____ _____    ______ ____
ROOT
ATOM      1  C   UNL     1      48.142   6.702  13.755  0.00  0.00    +0.000 A 
ATOM      2  C   UNL     1      48.694   7.272  12.624  0.00  0.00    +0.000 A 
ATOM      3  N   UNL     1      48.068   7.249  11.438  0.00  0.00    +0.000 NA
ATOM      4  N   UNL     1      46.831   6.650  11.337  0.00  0.00    +0.000 NA
ATOM      5  C   UNL     1      46.222   6.080  12.400  0.00  0.00    +0.000 A 
ATOM      6  N   UNL     1      44.979   5.506  12.256  0.00  0.00    +0.000 N 
ATOM      7  C   UNL     1      44.493   4.395  13.077  0.00  0.00    +0.000 C 
ATOM      8  C   UNL     1      44.121   3.193  12.192  0.00  0.00    +0.000 C 
ATOM      9  O   UNL     1      43.206   3.561  11.150  0.00  0.00    +0.000 OA
ATOM     10  C   UNL     1      43.804   4.553  10.298  0.00  0.00    +0.000 C 
ATOM     11  C   UNL     1      44.154   5.827  11.082  0.00  0.00    +0.000 C 
ATOM     12  C   UNL     1      46.876   6.117  13.629  0.00  0.00    +0.000 A 
ENDROOT
BRANCH   1  13
ATOM     13  C   UNL     1      48.883   6.707  15.061  0.00  0.00    +0.000 C 
BRANCH  13  18
ATOM     14  C   UNL     1      49.103   2.798  17.966  0.00  0.00    +0.000 A 
ATOM     15  C   UNL     1      50.030   3.649  17.423  0.00  0.00    +0.000 A 
ATOM     16  N   UNL     1      49.705   4.805  16.815  0.00  0.00    +0.000 NA
ATOM     17  C   UNL     1      48.403   5.123  16.752  0.00  0.00    +0.000 A 
ATOM     18  N   UNL     1      48.009   6.309  16.141  0.00  0.00    +0.000 N 
ATOM     19  N   UNL     1      47.424   4.351  17.240  0.00  0.00    +0.000 NA
ATOM     20  C   UNL     1      47.799   3.204  17.845  0.00  0.00    +0.000 A 
ATOM     21  H   UNL     1      47.028   6.200  15.910  0.00  0.00    +0.000 HD
ENDBRANCH  13  18
ENDBRANCH   1  13
TORSDOF 2
ENDMDL
MODEL 7
REMARK VINA RESULT:    -5.785      4.452      5.888
REMARK INTER + INTRA:          -6.710
REMARK INTER:                  -6.503
REMARK INTRA:                  -0.206
REMARK UNBOUND:                -0.248
REMARK  Name = 
REMARK  2 active torsions:
REMARK  status: ('A' for Active; 'I' for Inactive)
REMARK    1  A    between atoms: N_5  and  C_6
REMARK    2  A    between atoms: C_6  and  C_7
REMARK                            x       y       z     vdW  Elec       q    Type
REMARK                         _______ _______ _______ _____ _____    ______ ____
ROOT
ATOM      1  C   UNL     1      47.498   4.143  15.846  0.00  0.00    +0.000 A 
ATOM      2  C   UNL     1      48.045   2.875  15.888  0.00  0.00    +0.000 A 
ATOM      3  N   UNL     1      48.670   2.406  16.979  0.00  0.00    +0.000 NA
ATOM      4  N   UNL     1      48.762   3.202  18.101  0.00  0.00    +0.000 NA
ATOM      5  C   UNL     1      48.243   4.449  18.139  0.00  0.00    +0.000 A 
ATOM      6  N   UNL     1      48.347   5.203  19.287  0.00  0.00    +0.000 N 
ATOM      7  C   UNL     1      48.392   6.667  19.300  0.00  0.00    +0.000 C 
ATOM      8  C   UNL     1      49.684   7.160  19.974  0.00  0.00    +0.000 C 
ATOM      9  O   UNL     1      49.859   6.583  21.276  0.00  0.00    +0.000 OA
ATOM     10  C   UNL     1      49.949   5.151  21.171  0.00  0.00    +0.000 C 
ATOM     11  C   UNL     1      48.671   4.553  20.565  0.00  0.00    +0.000 C 
ATOM     12  C   UNL     1      47.589   4.923  17.005  0.00  0.00    +0.000 A 
ENDROOT
BRANCH   1  13
ATOM     13  C   UNL     1      46.839   4.657  14.598  0.00  0.00    +0.000 C 
BRANCH  13  18
ATOM     14  C   UNL     1      43.398   4.607  11.147  0.00  0.00    +0.000 A 
ATOM     15  C   UNL     1      44.380   5.488  11.514  0.00  0.00    +0.000 A 
ATOM     16  N   UNL     1      45.364   5.178  12.380  0.00  0.00    +0.000 NA
ATOM     17  C   UNL     1      45.365   3.938  12.893  0.00  0.00    +0.000 A 
ATOM     18  N   UNL     1      46.360   3.561  13.788  0.00  0.00    +0.000 N 
ATOM     19  N   UNL     1      44.440   3.014  12.606  0.00  0.00    +0.000 NA
ATOM     20  C   UNL     1      43.477   3.368  11.730  0.00  0.00    +0.000 A 
ATOM     21  H   UNL     1      46.005   2.754  14.288  0.00  0.00    +0.000 HD
ENDBRANCH  13  18
ENDBRANCH   1  13
TORSDOF 2
ENDMDL
MODEL 8
REMARK VINA RESULT:    -5.745      3.185      6.426
REMARK INTER + INTRA:          -6.665
REMARK INTER:                  -6.315
REMARK INTRA:                  -0.350
REMARK UNBOUND:                -0.248
REMARK  Name = 
REMARK  2 active torsions:
REMARK  status: ('A' for Active; 'I' for Inactive)
REMARK    1  A    between atoms: N_5  and  C_6
REMARK    2  A    between atoms: C_6  and  C_7
REMARK                            x       y       z     vdW  Elec       q    Type
REMARK                         _______ _______ _______ _____ _____    ______ ____
ROOT
ATOM      1  C   UNL     1      47.844   5.880  14.631  0.00  0.00    +0.000 A 
ATOM      2  C   UNL     1      48.014   4.740  15.393  0.00  0.00    +0.000 A 
ATOM      3  N   UNL     1      47.358   3.600  15.126  0.00  0.00    +0.000 NA
ATOM      4  N   UNL     1      46.495   3.552  14.052  0.00  0.00    +0.000 NA
ATOM      5  C   UNL     1      46.284   4.622  13.254  0.00  0.00    +0.000 A 
ATOM      6  N   UNL     1      45.423   4.524  12.184  0.00  0.00    +0.000 N 
ATOM      7  C   UNL     1      44.666   5.653  11.639  0.00  0.00    +0.000 C 
ATOM      8  C   UNL     1      43.156   5.361  11.684  0.00  0.00    +0.000 C 
ATOM      9  O   UNL     1      42.835   4.114  11.051  0.00  0.00    +0.000 OA
ATOM     10  C   UNL     1      43.502   3.034  11.726  0.00  0.00    +0.000 C 
ATOM     11  C   UNL     1      45.028   3.201  11.678  0.00  0.00    +0.000 C 
ATOM     12  C   UNL     1      46.976   5.798  13.535  0.00  0.00    +0.000 A 
ENDROOT
BRANCH   1  13
ATOM     13  C   UNL     1      48.560   7.153  14.976  0.00  0.00    +0.000 C 
BRANCH  13  18
ATOM     14  C   UNL     1      49.858  10.139  11.349  0.00  0.00    +0.000 A 
ATOM     15  C   UNL     1      49.120  10.280  12.493  0.00  0.00    +0.000 A 
ATOM     16  N   UNL     1      49.079   9.348  13.465  0.00  0.00    +0.000 NA
ATOM     17  C   UNL     1      49.809   8.237  13.284  0.00  0.00    +0.000 A 
ATOM     18  N   UNL     1      49.810   7.243  14.258  0.00  0.00    +0.000 N 
ATOM     19  N   UNL     1      50.550   8.004  12.194  0.00  0.00    +0.000 NA
ATOM     20  C   UNL     1      50.564   8.968  11.250  0.00  0.00    +0.000 A 
ATOM     21  H   UNL     1      50.129   6.396  13.802  0.00  0.00    +0.000 HD
ENDBRANCH  13  18
ENDBRANCH   1  13
TORSDOF 2
ENDMDL
MODEL 9
REMARK VINA RESULT:    -5.743      3.349      7.824
REMARK INTER + INTRA:          -6.663
REMARK INTER:                  -6.402
REMARK INTRA:                  -0.261
REMARK UNBOUND:                -0.248
REMARK  Name = 
REMARK  2 active torsions:
REMARK  status: ('A' for Active; 'I' for Inactive)
REMARK    1  A    between atoms: N_5  and  C_6
REMARK    2  A    between atoms: C_6  and  C_7
REMARK                            x       y       z     vdW  Elec       q    Type
REMARK                         _______ _______ _______ _____ _____    ______ ____
ROOT
ATOM      1  C   UNL     1      47.682   6.663  14.053  0.00  0.00    +0.000 A 
ATOM      2  C   UNL     1      47.971   5.750  15.050  0.00  0.00    +0.000 A 
ATOM      3  N   UNL     1      47.421   4.527  15.078  0.00  0.00    +0.000 NA
ATOM      4  N   UNL     1      46.547   4.156  14.078  0.00  0.00    +0.000 NA
ATOM      5  C   UNL     1      46.222   4.989  13.064  0.00  0.00    +0.000 A 
ATOM      6  N   UNL     1      45.356   4.570  12.079  0.00  0.00    +0.000 N 
ATOM      7  C   UNL     1      44.487   5.472  11.319  0.00  0.00    +0.000 C 
ATOM      8  C   UNL     1      43.012   5.067  11.489  0.00  0.00    +0.000 C 
ATOM      9  O   UNL     1      42.798   3.684  11.172  0.00  0.00    +0.000 OA
ATOM     10  C   UNL     1      43.575   2.853  12.051  0.00  0.00    +0.000 C 
ATOM     11  C   UNL     1      45.078   3.137  11.907  0.00  0.00    +0.000 C 
ATOM     12  C   UNL     1      46.806   6.253  13.040  0.00  0.00    +0.000 A 
ENDROOT
BRANCH   1  13
ATOM     13  C   UNL     1      48.282   8.039  14.069  0.00  0.00    +0.000 C 
BRANCH  13  18
ATOM     14  C   UNL     1      49.955  10.392  17.996  0.00  0.00    +0.000 A 
ATOM     15  C   UNL     1      50.448  10.138  16.744  0.00  0.00    +0.000 A 
ATOM     16  N   UNL     1      49.698   9.641  15.742  0.00  0.00    +0.000 NA
ATOM     17  C   UNL     1      48.405   9.395  16.004  0.00  0.00    +0.000 A 
ATOM     18  N   UNL     1      47.581   8.887  15.005  0.00  0.00    +0.000 N 
ATOM     19  N   UNL     1      47.837   9.598  17.200  0.00  0.00    +0.000 NA
ATOM     20  C   UNL     1      48.627  10.101  18.171  0.00  0.00    +0.000 A 
ATOM     21  H   UNL     1      46.782   8.476  15.475  0.00  0.00    +0.000 HD
ENDBRANCH  13  18
ENDBRANCH   1  13
TORSDOF 2
ENDMDL
