MODEL 1
REMARK VINA RESULT:    -8.485      0.000      0.000
REMARK INTER + INTRA:         -13.071
REMARK INTER:                 -11.958
REMARK INTRA:                  -1.113
REMARK UNBOUND:                -1.113
REMARK  Name = 
REMARK  8 active torsions:
REMARK  status: ('A' for Active; 'I' for Inactive)
REMARK    1  A    between atoms: C_1  and  C_2
REMARK    2  A    between atoms: C_2  and  C_3
REMARK    3  A    between atoms: C_3  and  C_5
REMARK    4  A    between atoms: C_8  and  C_9
REMARK    5  A    between atoms: C_9  and  C_10
REMARK    6  A    between atoms: C_13  and  C_14
REMARK    7  A    between atoms: C_14  and  N_15
REMARK    8  A    between atoms: C_16  and  C_18
REMARK                            x       y       z     vdW  Elec       q    Type
REMARK                         _______ _______ _______ _____ _____    ______ ____
ROOT
ATOM      1  C   UNL     1      44.739   5.685  11.182  0.00  0.00    +0.000 A 
ATOM      2  C   UNL     1      44.447   7.042  11.372  0.00  0.00    +0.000 A 
ATOM      3  C   UNL     1      45.266   7.843  12.174  0.00  0.00    +0.000 A 
ATOM      4  C   UNL     1      46.399   7.304  12.794  0.00  0.00    +0.000 A 
ATOM      5  C   UNL     1      46.654   5.933  12.657  0.00  0.00    +0.000 A 
ATOM      6  C   UNL     1      45.838   5.133  11.853  0.00  0.00    +0.000 A 
ENDROOT
BRANCH   1   7
ATOM      7  C   UNL     1      43.922   4.844  10.228  0.00  0.00    +0.000 C 
BRANCH   7  11
ATOM      8  C   UNL     1      46.183   1.994   8.013  0.00  0.00    +0.000 A 
ATOM      9  C   UNL     1      46.337   3.337   7.690  0.00  0.00    +0.000 A 
ATOM     10  C   UNL     1      45.610   4.282   8.414  0.00  0.00    +0.000 A 
ATOM     11  C   UNL     1      44.754   3.865   9.437  0.00  0.00    +0.000 A 
ATOM     12  C   UNL     1      44.667   2.496   9.677  0.00  0.00    +0.000 A 
ATOM     13  N   UNL     1      45.360   1.555   8.998  0.00  0.00    +0.000 NA
BRANCH   8  14
ATOM     14  C   UNL     1      46.943   0.953   7.259  0.00  0.00    +0.000 C 
ATOM     15  O   UNL     1      46.882  -0.225   7.604  0.00  0.00    +0.000 OA
BRANCH  14  17
ATOM     16  C   UNL     1      47.070   1.189   4.745  0.00  0.00    +0.000 C 
ATOM     17  C   UNL     1      47.767   1.429   6.074  0.00  0.00    +0.000 C 
ENDBRANCH  14  17
ENDBRANCH   8  14
ENDBRANCH   7  11
ENDBRANCH   1   7
BRANCH   4  18
ATOM     18  C   UNL     1      47.317   8.169  13.621  0.00  0.00    +0.000 C 
BRANCH  18  19
ATOM     19  N   UNL     1      47.701   7.493  14.830  0.00  0.00    +0.000 N 
ATOM     20  C   UNL     1      48.957   6.975  15.007  0.00  0.00    +0.000 C 
ATOM     21  O   UNL     1      49.846   7.103  14.169  0.00  0.00    +0.000 OA
ATOM     22  H   UNL     1      46.942   7.159  15.413  0.00  0.00    +0.000 HD
BRANCH  20  23
ATOM     23  C   UNL     1      49.198   6.315  16.298  0.00  0.00    +0.000 A 
ATOM     24  C   UNL     1      50.066   6.888  17.218  0.00  0.00    +0.000 A 
ATOM     25  S   UNL     1      50.141   6.041  18.698  0.00  0.00    +0.000 S 
ATOM     26  C   UNL     1      49.064   4.850  18.138  0.00  0.00    +0.000 A 
ATOM     27  N   UNL     1      48.698   3.806  18.930  0.00  0.00    +0.000 NA
ATOM     28  C   UNL     1      47.903   2.962  18.366  0.00  0.00    +0.000 A 
ATOM     29  N   UNL     1      47.439   3.062  17.080  0.00  0.00    +0.000 N 
ATOM     30  C   UNL     1      47.768   4.106  16.248  0.00  0.00    +0.000 A 
ATOM     31  O   UNL     1      47.324   4.172  15.107  0.00  0.00    +0.000 OA
ATOM     32  C   UNL     1      48.655   5.091  16.839  0.00  0.00    +0.000 A 
ATOM     33  H   UNL     1      46.820   2.365  16.693  0.00  0.00    +0.000 HD
ENDBRANCH  20  23
ENDBRANCH  18  19
ENDBRANCH   4  18
TORSDOF 7
ENDMDL
MODEL 2
REMARK VINA RESULT:    -7.902      1.423      1.595
REMARK INTER + INTRA:         -12.248
REMARK INTER:                 -10.865
REMARK INTRA:                  -1.383
REMARK UNBOUND:                -1.113
REMARK  Name = 
REMARK  8 active torsions:
REMARK  status: ('A' for Active; 'I' for Inactive)
REMARK    1  A    between atoms: C_1  and  C_2
REMARK    2  A    between atoms: C_2  and  C_3
REMARK    3  A    between atoms: C_3  and  C_5
REMARK    4  A    between atoms: C_8  and  C_9
REMARK    5  A    between atoms: C_9  and  C_10
REMARK    6  A    between atoms: C_13  and  C_14
REMARK    7  A    between atoms: C_14  and  N_15
REMARK    8  A    between atoms: C_16  and  C_18
REMARK                            x       y       z     vdW  Elec       q    Type
REMARK                         _______ _______ _______ _____ _____    ______ ____
ROOT
ATOM      1  C   UNL     1      44.562   5.961  11.396  0.00  0.00    +0.000 A 
ATOM      2  C   UNL     1      44.292   7.328  11.247  0.00  0.00    +0.000 A 
ATOM      3  C   UNL     1      45.082   8.286  11.889  0.00  0.00    +0.000 A 
ATOM      4  C   UNL     1      46.166   7.896  12.685  0.00  0.00    +0.000 A 
ATOM      5  C   UNL     1      46.395   6.528  12.886  0.00  0.00    +0.000 A 
ATOM      6  C   UNL     1      45.608   5.571  12.241  0.00  0.00    +0.000 A 
ENDROOT
BRANCH   1   7
ATOM      7  C   UNL     1      43.781   4.929  10.616  0.00  0.00    +0.000 C 
BRANCH   7  11
ATOM      8  C   UNL     1      46.148   2.434   8.103  0.00  0.00    +0.000 A 
ATOM      9  C   UNL     1      46.218   3.808   7.905  0.00  0.00    +0.000 A 
ATOM     10  C   UNL     1      45.456   4.638   8.727  0.00  0.00    +0.000 A 
ATOM     11  C   UNL     1      44.649   4.078   9.721  0.00  0.00    +0.000 A 
ATOM     12  C   UNL     1      44.645   2.690   9.833  0.00  0.00    +0.000 A 
ATOM     13  N   UNL     1      45.375   1.858   9.057  0.00  0.00    +0.000 NA
BRANCH   8  14
ATOM     14  C   UNL     1      46.948   1.513   7.241  0.00  0.00    +0.000 C 
ATOM     15  O   UNL     1      46.953   0.306   7.468  0.00  0.00    +0.000 OA
BRANCH  14  17
ATOM     16  C   UNL     1      47.076   1.913   4.748  0.00  0.00    +0.000 C 
ATOM     17  C   UNL     1      47.728   2.147   6.100  0.00  0.00    +0.000 C 
ENDBRANCH  14  17
ENDBRANCH   8  14
ENDBRANCH   7  11
ENDBRANCH   1   7
BRANCH   4  18
ATOM     18  C   UNL     1      47.055   8.921  13.342  0.00  0.00    +0.000 C 
BRANCH  18  19
ATOM     19  N   UNL     1      47.331   8.556  14.706  0.00  0.00    +0.000 N 
ATOM     20  C   UNL     1      48.456   8.982  15.360  0.00  0.00    +0.000 C 
ATOM     21  O   UNL     1      49.269   9.745  14.844  0.00  0.00    +0.000 OA
ATOM     22  H   UNL     1      46.828   7.751  15.060  0.00  0.00    +0.000 HD
BRANCH  20  23
ATOM     23  C   UNL     1      48.595   8.527  16.750  0.00  0.00    +0.000 A 
ATOM     24  C   UNL     1      48.618   9.453  17.785  0.00  0.00    +0.000 A 
ATOM     25  S   UNL     1      48.679   8.740  19.334  0.00  0.00    +0.000 S 
ATOM     26  C   UNL     1      48.735   7.174  18.674  0.00  0.00    +0.000 A 
ATOM     27  N   UNL     1      48.802   6.076  19.475  0.00  0.00    +0.000 NA
ATOM     28  C   UNL     1      48.872   4.955  18.841  0.00  0.00    +0.000 A 
ATOM     29  N   UNL     1      48.885   4.829  17.475  0.00  0.00    +0.000 N 
ATOM     30  C   UNL     1      48.804   5.906  16.626  0.00  0.00    +0.000 A 
ATOM     31  O   UNL     1      48.804   5.756  15.409  0.00  0.00    +0.000 OA
ATOM     32  C   UNL     1      48.713   7.193  17.291  0.00  0.00    +0.000 A 
ATOM     33  H   UNL     1      48.946   3.922  17.037  0.00  0.00    +0.000 HD
ENDBRANCH  20  23
ENDBRANCH  18  19
ENDBRANCH   4  18
TORSDOF 7
ENDMDL
MODEL 3
REMARK VINA RESULT:    -7.421      1.425      1.823
REMARK INTER + INTRA:         -11.571
REMARK INTER:                 -10.351
REMARK INTRA:                  -1.219
REMARK UNBOUND:                -1.113
REMARK  Name = 
REMARK  8 active torsions:
REMARK  status: ('A' for Active; 'I' for Inactive)
REMARK    1  A    between atoms: C_1  and  C_2
REMARK    2  A    between atoms: C_2  and  C_3
REMARK    3  A    between atoms: C_3  and  C_5
REMARK    4  A    between atoms: C_8  and  C_9
REMARK    5  A    between atoms: C_9  and  C_10
REMARK    6  A    between atoms: C_13  and  C_14
REMARK    7  A    between atoms: C_14  and  N_15
REMARK    8  A    between atoms: C_16  and  C_18
REMARK                            x       y       z     vdW  Elec       q    Type
REMARK                         _______ _______ _______ _____ _____    ______ ____
ROOT
ATOM      1  C   UNL     1      45.081   5.322  11.281  0.00  0.00    +0.000 A 
ATOM      2  C   UNL     1      45.851   4.877  12.364  0.00  0.00    +0.000 A 
ATOM      3  C   UNL     1      46.485   5.791  13.211  0.00  0.00    +0.000 A 
ATOM      4  C   UNL     1      46.352   7.168  12.999  0.00  0.00    +0.000 A 
ATOM      5  C   UNL     1      45.637   7.610  11.878  0.00  0.00    +0.000 A 
ATOM      6  C   UNL     1      45.000   6.698  11.033  0.00  0.00    +0.000 A 
ENDROOT
BRANCH   1   7
ATOM      7  C   UNL     1      44.305   4.343  10.431  0.00  0.00    +0.000 C 
BRANCH   7  11
ATOM      8  C   UNL     1      46.537   2.575   7.263  0.00  0.00    +0.000 A 
ATOM      9  C   UNL     1      46.519   3.962   7.349  0.00  0.00    +0.000 A 
ATOM     10  C   UNL     1      45.800   4.555   8.387  0.00  0.00    +0.000 A 
ATOM     11  C   UNL     1      45.123   3.752   9.308  0.00  0.00    +0.000 A 
ATOM     12  C   UNL     1      45.200   2.373   9.130  0.00  0.00    +0.000 A 
ATOM     13  N   UNL     1      45.891   1.767   8.139  0.00  0.00    +0.000 NA
BRANCH   8  14
ATOM     14  C   UNL     1      47.295   1.905   6.164  0.00  0.00    +0.000 C 
ATOM     15  O   UNL     1      48.323   1.282   6.416  0.00  0.00    +0.000 OA
BRANCH  14  17
ATOM     16  C   UNL     1      46.883   0.766   3.945  0.00  0.00    +0.000 C 
ATOM     17  C   UNL     1      46.727   2.039   4.760  0.00  0.00    +0.000 C 
ENDBRANCH  14  17
ENDBRANCH   8  14
ENDBRANCH   7  11
ENDBRANCH   1   7
BRANCH   4  18
ATOM     18  C   UNL     1      46.991   8.163  13.935  0.00  0.00    +0.000 C 
BRANCH  18  19
ATOM     19  N   UNL     1      48.132   7.584  14.591  0.00  0.00    +0.000 N 
ATOM     20  C   UNL     1      48.660   8.116  15.738  0.00  0.00    +0.000 C 
ATOM     21  O   UNL     1      48.161   9.083  16.305  0.00  0.00    +0.000 OA
ATOM     22  H   UNL     1      48.699   6.961  14.028  0.00  0.00    +0.000 HD
BRANCH  20  23
ATOM     23  C   UNL     1      49.824   7.409  16.290  0.00  0.00    +0.000 A 
ATOM     24  C   UNL     1      51.043   8.063  16.405  0.00  0.00    +0.000 A 
ATOM     25  S   UNL     1      52.250   7.124  17.163  0.00  0.00    +0.000 S 
ATOM     26  C   UNL     1      51.202   5.792  17.309  0.00  0.00    +0.000 A 
ATOM     27  N   UNL     1      51.619   4.630  17.881  0.00  0.00    +0.000 NA
ATOM     28  C   UNL     1      50.732   3.694  17.896  0.00  0.00    +0.000 A 
ATOM     29  N   UNL     1      49.463   3.810  17.388  0.00  0.00    +0.000 N 
ATOM     30  C   UNL     1      48.992   4.968  16.816  0.00  0.00    +0.000 A 
ATOM     31  O   UNL     1      47.847   5.042  16.385  0.00  0.00    +0.000 OA
ATOM     32  C   UNL     1      49.950   6.057  16.784  0.00  0.00    +0.000 A 
ATOM     33  H   UNL     1      48.814   3.038  17.426  0.00  0.00    +0.000 HD
ENDBRANCH  20  23
ENDBRANCH  18  19
ENDBRANCH   4  18
TORSDOF 7
ENDMDL
MODEL 4
REMARK VINA RESULT:    -7.183      2.573      4.061
REMARK INTER + INTRA:         -11.236
REMARK INTER:                 -10.098
REMARK INTRA:                  -1.137
REMARK UNBOUND:                -1.113
REMARK  Name = 
REMARK  8 active torsions:
REMARK  status: ('A' for Active; 'I' for Inactive)
REMARK    1  A    between atoms: C_1  and  C_2
REMARK    2  A    between atoms: C_2  and  C_3
REMARK    3  A    between atoms: C_3  and  C_5
REMARK    4  A    between atoms: C_8  and  C_9
REMARK    5  A    between atoms: C_9  and  C_10
REMARK    6  A    between atoms: C_13  and  C_14
REMARK    7  A    between atoms: C_14  and  N_15
REMARK    8  A    between atoms: C_16  and  C_18
REMARK                            x       y       z     vdW  Elec       q    Type
REMARK                         _______ _______ _______ _____ _____    ______ ____
ROOT
ATOM      1  C   UNL     1      45.227   4.153  11.550  0.00  0.00    +0.000 A 
ATOM      2  C   UNL     1      45.697   3.195  12.458  0.00  0.00    +0.000 A 
ATOM      3  C   UNL     1      46.397   3.582  13.605  0.00  0.00    +0.000 A 
ATOM      4  C   UNL     1      46.631   4.936  13.872  0.00  0.00    +0.000 A 
ATOM      5  C   UNL     1      46.219   5.889  12.931  0.00  0.00    +0.000 A 
ATOM      6  C   UNL     1      45.516   5.503  11.787  0.00  0.00    +0.000 A 
ENDROOT
BRANCH   1   7
ATOM      7  C   UNL     1      44.376   3.747  10.369  0.00  0.00    +0.000 C 
BRANCH   7  11
ATOM      8  C   UNL     1      46.599   2.468   6.969  0.00  0.00    +0.000 A 
ATOM      9  C   UNL     1      46.464   3.835   7.179  0.00  0.00    +0.000 A 
ATOM     10  C   UNL     1      45.746   4.269   8.294  0.00  0.00    +0.000 A 
ATOM     11  C   UNL     1      45.188   3.331   9.167  0.00  0.00    +0.000 A 
ATOM     12  C   UNL     1      45.376   1.985   8.863  0.00  0.00    +0.000 A 
ATOM     13  N   UNL     1      46.069   1.532   7.795  0.00  0.00    +0.000 NA
BRANCH   8  14
ATOM     14  C   UNL     1      47.359   1.965   5.785  0.00  0.00    +0.000 C 
ATOM     15  O   UNL     1      48.496   1.524   5.925  0.00  0.00    +0.000 OA
BRANCH  14  17
ATOM     16  C   UNL     1      46.666   0.702   3.708  0.00  0.00    +0.000 C 
ATOM     17  C   UNL     1      46.654   2.033   4.440  0.00  0.00    +0.000 C 
ENDBRANCH  14  17
ENDBRANCH   8  14
ENDBRANCH   7  11
ENDBRANCH   1   7
BRANCH   4  18
ATOM     18  C   UNL     1      47.341   5.367  15.131  0.00  0.00    +0.000 C 
BRANCH  18  19
ATOM     19  N   UNL     1      48.028   6.614  14.926  0.00  0.00    +0.000 N 
ATOM     20  C   UNL     1      49.287   6.841  15.415  0.00  0.00    +0.000 C 
ATOM     21  O   UNL     1      49.927   5.979  16.009  0.00  0.00    +0.000 OA
ATOM     22  H   UNL     1      47.446   7.404  14.671  0.00  0.00    +0.000 HD
BRANCH  20  23
ATOM     23  C   UNL     1      49.855   8.164  15.120  0.00  0.00    +0.000 A 
ATOM     24  C   UNL     1      50.941   8.277  14.263  0.00  0.00    +0.000 A 
ATOM     25  S   UNL     1      51.398   9.892  13.955  0.00  0.00    +0.000 S 
ATOM     26  C   UNL     1      50.201  10.491  15.003  0.00  0.00    +0.000 A 
ATOM     27  N   UNL     1      50.048  11.829  15.204  0.00  0.00    +0.000 NA
ATOM     28  C   UNL     1      49.124  12.140  16.048  0.00  0.00    +0.000 A 
ATOM     29  N   UNL     1      48.337  11.236  16.715  0.00  0.00    +0.000 N 
ATOM     30  C   UNL     1      48.443   9.878  16.533  0.00  0.00    +0.000 A 
ATOM     31  O   UNL     1      47.713   9.099  17.135  0.00  0.00    +0.000 OA
ATOM     32  C   UNL     1      49.464   9.475  15.583  0.00  0.00    +0.000 A 
ATOM     33  H   UNL     1      47.631  11.543  17.368  0.00  0.00    +0.000 HD
ENDBRANCH  20  23
ENDBRANCH  18  19
ENDBRANCH   4  18
TORSDOF 7
ENDMDL
MODEL 5
REMARK VINA RESULT:    -7.111      2.299      2.974
REMARK INTER + INTRA:         -11.134
REMARK INTER:                 -10.019
REMARK INTRA:                  -1.115
REMARK UNBOUND:                -1.113
REMARK  Name = 
REMARK  8 active torsions:
REMARK  status: ('A' for Active; 'I' for Inactive)
REMARK    1  A    between atoms: C_1  and  C_2
REMARK    2  A    between atoms: C_2  and  C_3
REMARK    3  A    between atoms: C_3  and  C_5
REMARK    4  A    between atoms: C_8  and  C_9
REMARK    5  A    between atoms: C_9  and  C_10
REMARK    6  A    between atoms: C_13  and  C_14
REMARK    7  A    between atoms: C_14  and  N_15
REMARK    8  A    between atoms: C_16  and  C_18
REMARK                            x       y       z     vdW  Elec       q    Type
REMARK                         _______ _______ _______ _____ _____    ______ ____
ROOT
ATOM      1  C   UNL     1      44.765   5.644  11.331  0.00  0.00    +0.000 A 
ATOM      2  C   UNL     1      45.796   5.282  12.209  0.00  0.00    +0.000 A 
ATOM      3  C   UNL     1      46.458   6.250  12.970  0.00  0.00    +0.000 A 
ATOM      4  C   UNL     1      46.095   7.599  12.875  0.00  0.00    +0.000 A 
ATOM      5  C   UNL     1      45.111   7.969  11.949  0.00  0.00    +0.000 A 
ATOM      6  C   UNL     1      44.446   7.001  11.191  0.00  0.00    +0.000 A 
ENDROOT
BRANCH   1   7
ATOM      7  C   UNL     1      43.973   4.590  10.591  0.00  0.00    +0.000 C 
BRANCH   7  11
ATOM      8  C   UNL     1      46.213   2.360   7.736  0.00  0.00    +0.000 A 
ATOM      9  C   UNL     1      46.218   3.745   7.626  0.00  0.00    +0.000 A 
ATOM     10  C   UNL     1      45.497   4.490   8.560  0.00  0.00    +0.000 A 
ATOM     11  C   UNL     1      44.795   3.835   9.575  0.00  0.00    +0.000 A 
ATOM     12  C   UNL     1      44.849   2.443   9.593  0.00  0.00    +0.000 A 
ATOM     13  N   UNL     1      45.542   1.693   8.707  0.00  0.00    +0.000 NA
BRANCH   8  14
ATOM     14  C   UNL     1      46.971   1.530   6.753  0.00  0.00    +0.000 C 
ATOM     15  O   UNL     1      47.324   0.391   7.051  0.00  0.00    +0.000 OA
BRANCH  14  17
ATOM     16  C   UNL     1      46.971   1.230   4.243  0.00  0.00    +0.000 C 
ATOM     17  C   UNL     1      47.267   2.164   5.404  0.00  0.00    +0.000 C 
ENDBRANCH  14  17
ENDBRANCH   8  14
ENDBRANCH   7  11
ENDBRANCH   1   7
BRANCH   4  18
ATOM     18  C   UNL     1      46.769   8.646  13.727  0.00  0.00    +0.000 C 
BRANCH  18  19
ATOM     19  N   UNL     1      47.725   8.041  14.615  0.00  0.00    +0.000 N 
ATOM     20  C   UNL     1      48.774   8.744  15.145  0.00  0.00    +0.000 C 
ATOM     21  O   UNL     1      48.932   9.944  14.940  0.00  0.00    +0.000 OA
ATOM     22  H   UNL     1      47.766   7.028  14.599  0.00  0.00    +0.000 HD
BRANCH  20  23
ATOM     23  C   UNL     1      49.662   7.987  16.038  0.00  0.00    +0.000 A 
ATOM     24  C   UNL     1      49.195   7.544  17.268  0.00  0.00    +0.000 A 
ATOM     25  S   UNL     1      50.327   6.594  18.122  0.00  0.00    +0.000 S 
ATOM     26  C   UNL     1      51.498   6.792  16.905  0.00  0.00    +0.000 A 
ATOM     27  N   UNL     1      52.729   6.223  17.015  0.00  0.00    +0.000 NA
ATOM     28  C   UNL     1      53.527   6.482  16.035  0.00  0.00    +0.000 A 
ATOM     29  N   UNL     1      53.209   7.262  14.953  0.00  0.00    +0.000 N 
ATOM     30  C   UNL     1      51.975   7.844  14.790  0.00  0.00    +0.000 A 
ATOM     31  O   UNL     1      51.720   8.525  13.803  0.00  0.00    +0.000 OA
ATOM     32  C   UNL     1      51.035   7.575  15.863  0.00  0.00    +0.000 A 
ATOM     33  H   UNL     1      53.880   7.432  14.219  0.00  0.00    +0.000 HD
ENDBRANCH  20  23
ENDBRANCH  18  19
ENDBRANCH   4  18
TORSDOF 7
ENDMDL
MODEL 6
REMARK VINA RESULT:    -6.786      4.632     10.955
REMARK INTER + INTRA:         -10.676
REMARK INTER:                  -9.788
REMARK INTRA:                  -0.888
REMARK UNBOUND:                -1.113
REMARK  Name = 
REMARK  8 active torsions:
REMARK  status: ('A' for Active; 'I' for Inactive)
REMARK    1  A    between atoms: C_1  and  C_2
REMARK    2  A    between atoms: C_2  and  C_3
REMARK    3  A    between atoms: C_3  and  C_5
REMARK    4  A    between atoms: C_8  and  C_9
REMARK    5  A    between atoms: C_9  and  C_10
REMARK    6  A    between atoms: C_13  and  C_14
REMARK    7  A    between atoms: C_14  and  N_15
REMARK    8  A    between atoms: C_16  and  C_18
REMARK                            x       y       z     vdW  Elec       q    Type
REMARK                         _______ _______ _______ _____ _____    ______ ____
ROOT
ATOM      1  C   UNL     1      48.485   5.577  20.101  0.00  0.00    +0.000 A 
ATOM      2  C   UNL     1      49.323   4.583  19.578  0.00  0.00    +0.000 A 
ATOM      3  C   UNL     1      48.987   3.915  18.397  0.00  0.00    +0.000 A 
ATOM      4  C   UNL     1      47.810   4.235  17.710  0.00  0.00    +0.000 A 
ATOM      5  C   UNL     1      46.940   5.182  18.268  0.00  0.00    +0.000 A 
ATOM      6  C   UNL     1      47.278   5.853  19.446  0.00  0.00    +0.000 A 
ENDROOT
BRANCH   1   7
ATOM      7  C   UNL     1      48.899   6.378  21.314  0.00  0.00    +0.000 C 
BRANCH   7  11
ATOM      8  C   UNL     1      47.045  10.212  21.403  0.00  0.00    +0.000 A 
ATOM      9  C   UNL     1      46.578   9.245  22.285  0.00  0.00    +0.000 A 
ATOM     10  C   UNL     1      47.182   7.988  22.274  0.00  0.00    +0.000 A 
ATOM     11  C   UNL     1      48.232   7.731  21.389  0.00  0.00    +0.000 A 
ATOM     12  C   UNL     1      48.621   8.766  20.542  0.00  0.00    +0.000 A 
ATOM     13  N   UNL     1      48.061   9.996  20.530  0.00  0.00    +0.000 NA
BRANCH   8  14
ATOM     14  C   UNL     1      46.422  11.569  21.384  0.00  0.00    +0.000 C 
ATOM     15  O   UNL     1      46.786  12.426  22.186  0.00  0.00    +0.000 OA
BRANCH  14  17
ATOM     16  C   UNL     1      43.954  11.464  20.847  0.00  0.00    +0.000 C 
ATOM     17  C   UNL     1      45.343  11.813  20.341  0.00  0.00    +0.000 C 
ENDBRANCH  14  17
ENDBRANCH   8  14
ENDBRANCH   7  11
ENDBRANCH   1   7
BRANCH   4  18
ATOM     18  C   UNL     1      47.461   3.555  16.409  0.00  0.00    +0.000 C 
BRANCH  18  19
ATOM     19  N   UNL     1      46.806   4.472  15.516  0.00  0.00    +0.000 N 
ATOM     20  C   UNL     1      46.855   4.323  14.155  0.00  0.00    +0.000 C 
ATOM     21  O   UNL     1      47.413   3.370  13.617  0.00  0.00    +0.000 OA
ATOM     22  H   UNL     1      46.563   5.375  15.906  0.00  0.00    +0.000 HD
BRANCH  20  23
ATOM     23  C   UNL     1      46.133   5.338  13.377  0.00  0.00    +0.000 A 
ATOM     24  C   UNL     1      46.716   6.575  13.139  0.00  0.00    +0.000 A 
ATOM     25  S   UNL     1      45.780   7.586  12.132  0.00  0.00    +0.000 S 
ATOM     26  C   UNL     1      44.538   6.430  12.029  0.00  0.00    +0.000 A 
ATOM     27  N   UNL     1      43.412   6.671  11.303  0.00  0.00    +0.000 NA
ATOM     28  C   UNL     1      42.540   5.721  11.339  0.00  0.00    +0.000 A 
ATOM     29  N   UNL     1      42.687   4.550  12.037  0.00  0.00    +0.000 N 
ATOM     30  C   UNL     1      43.811   4.255  12.771  0.00  0.00    +0.000 A 
ATOM     31  O   UNL     1      43.915   3.192  13.372  0.00  0.00    +0.000 OA
ATOM     32  C   UNL     1      44.830   5.289  12.755  0.00  0.00    +0.000 A 
ATOM     33  H   UNL     1      41.965   3.845  12.029  0.00  0.00    +0.000 HD
ENDBRANCH  20  23
ENDBRANCH  18  19
ENDBRANCH   4  18
TORSDOF 7
ENDMDL
MODEL 7
REMARK VINA RESULT:    -6.718      1.938      2.494
REMARK INTER + INTRA:         -10.579
REMARK INTER:                  -9.402
REMARK INTRA:                  -1.177
REMARK UNBOUND:                -1.113
REMARK  Name = 
REMARK  8 active torsions:
REMARK  status: ('A' for Active; 'I' for Inactive)
REMARK    1  A    between atoms: C_1  and  C_2
REMARK    2  A    between atoms: C_2  and  C_3
REMARK    3  A    between atoms: C_3  and  C_5
REMARK    4  A    between atoms: C_8  and  C_9
REMARK    5  A    between atoms: C_9  and  C_10
REMARK    6  A    between atoms: C_13  and  C_14
REMARK    7  A    between atoms: C_14  and  N_15
REMARK    8  A    between atoms: C_16  and  C_18
REMARK                            x       y       z     vdW  Elec       q    Type
REMARK                         _______ _______ _______ _____ _____    ______ ____
ROOT
ATOM      1  C   UNL     1      45.565   6.544  12.337  0.00  0.00    +0.000 A 
ATOM      2  C   UNL     1      46.561   5.772  12.949  0.00  0.00    +0.000 A 
ATOM      3  C   UNL     1      47.530   6.370  13.761  0.00  0.00    +0.000 A 
ATOM      4  C   UNL     1      47.515   7.751  13.986  0.00  0.00    +0.000 A 
ATOM      5  C   UNL     1      46.559   8.531  13.321  0.00  0.00    +0.000 A 
ATOM      6  C   UNL     1      45.588   7.934  12.513  0.00  0.00    +0.000 A 
ENDROOT
BRANCH   1   7
ATOM      7  C   UNL     1      44.453   5.889  11.551  0.00  0.00    +0.000 C 
BRANCH   7  11
ATOM      8  C   UNL     1      45.769   2.962   8.751  0.00  0.00    +0.000 A 
ATOM      9  C   UNL     1      45.973   4.300   8.435  0.00  0.00    +0.000 A 
ATOM     10  C   UNL     1      45.556   5.269   9.347  0.00  0.00    +0.000 A 
ATOM     11  C   UNL     1      44.951   4.880  10.545  0.00  0.00    +0.000 A 
ATOM     12  C   UNL     1      44.788   3.515  10.763  0.00  0.00    +0.000 A 
ATOM     13  N   UNL     1      45.185   2.550   9.903  0.00  0.00    +0.000 NA
BRANCH   8  14
ATOM     14  C   UNL     1      46.201   1.895   7.798  0.00  0.00    +0.000 C 
ATOM     15  O   UNL     1      46.152   0.714   8.133  0.00  0.00    +0.000 OA
BRANCH  14  17
ATOM     16  C   UNL     1      47.595   1.333   5.766  0.00  0.00    +0.000 C 
ATOM     17  C   UNL     1      46.687   2.352   6.433  0.00  0.00    +0.000 C 
ENDBRANCH  14  17
ENDBRANCH   8  14
ENDBRANCH   7  11
ENDBRANCH   1   7
BRANCH   4  18
ATOM     18  C   UNL     1      48.525   8.400  14.899  0.00  0.00    +0.000 C 
BRANCH  18  19
ATOM     19  N   UNL     1      48.337   7.964  16.256  0.00  0.00    +0.000 N 
ATOM     20  C   UNL     1      48.995   8.548  17.306  0.00  0.00    +0.000 C 
ATOM     21  O   UNL     1      49.740   9.513  17.161  0.00  0.00    +0.000 OA
ATOM     22  H   UNL     1      47.940   7.039  16.374  0.00  0.00    +0.000 HD
BRANCH  20  23
ATOM     23  C   UNL     1      48.695   7.993  18.633  0.00  0.00    +0.000 A 
ATOM     24  C   UNL     1      48.135   8.801  19.613  0.00  0.00    +0.000 A 
ATOM     25  S   UNL     1      47.759   7.963  21.052  0.00  0.00    +0.000 S 
ATOM     26  C   UNL     1      48.387   6.507  20.436  0.00  0.00    +0.000 A 
ATOM     27  N   UNL     1      48.377   5.368  21.179  0.00  0.00    +0.000 NA
ATOM     28  C   UNL     1      48.913   4.348  20.601  0.00  0.00    +0.000 A 
ATOM     29  N   UNL     1      49.462   4.361  19.344  0.00  0.00    +0.000 N 
ATOM     30  C   UNL     1      49.481   5.482  18.550  0.00  0.00    +0.000 A 
ATOM     31  O   UNL     1      49.968   5.455  17.425  0.00  0.00    +0.000 OA
ATOM     32  C   UNL     1      48.879   6.658  19.152  0.00  0.00    +0.000 A 
ATOM     33  H   UNL     1      49.872   3.528  18.946  0.00  0.00    +0.000 HD
ENDBRANCH  20  23
ENDBRANCH  18  19
ENDBRANCH   4  18
TORSDOF 7
ENDMDL
MODEL 8
REMARK VINA RESULT:    -6.636      6.008      7.952
REMARK INTER + INTRA:         -10.464
REMARK INTER:                  -9.288
REMARK INTRA:                  -1.176
REMARK UNBOUND:                -1.113
REMARK  Name = 
REMARK  8 active torsions:
REMARK  status: ('A' for Active; 'I' for Inactive)
REMARK    1  A    between atoms: C_1  and  C_2
REMARK    2  A    between atoms: C_2  and  C_3
REMARK    3  A    between atoms: C_3  and  C_5
REMARK    4  A    between atoms: C_8  and  C_9
REMARK    5  A    between atoms: C_9  and  C_10
REMARK    6  A    between atoms: C_13  and  C_14
REMARK    7  A    between atoms: C_14  and  N_15
REMARK    8  A    between atoms: C_16  and  C_18
REMARK                            x       y       z     vdW  Elec       q    Type
REMARK                         _______ _______ _______ _____ _____    ______ ____
ROOT
ATOM      1  C   UNL     1      48.137   8.118  12.520  0.00  0.00    +0.000 A 
ATOM      2  C   UNL     1      49.125   7.207  12.122  0.00  0.00    +0.000 A 
ATOM      3  C   UNL     1      50.329   7.654  11.570  0.00  0.00    +0.000 A 
ATOM      4  C   UNL     1      50.574   9.024  11.416  0.00  0.00    +0.000 A 
ATOM      5  C   UNL     1      49.561   9.932  11.752  0.00  0.00    +0.000 A 
ATOM      6  C   UNL     1      48.359   9.485  12.307  0.00  0.00    +0.000 A 
ENDROOT
BRANCH   1   7
ATOM      7  C   UNL     1      46.883   7.644  13.217  0.00  0.00    +0.000 C 
BRANCH   7  11
ATOM      8  C   UNL     1      44.955   4.347  11.333  0.00  0.00    +0.000 A 
ATOM      9  C   UNL     1      44.951   5.567  10.668  0.00  0.00    +0.000 A 
ATOM     10  C   UNL     1      45.587   6.654  11.269  0.00  0.00    +0.000 A 
ATOM     11  C   UNL     1      46.209   6.494  12.510  0.00  0.00    +0.000 A 
ATOM     12  C   UNL     1      46.150   5.232  13.095  0.00  0.00    +0.000 A 
ATOM     13  N   UNL     1      45.547   4.158  12.539  0.00  0.00    +0.000 NA
BRANCH   8  14
ATOM     14  C   UNL     1      44.282   3.162  10.723  0.00  0.00    +0.000 C 
ATOM     15  O   UNL     1      43.177   2.806  11.124  0.00  0.00    +0.000 OA
BRANCH  14  17
ATOM     16  C   UNL     1      44.833   3.115   8.256  0.00  0.00    +0.000 C 
ATOM     17  C   UNL     1      45.029   2.449   9.607  0.00  0.00    +0.000 C 
ENDBRANCH  14  17
ENDBRANCH   8  14
ENDBRANCH   7  11
ENDBRANCH   1   7
BRANCH   4  18
ATOM     18  C   UNL     1      51.889   9.520  10.868  0.00  0.00    +0.000 C 
BRANCH  18  19
ATOM     19  N   UNL     1      52.202   8.865   9.627  0.00  0.00    +0.000 N 
ATOM     20  C   UNL     1      53.409   9.030   9.001  0.00  0.00    +0.000 C 
ATOM     21  O   UNL     1      54.315   9.702   9.486  0.00  0.00    +0.000 OA
ATOM     22  H   UNL     1      51.411   8.522   9.094  0.00  0.00    +0.000 HD
BRANCH  20  23
ATOM     23  C   UNL     1      53.580   8.292   7.742  0.00  0.00    +0.000 A 
ATOM     24  C   UNL     1      53.689   8.982   6.542  0.00  0.00    +0.000 A 
ATOM     25  S   UNL     1      53.987   7.970   5.200  0.00  0.00    +0.000 S 
ATOM     26  C   UNL     1      53.921   6.573   6.168  0.00  0.00    +0.000 A 
ATOM     27  N   UNL     1      54.096   5.336   5.627  0.00  0.00    +0.000 NA
ATOM     28  C   UNL     1      53.988   4.365   6.470  0.00  0.00    +0.000 A 
ATOM     29  N   UNL     1      53.718   4.516   7.806  0.00  0.00    +0.000 N 
ATOM     30  C   UNL     1      53.549   5.744   8.399  0.00  0.00    +0.000 A 
ATOM     31  O   UNL     1      53.323   5.842   9.600  0.00  0.00    +0.000 OA
ATOM     32  C   UNL     1      53.671   6.872   7.494  0.00  0.00    +0.000 A 
ATOM     33  H   UNL     1      53.641   3.714   8.415  0.00  0.00    +0.000 HD
ENDBRANCH  20  23
ENDBRANCH  18  19
ENDBRANCH   4  18
TORSDOF 7
ENDMDL
MODEL 9
REMARK VINA RESULT:    -6.342      6.132      8.249
REMARK INTER + INTRA:         -10.050
REMARK INTER:                  -8.751
REMARK INTRA:                  -1.299
REMARK UNBOUND:                -1.113
REMARK  Name = 
REMARK  8 active torsions:
REMARK  status: ('A' for Active; 'I' for Inactive)
REMARK    1  A    between atoms: C_1  and  C_2
REMARK    2  A    between atoms: C_2  and  C_3
REMARK    3  A    between atoms: C_3  and  C_5
REMARK    4  A    between atoms: C_8  and  C_9
REMARK    5  A    between atoms: C_9  and  C_10
REMARK    6  A    between atoms: C_13  and  C_14
REMARK    7  A    between atoms: C_14  and  N_15
REMARK    8  A    between atoms: C_16  and  C_18
REMARK                            x       y       z     vdW  Elec       q    Type
REMARK                         _______ _______ _______ _____ _____    ______ ____
ROOT
ATOM      1  C   UNL     1      48.029   8.060  12.564  0.00  0.00    +0.000 A 
ATOM      2  C   UNL     1      49.067   7.160  12.284  0.00  0.00    +0.000 A 
ATOM      3  C   UNL     1      50.274   7.610  11.741  0.00  0.00    +0.000 A 
ATOM      4  C   UNL     1      50.472   8.970  11.477  0.00  0.00    +0.000 A 
ATOM      5  C   UNL     1      49.411   9.860  11.695  0.00  0.00    +0.000 A 
ATOM      6  C   UNL     1      48.206   9.412  12.241  0.00  0.00    +0.000 A 
ENDROOT
BRANCH   1   7
ATOM      7  C   UNL     1      46.767   7.595  13.253  0.00  0.00    +0.000 C 
BRANCH   7  11
ATOM      8  C   UNL     1      44.754   4.401  11.281  0.00  0.00    +0.000 A 
ATOM      9  C   UNL     1      44.789   5.636  10.646  0.00  0.00    +0.000 A 
ATOM     10  C   UNL     1      45.453   6.689  11.275  0.00  0.00    +0.000 A 
ATOM     11  C   UNL     1      46.063   6.482  12.515  0.00  0.00    +0.000 A 
ATOM     12  C   UNL     1      45.966   5.208  13.069  0.00  0.00    +0.000 A 
ATOM     13  N   UNL     1      45.335   4.166  12.484  0.00  0.00    +0.000 NA
BRANCH   8  14
ATOM     14  C   UNL     1      44.050   3.250  10.639  0.00  0.00    +0.000 C 
ATOM     15  O   UNL     1      43.273   2.561  11.295  0.00  0.00    +0.000 OA
BRANCH  14  17
ATOM     16  C   UNL     1      45.239   1.785   8.957  0.00  0.00    +0.000 C 
ATOM     17  C   UNL     1      44.349   2.998   9.171  0.00  0.00    +0.000 C 
ENDBRANCH  14  17
ENDBRANCH   8  14
ENDBRANCH   7  11
ENDBRANCH   1   7
BRANCH   4  18
ATOM     18  C   UNL     1      51.788   9.473  10.937  0.00  0.00    +0.000 C 
BRANCH  18  19
ATOM     19  N   UNL     1      52.210   8.684   9.812  0.00  0.00    +0.000 N 
ATOM     20  C   UNL     1      53.313   7.873   9.863  0.00  0.00    +0.000 C 
ATOM     21  O   UNL     1      53.974   7.727  10.888  0.00  0.00    +0.000 OA
ATOM     22  H   UNL     1      51.848   8.969   8.909  0.00  0.00    +0.000 HD
BRANCH  20  23
ATOM     23  C   UNL     1      53.614   7.128   8.633  0.00  0.00    +0.000 A 
ATOM     24  C   UNL     1      53.761   5.749   8.676  0.00  0.00    +0.000 A 
ATOM     25  S   UNL     1      54.003   5.043   7.140  0.00  0.00    +0.000 S 
ATOM     26  C   UNL     1      53.978   6.562   6.375  0.00  0.00    +0.000 A 
ATOM     27  N   UNL     1      54.136   6.673   5.028  0.00  0.00    +0.000 NA
ATOM     28  C   UNL     1      54.129   7.885   4.587  0.00  0.00    +0.000 A 
ATOM     29  N   UNL     1      53.980   9.001   5.370  0.00  0.00    +0.000 N 
ATOM     30  C   UNL     1      53.801   8.939   6.732  0.00  0.00    +0.000 A 
ATOM     31  O   UNL     1      53.657   9.956   7.400  0.00  0.00    +0.000 OA
ATOM     32  C   UNL     1      53.792   7.594   7.278  0.00  0.00    +0.000 A 
ATOM     33  H   UNL     1      53.987   9.925   4.966  0.00  0.00    +0.000 HD
ENDBRANCH  20  23
ENDBRANCH  18  19
ENDBRANCH   4  18
TORSDOF 7
ENDMDL
