MODEL 1
REMARK VINA RESULT:    -7.491      0.000      0.000
REMARK INTER + INTRA:         -10.723
REMARK INTER:                  -9.899
REMARK INTRA:                  -0.824
REMARK UNBOUND:                -0.824
REMARK  Name = 
REMARK  6 active torsions:
REMARK  status: ('A' for Active; 'I' for Inactive)
REMARK    1  A    between atoms: C_2  and  C_19
REMARK    2  A    between atoms: N_3  and  C_4
REMARK    3  A    between atoms: C_4  and  C_5
REMARK    4  A    between atoms: C_8  and  C_9
REMARK    5  A    between atoms: C_9  and  N_10
REMARK    6  A    between atoms: C_13  and  O_14
REMARK                            x       y       z     vdW  Elec       q    Type
REMARK                         _______ _______ _______ _____ _____    ______ ____
ROOT
ATOM      1  N   UNL     1      48.102   7.707  12.755  0.00  0.00    +0.000 NA
ATOM      2  C   UNL     1      47.417   7.080  13.647  0.00  0.00    +0.000 C 
ATOM      3  N   UNL     1      46.092   6.771  13.587  0.00  0.00    +0.000 N 
ATOM      4  H   UNL     1      47.507   7.980  11.976  0.00  0.00    +0.000 HD
ATOM      5  H   UNL     1      45.613   6.630  14.478  0.00  0.00    +0.000 HD
ENDROOT
BRANCH   2   6
ATOM      6  C   UNL     1      48.148   6.619  14.829  0.00  0.00    +0.000 A 
ATOM      7  C   UNL     1      49.118   7.425  15.414  0.00  0.00    +0.000 A 
ATOM      8  S   UNL     1      49.830   6.747  16.806  0.00  0.00    +0.000 S 
ATOM      9  C   UNL     1      48.846   5.364  16.697  0.00  0.00    +0.000 A 
ATOM     10  N   UNL     1      48.912   4.386  17.639  0.00  0.00    +0.000 NA
ATOM     11  C   UNL     1      48.082   3.411  17.453  0.00  0.00    +0.000 A 
ATOM     12  N   UNL     1      47.209   3.319  16.401  0.00  0.00    +0.000 N 
ATOM     13  C   UNL     1      47.137   4.264  15.404  0.00  0.00    +0.000 A 
ATOM     14  O   UNL     1      46.393   4.118  14.438  0.00  0.00    +0.000 OA
ATOM     15  C   UNL     1      48.017   5.400  15.589  0.00  0.00    +0.000 A 
ATOM     16  H   UNL     1      46.605   2.518  16.300  0.00  0.00    +0.000 HD
ENDBRANCH   2   6
BRANCH   3  17
ATOM     17  C   UNL     1      45.214   7.242  12.543  0.00  0.00    +0.000 C 
BRANCH  17  18
ATOM     18  C   UNL     1      45.036   6.210  11.461  0.00  0.00    +0.000 A 
ATOM     19  C   UNL     1      45.927   6.157  10.378  0.00  0.00    +0.000 A 
ATOM     20  C   UNL     1      45.828   5.144   9.417  0.00  0.00    +0.000 A 
ATOM     21  C   UNL     1      44.827   4.169   9.507  0.00  0.00    +0.000 A 
ATOM     22  C   UNL     1      43.898   4.262  10.554  0.00  0.00    +0.000 A 
ATOM     23  C   UNL     1      44.000   5.268  11.521  0.00  0.00    +0.000 A 
BRANCH  21  24
ATOM     24  C   UNL     1      44.750   3.029   8.503  0.00  0.00    +0.000 C 
BRANCH  24  25
ATOM     25  N   UNL     1      46.010   2.658   7.820  0.00  0.00    +0.000 NA
ATOM     26  C   UNL     1      46.112   3.224   6.473  0.00  0.00    +0.000 C 
ATOM     27  C   UNL     1      47.422   2.869   5.769  0.00  0.00    +0.000 C 
ATOM     28  C   UNL     1      47.676   1.367   5.779  0.00  0.00    +0.000 C 
ATOM     29  C   UNL     1      47.601   0.829   7.202  0.00  0.00    +0.000 C 
ATOM     30  C   UNL     1      46.293   1.222   7.897  0.00  0.00    +0.000 C 
BRANCH  28  31
ATOM     31  O   UNL     1      46.750   0.688   4.932  0.00  0.00    +0.000 OA
ATOM     32  H   UNL     1      45.905   0.595   5.404  0.00  0.00    +0.000 HD
ENDBRANCH  28  31
ENDBRANCH  24  25
ENDBRANCH  21  24
ENDBRANCH  17  18
ENDBRANCH   3  17
TORSDOF 6
ENDMDL
MODEL 2
REMARK VINA RESULT:    -7.332      3.354      4.441
REMARK INTER + INTRA:         -10.514
REMARK INTER:                  -9.335
REMARK INTRA:                  -1.179
REMARK UNBOUND:                -0.824
REMARK  Name = 
REMARK  6 active torsions:
REMARK  status: ('A' for Active; 'I' for Inactive)
REMARK    1  A    between atoms: C_2  and  C_19
REMARK    2  A    between atoms: N_3  and  C_4
REMARK    3  A    between atoms: C_4  and  C_5
REMARK    4  A    between atoms: C_8  and  C_9
REMARK    5  A    between atoms: C_9  and  N_10
REMARK    6  A    between atoms: C_13  and  O_14
REMARK                            x       y       z     vdW  Elec       q    Type
REMARK                         _______ _______ _______ _____ _____    ______ ____
ROOT
ATOM      1  N   UNL     1      48.107   8.716  16.535  0.00  0.00    +0.000 NA
ATOM      2  C   UNL     1      48.786   7.691  16.150  0.00  0.00    +0.000 C 
ATOM      3  N   UNL     1      49.382   7.519  14.938  0.00  0.00    +0.000 N 
ATOM      4  H   UNL     1      48.043   9.402  15.787  0.00  0.00    +0.000 HD
ATOM      5  H   UNL     1      49.543   6.556  14.638  0.00  0.00    +0.000 HD
ENDROOT
BRANCH   2   6
ATOM      6  C   UNL     1      48.966   6.620  17.131  0.00  0.00    +0.000 A 
ATOM      7  C   UNL     1      49.635   6.864  18.325  0.00  0.00    +0.000 A 
ATOM      8  S   UNL     1      49.708   5.515  19.364  0.00  0.00    +0.000 S 
ATOM      9  C   UNL     1      48.819   4.562  18.271  0.00  0.00    +0.000 A 
ATOM     10  N   UNL     1      48.476   3.284  18.581  0.00  0.00    +0.000 NA
ATOM     11  C   UNL     1      47.769   2.689  17.676  0.00  0.00    +0.000 A 
ATOM     12  N   UNL     1      47.393   3.250  16.484  0.00  0.00    +0.000 N 
ATOM     13  C   UNL     1      47.752   4.525  16.111  0.00  0.00    +0.000 A 
ATOM     14  O   UNL     1      47.459   4.974  15.007  0.00  0.00    +0.000 OA
ATOM     15  C   UNL     1      48.510   5.251  17.111  0.00  0.00    +0.000 A 
ATOM     16  H   UNL     1      46.863   2.722  15.809  0.00  0.00    +0.000 HD
ENDBRANCH   2   6
BRANCH   3  17
ATOM     17  C   UNL     1      49.212   8.433  13.833  0.00  0.00    +0.000 C 
BRANCH  17  18
ATOM     18  C   UNL     1      47.941   8.154  13.075  0.00  0.00    +0.000 A 
ATOM     19  C   UNL     1      47.879   7.090  12.162  0.00  0.00    +0.000 A 
ATOM     20  C   UNL     1      46.678   6.763  11.522  0.00  0.00    +0.000 A 
ATOM     21  C   UNL     1      45.513   7.501  11.768  0.00  0.00    +0.000 A 
ATOM     22  C   UNL     1      45.593   8.605  12.631  0.00  0.00    +0.000 A 
ATOM     23  C   UNL     1      46.791   8.928  13.278  0.00  0.00    +0.000 A 
BRANCH  21  24
ATOM     24  C   UNL     1      44.189   7.115  11.126  0.00  0.00    +0.000 C 
BRANCH  24  25
ATOM     25  N   UNL     1      43.659   5.772  11.453  0.00  0.00    +0.000 NA
ATOM     26  C   UNL     1      43.799   5.438  12.872  0.00  0.00    +0.000 C 
ATOM     27  C   UNL     1      43.231   4.063  13.225  0.00  0.00    +0.000 C 
ATOM     28  C   UNL     1      43.794   2.973  12.323  0.00  0.00    +0.000 C 
ATOM     29  C   UNL     1      43.590   3.343  10.859  0.00  0.00    +0.000 C 
ATOM     30  C   UNL     1      44.142   4.735  10.536  0.00  0.00    +0.000 C 
BRANCH  28  31
ATOM     31  O   UNL     1      45.176   2.746  12.600  0.00  0.00    +0.000 OA
ATOM     32  H   UNL     1      45.396   3.162  13.451  0.00  0.00    +0.000 HD
ENDBRANCH  28  31
ENDBRANCH  24  25
ENDBRANCH  21  24
ENDBRANCH  17  18
ENDBRANCH   3  17
TORSDOF 6
ENDMDL
MODEL 3
REMARK VINA RESULT:    -7.160      1.530      2.235
REMARK INTER + INTRA:         -10.286
REMARK INTER:                  -9.417
REMARK INTRA:                  -0.870
REMARK UNBOUND:                -0.824
REMARK  Name = 
REMARK  6 active torsions:
REMARK  status: ('A' for Active; 'I' for Inactive)
REMARK    1  A    between atoms: C_2  and  C_19
REMARK    2  A    between atoms: N_3  and  C_4
REMARK    3  A    between atoms: C_4  and  C_5
REMARK    4  A    between atoms: C_8  and  C_9
REMARK    5  A    between atoms: C_9  and  N_10
REMARK    6  A    between atoms: C_13  and  O_14
REMARK                            x       y       z     vdW  Elec       q    Type
REMARK                         _______ _______ _______ _____ _____    ______ ____
ROOT
ATOM      1  N   UNL     1      47.072   3.935  14.376  0.00  0.00    +0.000 NA
ATOM      2  C   UNL     1      46.936   5.206  14.214  0.00  0.00    +0.000 C 
ATOM      3  N   UNL     1      45.820   5.856  13.782  0.00  0.00    +0.000 N 
ATOM      4  H   UNL     1      46.220   3.449  14.106  0.00  0.00    +0.000 HD
ATOM      5  H   UNL     1      45.961   6.769  13.346  0.00  0.00    +0.000 HD
ENDROOT
BRANCH   2   6
ATOM      6  C   UNL     1      48.087   6.038  14.570  0.00  0.00    +0.000 A 
ATOM      7  C   UNL     1      48.668   6.874  13.624  0.00  0.00    +0.000 A 
ATOM      8  S   UNL     1      49.965   7.802  14.228  0.00  0.00    +0.000 S 
ATOM      9  C   UNL     1      49.776   7.144  15.785  0.00  0.00    +0.000 A 
ATOM     10  N   UNL     1      50.554   7.563  16.818  0.00  0.00    +0.000 NA
ATOM     11  C   UNL     1      50.277   7.007  17.952  0.00  0.00    +0.000 A 
ATOM     12  N   UNL     1      49.308   6.057  18.141  0.00  0.00    +0.000 N 
ATOM     13  C   UNL     1      48.526   5.574  17.118  0.00  0.00    +0.000 A 
ATOM     14  O   UNL     1      47.713   4.672  17.306  0.00  0.00    +0.000 OA
ATOM     15  C   UNL     1      48.766   6.197  15.832  0.00  0.00    +0.000 A 
ATOM     16  H   UNL     1      49.160   5.643  19.048  0.00  0.00    +0.000 HD
ENDBRANCH   2   6
BRANCH   3  17
ATOM     17  C   UNL     1      44.643   5.175  13.295  0.00  0.00    +0.000 C 
BRANCH  17  18
ATOM     18  C   UNL     1      44.811   4.732  11.867  0.00  0.00    +0.000 A 
ATOM     19  C   UNL     1      44.291   3.500  11.440  0.00  0.00    +0.000 A 
ATOM     20  C   UNL     1      44.358   3.120  10.095  0.00  0.00    +0.000 A 
ATOM     21  C   UNL     1      44.960   3.956   9.145  0.00  0.00    +0.000 A 
ATOM     22  C   UNL     1      45.537   5.157   9.585  0.00  0.00    +0.000 A 
ATOM     23  C   UNL     1      45.463   5.542  10.929  0.00  0.00    +0.000 A 
BRANCH  21  24
ATOM     24  C   UNL     1      44.982   3.580   7.672  0.00  0.00    +0.000 C 
BRANCH  24  25
ATOM     25  N   UNL     1      46.228   2.968   7.160  0.00  0.00    +0.000 NA
ATOM     26  C   UNL     1      46.402   3.159   5.718  0.00  0.00    +0.000 C 
ATOM     27  C   UNL     1      47.699   2.552   5.183  0.00  0.00    +0.000 C 
ATOM     28  C   UNL     1      47.846   1.091   5.588  0.00  0.00    +0.000 C 
ATOM     29  C   UNL     1      47.699   0.945   7.097  0.00  0.00    +0.000 C 
ATOM     30  C   UNL     1      46.406   1.586   7.613  0.00  0.00    +0.000 C 
BRANCH  28  31
ATOM     31  O   UNL     1      46.894   0.276   4.905  0.00  0.00    +0.000 OA
ATOM     32  H   UNL     1      46.138   0.118   5.496  0.00  0.00    +0.000 HD
ENDBRANCH  28  31
ENDBRANCH  24  25
ENDBRANCH  21  24
ENDBRANCH  17  18
ENDBRANCH   3  17
TORSDOF 6
ENDMDL
MODEL 4
REMARK VINA RESULT:    -6.860      4.027      8.803
REMARK INTER + INTRA:          -9.889
REMARK INTER:                  -9.018
REMARK INTRA:                  -0.871
REMARK UNBOUND:                -0.824
REMARK  Name = 
REMARK  6 active torsions:
REMARK  status: ('A' for Active; 'I' for Inactive)
REMARK    1  A    between atoms: C_2  and  C_19
REMARK    2  A    between atoms: N_3  and  C_4
REMARK    3  A    between atoms: C_4  and  C_5
REMARK    4  A    between atoms: C_8  and  C_9
REMARK    5  A    between atoms: C_9  and  N_10
REMARK    6  A    between atoms: C_13  and  O_14
REMARK                            x       y       z     vdW  Elec       q    Type
REMARK                         _______ _______ _______ _____ _____    ______ ____
ROOT
ATOM      1  N   UNL     1      49.216   6.487  12.842  0.00  0.00    +0.000 NA
ATOM      2  C   UNL     1      48.144   6.811  13.478  0.00  0.00    +0.000 C 
ATOM      3  N   UNL     1      48.072   7.463  14.672  0.00  0.00    +0.000 N 
ATOM      4  H   UNL     1      50.040   6.763  13.370  0.00  0.00    +0.000 HD
ATOM      5  H   UNL     1      47.225   7.317  15.224  0.00  0.00    +0.000 HD
ENDROOT
BRANCH   2   6
ATOM      6  C   UNL     1      46.873   6.480  12.831  0.00  0.00    +0.000 A 
ATOM      7  C   UNL     1      46.142   7.462  12.173  0.00  0.00    +0.000 A 
ATOM      8  S   UNL     1      44.716   6.885  11.440  0.00  0.00    +0.000 S 
ATOM      9  C   UNL     1      45.039   5.294  11.947  0.00  0.00    +0.000 A 
ATOM     10  N   UNL     1      44.216   4.270  11.595  0.00  0.00    +0.000 NA
ATOM     11  C   UNL     1      44.602   3.110  12.016  0.00  0.00    +0.000 A 
ATOM     12  N   UNL     1      45.721   2.886  12.772  0.00  0.00    +0.000 N 
ATOM     13  C   UNL     1      46.560   3.896  13.186  0.00  0.00    +0.000 A 
ATOM     14  O   UNL     1      47.517   3.671  13.921  0.00  0.00    +0.000 OA
ATOM     15  C   UNL     1      46.196   5.213  12.702  0.00  0.00    +0.000 A 
ATOM     16  H   UNL     1      45.952   1.958  13.092  0.00  0.00    +0.000 HD
ENDBRANCH   2   6
BRANCH   3  17
ATOM     17  C   UNL     1      49.228   7.765  15.482  0.00  0.00    +0.000 C 
BRANCH  17  18
ATOM     18  C   UNL     1      49.674   6.568  16.279  0.00  0.00    +0.000 A 
ATOM     19  C   UNL     1      48.737   5.619  16.718  0.00  0.00    +0.000 A 
ATOM     20  C   UNL     1      49.150   4.456  17.378  0.00  0.00    +0.000 A 
ATOM     21  C   UNL     1      50.507   4.219  17.629  0.00  0.00    +0.000 A 
ATOM     22  C   UNL     1      51.436   5.200  17.247  0.00  0.00    +0.000 A 
ATOM     23  C   UNL     1      51.026   6.359  16.580  0.00  0.00    +0.000 A 
BRANCH  21  24
ATOM     24  C   UNL     1      50.970   2.929  18.288  0.00  0.00    +0.000 C 
BRANCH  24  25
ATOM     25  N   UNL     1      52.314   2.436  17.914  0.00  0.00    +0.000 NA
ATOM     26  C   UNL     1      52.306   1.032  17.497  0.00  0.00    +0.000 C 
ATOM     27  C   UNL     1      53.686   0.520  17.084  0.00  0.00    +0.000 C 
ATOM     28  C   UNL     1      54.731   0.791  18.158  0.00  0.00    +0.000 C 
ATOM     29  C   UNL     1      54.733   2.268  18.531  0.00  0.00    +0.000 C 
ATOM     30  C   UNL     1      53.335   2.765  18.913  0.00  0.00    +0.000 C 
BRANCH  28  31
ATOM     31  O   UNL     1      54.502  -0.022  19.308  0.00  0.00    +0.000 OA
ATOM     32  H   UNL     1      54.523   0.543  20.099  0.00  0.00    +0.000 HD
ENDBRANCH  28  31
ENDBRANCH  24  25
ENDBRANCH  21  24
ENDBRANCH  17  18
ENDBRANCH   3  17
TORSDOF 6
ENDMDL
MODEL 5
REMARK VINA RESULT:    -6.837      3.617      5.260
REMARK INTER + INTRA:          -9.859
REMARK INTER:                  -9.091
REMARK INTRA:                  -0.767
REMARK UNBOUND:                -0.824
REMARK  Name = 
REMARK  6 active torsions:
REMARK  status: ('A' for Active; 'I' for Inactive)
REMARK    1  A    between atoms: C_2  and  C_19
REMARK    2  A    between atoms: N_3  and  C_4
REMARK    3  A    between atoms: C_4  and  C_5
REMARK    4  A    between atoms: C_8  and  C_9
REMARK    5  A    between atoms: C_9  and  N_10
REMARK    6  A    between atoms: C_13  and  O_14
REMARK                            x       y       z     vdW  Elec       q    Type
REMARK                         _______ _______ _______ _____ _____    ______ ____
ROOT
ATOM      1  N   UNL     1      46.579   8.741  13.850  0.00  0.00    +0.000 NA
ATOM      2  C   UNL     1      45.851   8.831  12.791  0.00  0.00    +0.000 C 
ATOM      3  N   UNL     1      44.960   7.906  12.335  0.00  0.00    +0.000 N 
ATOM      4  H   UNL     1      46.424   7.849  14.313  0.00  0.00    +0.000 HD
ATOM      5  H   UNL     1      44.752   7.924  11.336  0.00  0.00    +0.000 HD
ENDROOT
BRANCH   2   6
ATOM      6  C   UNL     1      45.965  10.071  12.021  0.00  0.00    +0.000 A 
ATOM      7  C   UNL     1      44.845  10.863  11.794  0.00  0.00    +0.000 A 
ATOM      8  S   UNL     1      45.175  12.290  10.922  0.00  0.00    +0.000 S 
ATOM      9  C   UNL     1      46.833  11.919  10.844  0.00  0.00    +0.000 A 
ATOM     10  N   UNL     1      47.713  12.778  10.265  0.00  0.00    +0.000 NA
ATOM     11  C   UNL     1      48.945  12.388  10.310  0.00  0.00    +0.000 A 
ATOM     12  N   UNL     1      49.372  11.209  10.862  0.00  0.00    +0.000 N 
ATOM     13  C   UNL     1      48.513  10.291  11.422  0.00  0.00    +0.000 A 
ATOM     14  O   UNL     1      48.919   9.213  11.847  0.00  0.00    +0.000 OA
ATOM     15  C   UNL     1      47.123  10.701  11.437  0.00  0.00    +0.000 A 
ATOM     16  H   UNL     1      50.346  10.951  10.841  0.00  0.00    +0.000 HD
ENDBRANCH   2   6
BRANCH   3  17
ATOM     17  C   UNL     1      44.808   6.596  12.921  0.00  0.00    +0.000 C 
BRANCH  17  18
ATOM     18  C   UNL     1      44.943   5.509  11.887  0.00  0.00    +0.000 A 
ATOM     19  C   UNL     1      44.576   4.190  12.193  0.00  0.00    +0.000 A 
ATOM     20  C   UNL     1      44.608   3.191  11.213  0.00  0.00    +0.000 A 
ATOM     21  C   UNL     1      45.023   3.483   9.908  0.00  0.00    +0.000 A 
ATOM     22  C   UNL     1      45.451   4.788   9.621  0.00  0.00    +0.000 A 
ATOM     23  C   UNL     1      45.411   5.790  10.597  0.00  0.00    +0.000 A 
BRANCH  21  24
ATOM     24  C   UNL     1      45.001   2.419   8.821  0.00  0.00    +0.000 C 
BRANCH  24  25
ATOM     25  N   UNL     1      46.149   2.399   7.887  0.00  0.00    +0.000 NA
ATOM     26  C   UNL     1      45.896   3.162   6.662  0.00  0.00    +0.000 C 
ATOM     27  C   UNL     1      47.085   3.168   5.702  0.00  0.00    +0.000 C 
ATOM     28  C   UNL     1      47.577   1.757   5.406  0.00  0.00    +0.000 C 
ATOM     29  C   UNL     1      47.866   1.016   6.705  0.00  0.00    +0.000 C 
ATOM     30  C   UNL     1      46.670   1.048   7.662  0.00  0.00    +0.000 C 
BRANCH  28  31
ATOM     31  O   UNL     1      46.628   1.042   4.616  0.00  0.00    +0.000 OA
ATOM     32  H   UNL     1      45.837   0.874   5.155  0.00  0.00    +0.000 HD
ENDBRANCH  28  31
ENDBRANCH  24  25
ENDBRANCH  21  24
ENDBRANCH  17  18
ENDBRANCH   3  17
TORSDOF 6
ENDMDL
MODEL 6
REMARK VINA RESULT:    -6.827      3.158      8.964
REMARK INTER + INTRA:          -9.846
REMARK INTER:                  -8.918
REMARK INTRA:                  -0.928
REMARK UNBOUND:                -0.824
REMARK  Name = 
REMARK  6 active torsions:
REMARK  status: ('A' for Active; 'I' for Inactive)
REMARK    1  A    between atoms: C_2  and  C_19
REMARK    2  A    between atoms: N_3  and  C_4
REMARK    3  A    between atoms: C_4  and  C_5
REMARK    4  A    between atoms: C_8  and  C_9
REMARK    5  A    between atoms: C_9  and  N_10
REMARK    6  A    between atoms: C_13  and  O_14
REMARK                            x       y       z     vdW  Elec       q    Type
REMARK                         _______ _______ _______ _____ _____    ______ ____
ROOT
ATOM      1  N   UNL     1      44.754   7.511  12.378  0.00  0.00    +0.000 NA
ATOM      2  C   UNL     1      45.576   6.578  12.043  0.00  0.00    +0.000 C 
ATOM      3  N   UNL     1      46.930   6.687  11.936  0.00  0.00    +0.000 N 
ATOM      4  H   UNL     1      45.251   8.385  12.534  0.00  0.00    +0.000 HD
ATOM      5  H   UNL     1      47.395   6.021  11.317  0.00  0.00    +0.000 HD
ENDROOT
BRANCH   2   6
ATOM      6  C   UNL     1      44.999   5.257  11.792  0.00  0.00    +0.000 A 
ATOM      7  C   UNL     1      44.301   4.592  12.794  0.00  0.00    +0.000 A 
ATOM      8  S   UNL     1      43.660   3.089  12.307  0.00  0.00    +0.000 S 
ATOM      9  C   UNL     1      44.264   3.286  10.729  0.00  0.00    +0.000 A 
ATOM     10  N   UNL     1      44.013   2.359   9.767  0.00  0.00    +0.000 NA
ATOM     11  C   UNL     1      44.499   2.653   8.605  0.00  0.00    +0.000 A 
ATOM     12  N   UNL     1      45.229   3.778   8.326  0.00  0.00    +0.000 N 
ATOM     13  C   UNL     1      45.541   4.722   9.278  0.00  0.00    +0.000 A 
ATOM     14  O   UNL     1      46.256   5.685   9.012  0.00  0.00    +0.000 OA
ATOM     15  C   UNL     1      44.982   4.461  10.589  0.00  0.00    +0.000 A 
ATOM     16  H   UNL     1      45.603   3.936   7.404  0.00  0.00    +0.000 HD
ENDBRANCH   2   6
BRANCH   3  17
ATOM     17  C   UNL     1      47.637   7.940  12.049  0.00  0.00    +0.000 C 
BRANCH  17  18
ATOM     18  C   UNL     1      48.328   8.067  13.381  0.00  0.00    +0.000 A 
ATOM     19  C   UNL     1      47.738   8.803  14.420  0.00  0.00    +0.000 A 
ATOM     20  C   UNL     1      48.326   8.850  15.689  0.00  0.00    +0.000 A 
ATOM     21  C   UNL     1      49.525   8.174  15.947  0.00  0.00    +0.000 A 
ATOM     22  C   UNL     1      50.147   7.493  14.889  0.00  0.00    +0.000 A 
ATOM     23  C   UNL     1      49.556   7.438  13.622  0.00  0.00    +0.000 A 
BRANCH  21  24
ATOM     24  C   UNL     1      50.137   8.167  17.339  0.00  0.00    +0.000 C 
BRANCH  24  25
ATOM     25  N   UNL     1      49.560   7.215  18.315  0.00  0.00    +0.000 NA
ATOM     26  C   UNL     1      49.323   5.889  17.739  0.00  0.00    +0.000 C 
ATOM     27  C   UNL     1      48.751   4.891  18.745  0.00  0.00    +0.000 C 
ATOM     28  C   UNL     1      47.514   5.441  19.443  0.00  0.00    +0.000 C 
ATOM     29  C   UNL     1      47.817   6.799  20.060  0.00  0.00    +0.000 C 
ATOM     30  C   UNL     1      48.416   7.773  19.040  0.00  0.00    +0.000 C 
BRANCH  28  31
ATOM     31  O   UNL     1      46.416   5.531  18.535  0.00  0.00    +0.000 OA
ATOM     32  H   UNL     1      46.086   4.635  18.354  0.00  0.00    +0.000 HD
ENDBRANCH  28  31
ENDBRANCH  24  25
ENDBRANCH  21  24
ENDBRANCH  17  18
ENDBRANCH   3  17
TORSDOF 6
ENDMDL
MODEL 7
REMARK VINA RESULT:    -6.638      3.667      5.131
REMARK INTER + INTRA:          -9.596
REMARK INTER:                  -8.653
REMARK INTRA:                  -0.943
REMARK UNBOUND:                -0.824
REMARK  Name = 
REMARK  6 active torsions:
REMARK  status: ('A' for Active; 'I' for Inactive)
REMARK    1  A    between atoms: C_2  and  C_19
REMARK    2  A    between atoms: N_3  and  C_4
REMARK    3  A    between atoms: C_4  and  C_5
REMARK    4  A    between atoms: C_8  and  C_9
REMARK    5  A    between atoms: C_9  and  N_10
REMARK    6  A    between atoms: C_13  and  O_14
REMARK                            x       y       z     vdW  Elec       q    Type
REMARK                         _______ _______ _______ _____ _____    ______ ____
ROOT
ATOM      1  N   UNL     1      49.965   5.764  16.294  0.00  0.00    +0.000 NA
ATOM      2  C   UNL     1      49.780   6.985  16.660  0.00  0.00    +0.000 C 
ATOM      3  N   UNL     1      49.641   8.067  15.844  0.00  0.00    +0.000 N 
ATOM      4  H   UNL     1      50.024   5.702  15.281  0.00  0.00    +0.000 HD
ATOM      5  H   UNL     1      49.881   8.976  16.243  0.00  0.00    +0.000 HD
ENDROOT
BRANCH   2   6
ATOM      6  C   UNL     1      49.668   7.227  18.100  0.00  0.00    +0.000 A 
ATOM      7  C   UNL     1      50.506   8.142  18.726  0.00  0.00    +0.000 A 
ATOM      8  S   UNL     1      50.200   8.328  20.393  0.00  0.00    +0.000 S 
ATOM      9  C   UNL     1      48.915   7.216  20.333  0.00  0.00    +0.000 A 
ATOM     10  N   UNL     1      48.170   6.952  21.439  0.00  0.00    +0.000 NA
ATOM     11  C   UNL     1      47.202   6.117  21.241  0.00  0.00    +0.000 A 
ATOM     12  N   UNL     1      46.926   5.510  20.045  0.00  0.00    +0.000 N 
ATOM     13  C   UNL     1      47.678   5.716  18.911  0.00  0.00    +0.000 A 
ATOM     14  O   UNL     1      47.447   5.103  17.872  0.00  0.00    +0.000 OA
ATOM     15  C   UNL     1      48.750   6.678  19.068  0.00  0.00    +0.000 A 
ATOM     16  H   UNL     1      46.171   4.847  19.964  0.00  0.00    +0.000 HD
ENDBRANCH   2   6
BRANCH   3  17
ATOM     17  C   UNL     1      49.829   8.011  14.414  0.00  0.00    +0.000 C 
BRANCH  17  18
ATOM     18  C   UNL     1      48.532   7.753  13.695  0.00  0.00    +0.000 A 
ATOM     19  C   UNL     1      47.402   8.540  13.965  0.00  0.00    +0.000 A 
ATOM     20  C   UNL     1      46.219   8.370  13.237  0.00  0.00    +0.000 A 
ATOM     21  C   UNL     1      46.132   7.401  12.230  0.00  0.00    +0.000 A 
ATOM     22  C   UNL     1      47.242   6.572  12.006  0.00  0.00    +0.000 A 
ATOM     23  C   UNL     1      48.428   6.745  12.727  0.00  0.00    +0.000 A 
BRANCH  21  24
ATOM     24  C   UNL     1      44.872   7.253  11.391  0.00  0.00    +0.000 C 
BRANCH  24  25
ATOM     25  N   UNL     1      44.101   6.001  11.564  0.00  0.00    +0.000 NA
ATOM     26  C   UNL     1      44.061   5.550  12.958  0.00  0.00    +0.000 C 
ATOM     27  C   UNL     1      43.245   4.272  13.152  0.00  0.00    +0.000 C 
ATOM     28  C   UNL     1      43.695   3.167  12.205  0.00  0.00    +0.000 C 
ATOM     29  C   UNL     1      43.683   3.668  10.767  0.00  0.00    +0.000 C 
ATOM     30  C   UNL     1      44.483   4.964  10.602  0.00  0.00    +0.000 C 
BRANCH  28  31
ATOM     31  O   UNL     1      44.992   2.687  12.563  0.00  0.00    +0.000 OA
ATOM     32  H   UNL     1      45.261   3.108  13.397  0.00  0.00    +0.000 HD
ENDBRANCH  28  31
ENDBRANCH  24  25
ENDBRANCH  21  24
ENDBRANCH  17  18
ENDBRANCH   3  17
TORSDOF 6
ENDMDL
MODEL 8
REMARK VINA RESULT:    -6.543      4.216      7.984
REMARK INTER + INTRA:          -9.471
REMARK INTER:                  -8.266
REMARK INTRA:                  -1.205
REMARK UNBOUND:                -0.824
REMARK  Name = 
REMARK  6 active torsions:
REMARK  status: ('A' for Active; 'I' for Inactive)
REMARK    1  A    between atoms: C_2  and  C_19
REMARK    2  A    between atoms: N_3  and  C_4
REMARK    3  A    between atoms: C_4  and  C_5
REMARK    4  A    between atoms: C_8  and  C_9
REMARK    5  A    between atoms: C_9  and  N_10
REMARK    6  A    between atoms: C_13  and  O_14
REMARK                            x       y       z     vdW  Elec       q    Type
REMARK                         _______ _______ _______ _____ _____    ______ ____
ROOT
ATOM      1  N   UNL     1      48.423   7.406  12.337  0.00  0.00    +0.000 NA
ATOM      2  C   UNL     1      47.340   7.764  12.937  0.00  0.00    +0.000 C 
ATOM      3  N   UNL     1      47.223   8.718  13.902  0.00  0.00    +0.000 N 
ATOM      4  H   UNL     1      49.219   7.923  12.701  0.00  0.00    +0.000 HD
ATOM      5  H   UNL     1      46.427   8.633  14.536  0.00  0.00    +0.000 HD
ENDROOT
BRANCH   2   6
ATOM      6  C   UNL     1      46.106   7.104  12.508  0.00  0.00    +0.000 A 
ATOM      7  C   UNL     1      45.123   7.821  11.836  0.00  0.00    +0.000 A 
ATOM      8  S   UNL     1      43.778   6.880  11.374  0.00  0.00    +0.000 S 
ATOM      9  C   UNL     1      44.476   5.472  12.026  0.00  0.00    +0.000 A 
ATOM     10  N   UNL     1      43.851   4.270  11.915  0.00  0.00    +0.000 NA
ATOM     11  C   UNL     1      44.511   3.279  12.421  0.00  0.00    +0.000 A 
ATOM     12  N   UNL     1      45.726   3.387  13.045  0.00  0.00    +0.000 N 
ATOM     13  C   UNL     1      46.374   4.589  13.217  0.00  0.00    +0.000 A 
ATOM     14  O   UNL     1      47.429   4.662  13.842  0.00  0.00    +0.000 OA
ATOM     15  C   UNL     1      45.697   5.726  12.627  0.00  0.00    +0.000 A 
ATOM     16  H   UNL     1      46.176   2.578  13.443  0.00  0.00    +0.000 HD
ENDBRANCH   2   6
BRANCH   3  17
ATOM     17  C   UNL     1      48.355   9.383  14.503  0.00  0.00    +0.000 C 
BRANCH  17  18
ATOM     18  C   UNL     1      49.004   8.526  15.556  0.00  0.00    +0.000 A 
ATOM     19  C   UNL     1      48.466   8.463  16.851  0.00  0.00    +0.000 A 
ATOM     20  C   UNL     1      49.005   7.599  17.811  0.00  0.00    +0.000 A 
ATOM     21  C   UNL     1      50.105   6.788  17.505  0.00  0.00    +0.000 A 
ATOM     22  C   UNL     1      50.682   6.900  16.230  0.00  0.00    +0.000 A 
ATOM     23  C   UNL     1      50.138   7.757  15.267  0.00  0.00    +0.000 A 
BRANCH  21  24
ATOM     24  C   UNL     1      50.657   5.800  18.521  0.00  0.00    +0.000 C 
BRANCH  24  25
ATOM     25  N   UNL     1      50.199   4.397  18.402  0.00  0.00    +0.000 NA
ATOM     26  C   UNL     1      50.987   3.624  17.439  0.00  0.00    +0.000 C 
ATOM     27  C   UNL     1      50.539   2.167  17.328  0.00  0.00    +0.000 C 
ATOM     28  C   UNL     1      49.043   2.057  17.063  0.00  0.00    +0.000 C 
ATOM     29  C   UNL     1      48.263   2.841  18.110  0.00  0.00    +0.000 C 
ATOM     30  C   UNL     1      48.749   4.290  18.223  0.00  0.00    +0.000 C 
BRANCH  28  31
ATOM     31  O   UNL     1      48.724   2.513  15.748  0.00  0.00    +0.000 OA
ATOM     32  H   UNL     1      48.636   3.481  15.766  0.00  0.00    +0.000 HD
ENDBRANCH  28  31
ENDBRANCH  24  25
ENDBRANCH  21  24
ENDBRANCH  17  18
ENDBRANCH   3  17
TORSDOF 6
ENDMDL
MODEL 9
REMARK VINA RESULT:    -6.519      3.467      5.168
REMARK INTER + INTRA:          -9.439
REMARK INTER:                  -8.744
REMARK INTRA:                  -0.696
REMARK UNBOUND:                -0.824
REMARK  Name = 
REMARK  6 active torsions:
REMARK  status: ('A' for Active; 'I' for Inactive)
REMARK    1  A    between atoms: C_2  and  C_19
REMARK    2  A    between atoms: N_3  and  C_4
REMARK    3  A    between atoms: C_4  and  C_5
REMARK    4  A    between atoms: C_8  and  C_9
REMARK    5  A    between atoms: C_9  and  N_10
REMARK    6  A    between atoms: C_13  and  O_14
REMARK                            x       y       z     vdW  Elec       q    Type
REMARK                         _______ _______ _______ _____ _____    ______ ____
ROOT
ATOM      1  N   UNL     1      48.713   6.064  18.137  0.00  0.00    +0.000 NA
ATOM      2  C   UNL     1      49.745   6.254  17.389  0.00  0.00    +0.000 C 
ATOM      3  N   UNL     1      49.907   7.236  16.460  0.00  0.00    +0.000 N 
ATOM      4  H   UNL     1      47.990   6.748  17.925  0.00  0.00    +0.000 HD
ATOM      5  H   UNL     1      50.568   7.049  15.705  0.00  0.00    +0.000 HD
ENDROOT
BRANCH   2   6
ATOM      6  C   UNL     1      50.873   5.342  17.588  0.00  0.00    +0.000 A 
ATOM      7  C   UNL     1      52.099   5.827  18.029  0.00  0.00    +0.000 A 
ATOM      8  S   UNL     1      53.280   4.618  18.250  0.00  0.00    +0.000 S 
ATOM      9  C   UNL     1      52.187   3.397  17.795  0.00  0.00    +0.000 A 
ATOM     10  N   UNL     1      52.553   2.088  17.822  0.00  0.00    +0.000 NA
ATOM     11  C   UNL     1      51.613   1.265  17.489  0.00  0.00    +0.000 A 
ATOM     12  N   UNL     1      50.348   1.635  17.113  0.00  0.00    +0.000 N 
ATOM     13  C   UNL     1      49.946   2.948  17.032  0.00  0.00    +0.000 A 
ATOM     14  O   UNL     1      48.827   3.250  16.625  0.00  0.00    +0.000 OA
ATOM     15  C   UNL     1      50.951   3.910  17.438  0.00  0.00    +0.000 A 
ATOM     16  H   UNL     1      49.668   0.944  16.839  0.00  0.00    +0.000 HD
ENDBRANCH   2   6
BRANCH   3  17
ATOM     17  C   UNL     1      48.854   8.145  16.074  0.00  0.00    +0.000 C 
BRANCH  17  18
ATOM     18  C   UNL     1      48.254   7.766  14.747  0.00  0.00    +0.000 A 
ATOM     19  C   UNL     1      48.498   6.500  14.193  0.00  0.00    +0.000 A 
ATOM     20  C   UNL     1      47.871   6.102  13.007  0.00  0.00    +0.000 A 
ATOM     21  C   UNL     1      46.996   6.966  12.337  0.00  0.00    +0.000 A 
ATOM     22  C   UNL     1      46.803   8.255  12.857  0.00  0.00    +0.000 A 
ATOM     23  C   UNL     1      47.423   8.651  14.048  0.00  0.00    +0.000 A 
BRANCH  21  24
ATOM     24  C   UNL     1      46.261   6.520  11.082  0.00  0.00    +0.000 C 
BRANCH  24  25
ATOM     25  N   UNL     1      45.015   5.745  11.281  0.00  0.00    +0.000 NA
ATOM     26  C   UNL     1      44.704   5.527  12.696  0.00  0.00    +0.000 C 
ATOM     27  C   UNL     1      43.405   4.750  12.913  0.00  0.00    +0.000 C 
ATOM     28  C   UNL     1      43.387   3.452  12.116  0.00  0.00    +0.000 C 
ATOM     29  C   UNL     1      43.674   3.731  10.647  0.00  0.00    +0.000 C 
ATOM     30  C   UNL     1      44.965   4.535  10.456  0.00  0.00    +0.000 C 
BRANCH  28  31
ATOM     31  O   UNL     1      44.324   2.516  12.647  0.00  0.00    +0.000 OA
ATOM     32  H   UNL     1      44.339   2.603  13.615  0.00  0.00    +0.000 HD
ENDBRANCH  28  31
ENDBRANCH  24  25
ENDBRANCH  21  24
ENDBRANCH  17  18
ENDBRANCH   3  17
TORSDOF 6
ENDMDL
