MODEL 1
REMARK VINA RESULT:    -7.838      0.000      0.000
REMARK INTER + INTRA:         -11.636
REMARK INTER:                 -10.587
REMARK INTRA:                  -1.048
REMARK UNBOUND:                -1.048
REMARK  Name = 
REMARK  8 active torsions:
REMARK  status: ('A' for Active; 'I' for Inactive)
REMARK    1  A    between atoms: C_1  and  C_2
REMARK    2  A    between atoms: N_4  and  C_5
REMARK    3  A    between atoms: C_7  and  C_8
REMARK    4  A    between atoms: C_8  and  C_9
REMARK    5  A    between atoms: C_9  and  N_10
REMARK    6  A    between atoms: C_14  and  C_15
REMARK    7  A    between atoms: C_21  and  C_22
REMARK    8  A    between atoms: C_28  and  C_29
REMARK                            x       y       z     vdW  Elec       q    Type
REMARK                         _______ _______ _______ _____ _____    ______ ____
ROOT
ATOM      1  C   UNL     1      46.505   7.894  12.737  0.00  0.00    +0.000 A 
ATOM      2  C   UNL     1      45.720   6.735  12.609  0.00  0.00    +0.000 A 
ATOM      3  C   UNL     1      44.495   6.722  11.914  0.00  0.00    +0.000 A 
ATOM      4  C   UNL     1      44.038   7.901  11.320  0.00  0.00    +0.000 A 
ATOM      5  C   UNL     1      44.785   9.076  11.422  0.00  0.00    +0.000 A 
ATOM      6  C   UNL     1      46.005   9.052  12.122  0.00  0.00    +0.000 A 
ENDROOT
BRANCH   1  10
ATOM      7  C   UNL     1      50.199   8.396  11.491  0.00  0.00    +0.000 C 
ATOM      8  C   UNL     1      50.131   7.806  12.903  0.00  0.00    +0.000 C 
ATOM      9  C   UNL     1      48.816   7.001  13.114  0.00  0.00    +0.000 C 
ATOM     10  N   UNL     1      47.697   7.902  13.430  0.00  0.00    +0.000 N 
ATOM     11  C   UNL     1      47.958   8.806  14.561  0.00  0.00    +0.000 C 
ATOM     12  C   UNL     1      49.243   9.638  14.322  0.00  0.00    +0.000 C 
ATOM     13  C   UNL     1      49.007  10.796  13.350  0.00  0.00    +0.000 C 
ATOM     14  N   UNL     1      50.424   8.820  13.949  0.00  0.00    +0.000 NA
ATOM     15  H   UNL     1      50.693   8.301  14.787  0.00  0.00    +0.000 HD
ENDBRANCH   1  10
BRANCH   5  16
ATOM     16  C   UNL     1      44.306  10.372  10.821  0.00  0.00    +0.000 C 
ATOM     17  F   UNL     1      43.503  11.097  11.649  0.00  0.00    +0.000 F 
ATOM     18  F   UNL     1      45.335  11.200  10.484  0.00  0.00    +0.000 F 
ATOM     19  F   UNL     1      43.590  10.186   9.677  0.00  0.00    +0.000 F 
ENDBRANCH   5  16
BRANCH   3  20
ATOM     20  C   UNL     1      43.637   5.477  11.885  0.00  0.00    +0.000 C 
BRANCH  20  21
ATOM     21  C   UNL     1      43.533   4.922  10.460  0.00  0.00    +0.000 C 
BRANCH  21  22
ATOM     22  N   UNL     1      43.991   3.528  10.400  0.00  0.00    +0.000 N 
ATOM     23  C   UNL     1      44.845   3.288   9.300  0.00  0.00    +0.000 A 
ATOM     24  C   UNL     1      45.355   2.007   9.114  0.00  0.00    +0.000 A 
ATOM     25  C   UNL     1      46.207   1.753   8.038  0.00  0.00    +0.000 A 
ATOM     26  C   UNL     1      46.514   2.801   7.191  0.00  0.00    +0.000 A 
ATOM     27  N   UNL     1      46.023   4.045   7.380  0.00  0.00    +0.000 NA
ATOM     28  N   UNL     1      45.197   4.281   8.451  0.00  0.00    +0.000 NA
ATOM     29  H   UNL     1      43.220   2.866  10.364  0.00  0.00    +0.000 HD
BRANCH  26  30
ATOM     30  C   UNL     1      47.389   2.608   6.001  0.00  0.00    +0.000 C 
ATOM     31  N   UNL     1      48.734   2.531   6.250  0.00  0.00    +0.000 N 
ATOM     32  O   UNL     1      46.938   2.527   4.865  0.00  0.00    +0.000 OA
ATOM     33  H   UNL     1      49.093   2.594   7.195  0.00  0.00    +0.000 HD
ATOM     34  H   UNL     1      49.373   2.399   5.478  0.00  0.00    +0.000 HD
ENDBRANCH  26  30
ENDBRANCH  21  22
ENDBRANCH  20  21
ENDBRANCH   3  20
TORSDOF 6
ENDMDL
MODEL 2
REMARK VINA RESULT:    -7.741      1.395      1.759
REMARK INTER + INTRA:         -11.505
REMARK INTER:                 -10.753
REMARK INTRA:                  -0.752
REMARK UNBOUND:                -1.048
REMARK  Name = 
REMARK  8 active torsions:
REMARK  status: ('A' for Active; 'I' for Inactive)
REMARK    1  A    between atoms: C_1  and  C_2
REMARK    2  A    between atoms: N_4  and  C_5
REMARK    3  A    between atoms: C_7  and  C_8
REMARK    4  A    between atoms: C_8  and  C_9
REMARK    5  A    between atoms: C_9  and  N_10
REMARK    6  A    between atoms: C_14  and  C_15
REMARK    7  A    between atoms: C_21  and  C_22
REMARK    8  A    between atoms: C_28  and  C_29
REMARK                            x       y       z     vdW  Elec       q    Type
REMARK                         _______ _______ _______ _____ _____    ______ ____
ROOT
ATOM      1  C   UNL     1      47.032   7.135  12.593  0.00  0.00    +0.000 A 
ATOM      2  C   UNL     1      46.188   6.012  12.619  0.00  0.00    +0.000 A 
ATOM      3  C   UNL     1      44.841   6.066  12.211  0.00  0.00    +0.000 A 
ATOM      4  C   UNL     1      44.316   7.279  11.757  0.00  0.00    +0.000 A 
ATOM      5  C   UNL     1      45.119   8.421  11.716  0.00  0.00    +0.000 A 
ATOM      6  C   UNL     1      46.460   8.329  12.128  0.00  0.00    +0.000 A 
ENDROOT
BRANCH   1  10
ATOM      7  C   UNL     1      49.957   9.736  12.231  0.00  0.00    +0.000 C 
ATOM      8  C   UNL     1      50.459   8.336  12.599  0.00  0.00    +0.000 C 
ATOM      9  C   UNL     1      49.484   7.235  12.087  0.00  0.00    +0.000 C 
ATOM     10  N   UNL     1      48.346   7.077  13.006  0.00  0.00    +0.000 N 
ATOM     11  C   UNL     1      48.736   6.838  14.404  0.00  0.00    +0.000 C 
ATOM     12  C   UNL     1      49.668   7.962  14.922  0.00  0.00    +0.000 C 
ATOM     13  C   UNL     1      48.895   9.235  15.273  0.00  0.00    +0.000 C 
ATOM     14  N   UNL     1      50.828   8.233  14.035  0.00  0.00    +0.000 NA
ATOM     15  H   UNL     1      51.449   7.425  14.116  0.00  0.00    +0.000 HD
ENDBRANCH   1  10
BRANCH   5  16
ATOM     16  C   UNL     1      44.576   9.752  11.262  0.00  0.00    +0.000 C 
ATOM     17  F   UNL     1      43.861   9.686  10.105  0.00  0.00    +0.000 F 
ATOM     18  F   UNL     1      43.742  10.314  12.183  0.00  0.00    +0.000 F 
ATOM     19  F   UNL     1      45.558  10.671  11.041  0.00  0.00    +0.000 F 
ENDBRANCH   5  16
BRANCH   3  20
ATOM     20  C   UNL     1      43.944   4.857  12.347  0.00  0.00    +0.000 C 
BRANCH  20  21
ATOM     21  C   UNL     1      43.271   4.526  11.010  0.00  0.00    +0.000 C 
BRANCH  21  22
ATOM     22  N   UNL     1      44.070   5.017   9.879  0.00  0.00    +0.000 N 
ATOM     23  C   UNL     1      44.802   3.986   9.249  0.00  0.00    +0.000 A 
ATOM     24  C   UNL     1      45.609   4.305   8.161  0.00  0.00    +0.000 A 
ATOM     25  C   UNL     1      46.333   3.299   7.520  0.00  0.00    +0.000 A 
ATOM     26  C   UNL     1      46.214   2.008   7.999  0.00  0.00    +0.000 A 
ATOM     27  N   UNL     1      45.424   1.701   9.051  0.00  0.00    +0.000 NA
ATOM     28  N   UNL     1      44.708   2.700   9.661  0.00  0.00    +0.000 NA
ATOM     29  H   UNL     1      44.714   5.755  10.150  0.00  0.00    +0.000 HD
BRANCH  26  30
ATOM     30  C   UNL     1      46.978   0.880   7.394  0.00  0.00    +0.000 C 
ATOM     31  N   UNL     1      47.893   1.221   6.434  0.00  0.00    +0.000 N 
ATOM     32  O   UNL     1      46.797  -0.284   7.729  0.00  0.00    +0.000 OA
ATOM     33  H   UNL     1      48.036   2.189   6.171  0.00  0.00    +0.000 HD
ATOM     34  H   UNL     1      48.440   0.495   5.991  0.00  0.00    +0.000 HD
ENDBRANCH  26  30
ENDBRANCH  21  22
ENDBRANCH  20  21
ENDBRANCH   3  20
TORSDOF 6
ENDMDL
MODEL 3
REMARK VINA RESULT:    -7.489      3.566      7.143
REMARK INTER + INTRA:         -11.164
REMARK INTER:                  -9.824
REMARK INTRA:                  -1.340
REMARK UNBOUND:                -1.048
REMARK  Name = 
REMARK  8 active torsions:
REMARK  status: ('A' for Active; 'I' for Inactive)
REMARK    1  A    between atoms: C_1  and  C_2
REMARK    2  A    between atoms: N_4  and  C_5
REMARK    3  A    between atoms: C_7  and  C_8
REMARK    4  A    between atoms: C_8  and  C_9
REMARK    5  A    between atoms: C_9  and  N_10
REMARK    6  A    between atoms: C_14  and  C_15
REMARK    7  A    between atoms: C_21  and  C_22
REMARK    8  A    between atoms: C_28  and  C_29
REMARK                            x       y       z     vdW  Elec       q    Type
REMARK                         _______ _______ _______ _____ _____    ______ ____
ROOT
ATOM      1  C   UNL     1      45.112   7.292  11.347  0.00  0.00    +0.000 A 
ATOM      2  C   UNL     1      46.408   7.444  11.869  0.00  0.00    +0.000 A 
ATOM      3  C   UNL     1      46.932   8.696  12.243  0.00  0.00    +0.000 A 
ATOM      4  C   UNL     1      46.138   9.836  12.099  0.00  0.00    +0.000 A 
ATOM      5  C   UNL     1      44.844   9.732  11.584  0.00  0.00    +0.000 A 
ATOM      6  C   UNL     1      44.352   8.465  11.223  0.00  0.00    +0.000 A 
ENDROOT
BRANCH   1  10
ATOM      7  C   UNL     1      45.897   3.677  12.676  0.00  0.00    +0.000 C 
ATOM      8  C   UNL     1      45.166   3.661  11.330  0.00  0.00    +0.000 C 
ATOM      9  C   UNL     1      45.459   4.954  10.515  0.00  0.00    +0.000 C 
ATOM     10  N   UNL     1      44.609   6.064  10.971  0.00  0.00    +0.000 N 
ATOM     11  C   UNL     1      43.172   5.752  10.979  0.00  0.00    +0.000 C 
ATOM     12  C   UNL     1      42.881   4.491  11.832  0.00  0.00    +0.000 C 
ATOM     13  C   UNL     1      42.904   4.793  13.332  0.00  0.00    +0.000 C 
ATOM     14  N   UNL     1      43.726   3.323  11.479  0.00  0.00    +0.000 NA
ATOM     15  H   UNL     1      43.409   3.003  10.562  0.00  0.00    +0.000 HD
ENDBRANCH   1  10
BRANCH   5  16
ATOM     16  C   UNL     1      43.972  10.946  11.386  0.00  0.00    +0.000 C 
ATOM     17  F   UNL     1      42.853  10.949  12.163  0.00  0.00    +0.000 F 
ATOM     18  F   UNL     1      44.626  12.107  11.672  0.00  0.00    +0.000 F 
ATOM     19  F   UNL     1      43.534  11.073  10.102  0.00  0.00    +0.000 F 
ENDBRANCH   5  16
BRANCH   3  20
ATOM     20  C   UNL     1      48.365   8.825  12.708  0.00  0.00    +0.000 C 
BRANCH  20  21
ATOM     21  C   UNL     1      48.927   7.460  13.121  0.00  0.00    +0.000 C 
BRANCH  21  22
ATOM     22  N   UNL     1      49.533   7.518  14.457  0.00  0.00    +0.000 N 
ATOM     23  C   UNL     1      49.062   6.492  15.307  0.00  0.00    +0.000 A 
ATOM     24  C   UNL     1      49.547   6.425  16.610  0.00  0.00    +0.000 A 
ATOM     25  C   UNL     1      49.101   5.414  17.461  0.00  0.00    +0.000 A 
ATOM     26  C   UNL     1      48.183   4.507  16.967  0.00  0.00    +0.000 A 
ATOM     27  N   UNL     1      47.720   4.571  15.700  0.00  0.00    +0.000 NA
ATOM     28  N   UNL     1      48.180   5.563  14.871  0.00  0.00    +0.000 NA
ATOM     29  H   UNL     1      49.382   8.414  14.914  0.00  0.00    +0.000 HD
BRANCH  26  30
ATOM     30  C   UNL     1      47.630   3.416  17.819  0.00  0.00    +0.000 C 
ATOM     31  N   UNL     1      48.325   3.140  18.967  0.00  0.00    +0.000 N 
ATOM     32  O   UNL     1      46.618   2.798  17.513  0.00  0.00    +0.000 OA
ATOM     33  H   UNL     1      49.158   3.663  19.210  0.00  0.00    +0.000 HD
ATOM     34  H   UNL     1      47.992   2.410  19.582  0.00  0.00    +0.000 HD
ENDBRANCH  26  30
ENDBRANCH  21  22
ENDBRANCH  20  21
ENDBRANCH   3  20
TORSDOF 6
ENDMDL
MODEL 4
REMARK VINA RESULT:    -7.269      4.469      7.896
REMARK INTER + INTRA:         -10.867
REMARK INTER:                  -9.519
REMARK INTRA:                  -1.347
REMARK UNBOUND:                -1.048
REMARK  Name = 
REMARK  8 active torsions:
REMARK  status: ('A' for Active; 'I' for Inactive)
REMARK    1  A    between atoms: C_1  and  C_2
REMARK    2  A    between atoms: N_4  and  C_5
REMARK    3  A    between atoms: C_7  and  C_8
REMARK    4  A    between atoms: C_8  and  C_9
REMARK    5  A    between atoms: C_9  and  N_10
REMARK    6  A    between atoms: C_14  and  C_15
REMARK    7  A    between atoms: C_21  and  C_22
REMARK    8  A    between atoms: C_28  and  C_29
REMARK                            x       y       z     vdW  Elec       q    Type
REMARK                         _______ _______ _______ _____ _____    ______ ____
ROOT
ATOM      1  C   UNL     1      46.143   5.037  13.401  0.00  0.00    +0.000 A 
ATOM      2  C   UNL     1      46.678   6.130  12.696  0.00  0.00    +0.000 A 
ATOM      3  C   UNL     1      47.759   6.890  13.183  0.00  0.00    +0.000 A 
ATOM      4  C   UNL     1      48.331   6.549  14.411  0.00  0.00    +0.000 A 
ATOM      5  C   UNL     1      47.831   5.472  15.146  0.00  0.00    +0.000 A 
ATOM      6  C   UNL     1      46.753   4.733  14.627  0.00  0.00    +0.000 A 
ENDROOT
BRANCH   1  10
ATOM      7  C   UNL     1      42.952   6.151  11.395  0.00  0.00    +0.000 C 
ATOM      8  C   UNL     1      42.806   4.751  11.998  0.00  0.00    +0.000 C 
ATOM      9  C   UNL     1      43.680   4.595  13.277  0.00  0.00    +0.000 C 
ATOM     10  N   UNL     1      45.077   4.305  12.923  0.00  0.00    +0.000 N 
ATOM     11  C   UNL     1      45.238   3.153  12.022  0.00  0.00    +0.000 C 
ATOM     12  C   UNL     1      44.403   3.336  10.730  0.00  0.00    +0.000 C 
ATOM     13  C   UNL     1      45.069   4.299   9.745  0.00  0.00    +0.000 C 
ATOM     14  N   UNL     1      42.981   3.681  10.982  0.00  0.00    +0.000 NA
ATOM     15  H   UNL     1      42.544   2.842  11.367  0.00  0.00    +0.000 HD
ENDBRANCH   1  10
BRANCH   5  16
ATOM     16  C   UNL     1      48.405   5.097  16.488  0.00  0.00    +0.000 C 
ATOM     17  F   UNL     1      48.366   3.760  16.746  0.00  0.00    +0.000 F 
ATOM     18  F   UNL     1      49.712   5.462  16.614  0.00  0.00    +0.000 F 
ATOM     19  F   UNL     1      47.751   5.695  17.523  0.00  0.00    +0.000 F 
ENDBRANCH   5  16
BRANCH   3  20
ATOM     20  C   UNL     1      48.238   8.116  12.438  0.00  0.00    +0.000 C 
BRANCH  20  21
ATOM     21  C   UNL     1      47.724   9.395  13.109  0.00  0.00    +0.000 C 
BRANCH  21  22
ATOM     22  N   UNL     1      47.463  10.446  12.117  0.00  0.00    +0.000 N 
ATOM     23  C   UNL     1      46.117  10.462  11.691  0.00  0.00    +0.000 A 
ATOM     24  C   UNL     1      45.723  11.406  10.746  0.00  0.00    +0.000 A 
ATOM     25  C   UNL     1      44.395  11.443  10.319  0.00  0.00    +0.000 A 
ATOM     26  C   UNL     1      43.513  10.528  10.862  0.00  0.00    +0.000 A 
ATOM     27  N   UNL     1      43.897   9.619  11.784  0.00  0.00    +0.000 NA
ATOM     28  N   UNL     1      45.204   9.605  12.203  0.00  0.00    +0.000 NA
ATOM     29  H   UNL     1      48.063  10.366  11.299  0.00  0.00    +0.000 HD
BRANCH  26  30
ATOM     30  C   UNL     1      42.085  10.478  10.437  0.00  0.00    +0.000 C 
ATOM     31  N   UNL     1      41.299   9.561  11.083  0.00  0.00    +0.000 N 
ATOM     32  O   UNL     1      41.639  11.208   9.561  0.00  0.00    +0.000 OA
ATOM     33  H   UNL     1      41.680   8.967  11.810  0.00  0.00    +0.000 HD
ATOM     34  H   UNL     1      40.321   9.486  10.835  0.00  0.00    +0.000 HD
ENDBRANCH  26  30
ENDBRANCH  21  22
ENDBRANCH  20  21
ENDBRANCH   3  20
TORSDOF 6
ENDMDL
MODEL 5
REMARK VINA RESULT:    -6.985      5.107      7.198
REMARK INTER + INTRA:         -10.483
REMARK INTER:                  -9.296
REMARK INTRA:                  -1.187
REMARK UNBOUND:                -1.048
REMARK  Name = 
REMARK  8 active torsions:
REMARK  status: ('A' for Active; 'I' for Inactive)
REMARK    1  A    between atoms: C_1  and  C_2
REMARK    2  A    between atoms: N_4  and  C_5
REMARK    3  A    between atoms: C_7  and  C_8
REMARK    4  A    between atoms: C_8  and  C_9
REMARK    5  A    between atoms: C_9  and  N_10
REMARK    6  A    between atoms: C_14  and  C_15
REMARK    7  A    between atoms: C_21  and  C_22
REMARK    8  A    between atoms: C_28  and  C_29
REMARK                            x       y       z     vdW  Elec       q    Type
REMARK                         _______ _______ _______ _____ _____    ______ ____
ROOT
ATOM      1  C   UNL     1      48.040   7.147  18.225  0.00  0.00    +0.000 A 
ATOM      2  C   UNL     1      48.721   7.254  17.001  0.00  0.00    +0.000 A 
ATOM      3  C   UNL     1      48.988   8.493  16.387  0.00  0.00    +0.000 A 
ATOM      4  C   UNL     1      48.568   9.667  17.016  0.00  0.00    +0.000 A 
ATOM      5  C   UNL     1      47.886   9.609  18.234  0.00  0.00    +0.000 A 
ATOM      6  C   UNL     1      47.640   8.354  18.819  0.00  0.00    +0.000 A 
ENDROOT
BRANCH   1  10
ATOM      7  C   UNL     1      49.756   3.639  17.774  0.00  0.00    +0.000 C 
ATOM      8  C   UNL     1      48.392   3.541  18.465  0.00  0.00    +0.000 C 
ATOM      9  C   UNL     1      47.461   4.716  18.044  0.00  0.00    +0.000 C 
ATOM     10  N   UNL     1      47.772   5.929  18.814  0.00  0.00    +0.000 N 
ATOM     11  C   UNL     1      47.758   5.732  20.272  0.00  0.00    +0.000 C 
ATOM     12  C   UNL     1      48.722   4.593  20.688  0.00  0.00    +0.000 C 
ATOM     13  C   UNL     1      50.184   5.045  20.685  0.00  0.00    +0.000 C 
ATOM     14  N   UNL     1      48.520   3.332  19.930  0.00  0.00    +0.000 NA
ATOM     15  H   UNL     1      47.629   2.944  20.246  0.00  0.00    +0.000 HD
ENDBRANCH   1  10
BRANCH   5  16
ATOM     16  C   UNL     1      47.392  10.854  18.923  0.00  0.00    +0.000 C 
ATOM     17  F   UNL     1      47.057  11.858  18.065  0.00  0.00    +0.000 F 
ATOM     18  F   UNL     1      46.279  10.623  19.677  0.00  0.00    +0.000 F 
ATOM     19  F   UNL     1      48.313  11.384  19.775  0.00  0.00    +0.000 F 
ENDBRANCH   5  16
BRANCH   3  20
ATOM     20  C   UNL     1      49.638   8.555  15.023  0.00  0.00    +0.000 C 
BRANCH  20  21
ATOM     21  C   UNL     1      49.376   7.263  14.238  0.00  0.00    +0.000 C 
BRANCH  21  22
ATOM     22  N   UNL     1      48.542   7.521  13.058  0.00  0.00    +0.000 N 
ATOM     23  C   UNL     1      47.591   6.500  12.838  0.00  0.00    +0.000 A 
ATOM     24  C   UNL     1      46.730   6.608  11.749  0.00  0.00    +0.000 A 
ATOM     25  C   UNL     1      45.778   5.614  11.520  0.00  0.00    +0.000 A 
ATOM     26  C   UNL     1      45.728   4.548  12.398  0.00  0.00    +0.000 A 
ATOM     27  N   UNL     1      46.560   4.451  13.458  0.00  0.00    +0.000 NA
ATOM     28  N   UNL     1      47.481   5.444  13.677  0.00  0.00    +0.000 NA
ATOM     29  H   UNL     1      49.092   7.642  12.211  0.00  0.00    +0.000 HD
BRANCH  26  30
ATOM     30  C   UNL     1      44.764   3.428  12.208  0.00  0.00    +0.000 C 
ATOM     31  N   UNL     1      44.876   2.731  11.034  0.00  0.00    +0.000 N 
ATOM     32  O   UNL     1      43.918   3.146  13.047  0.00  0.00    +0.000 OA
ATOM     33  H   UNL     1      45.585   2.972  10.351  0.00  0.00    +0.000 HD
ATOM     34  H   UNL     1      44.248   1.960  10.855  0.00  0.00    +0.000 HD
ENDBRANCH  26  30
ENDBRANCH  21  22
ENDBRANCH  20  21
ENDBRANCH   3  20
TORSDOF 6
ENDMDL
MODEL 6
REMARK VINA RESULT:    -6.843      6.882      8.705
REMARK INTER + INTRA:         -10.291
REMARK INTER:                  -9.373
REMARK INTRA:                  -0.918
REMARK UNBOUND:                -1.048
REMARK  Name = 
REMARK  8 active torsions:
REMARK  status: ('A' for Active; 'I' for Inactive)
REMARK    1  A    between atoms: C_1  and  C_2
REMARK    2  A    between atoms: N_4  and  C_5
REMARK    3  A    between atoms: C_7  and  C_8
REMARK    4  A    between atoms: C_8  and  C_9
REMARK    5  A    between atoms: C_9  and  N_10
REMARK    6  A    between atoms: C_14  and  C_15
REMARK    7  A    between atoms: C_21  and  C_22
REMARK    8  A    between atoms: C_28  and  C_29
REMARK                            x       y       z     vdW  Elec       q    Type
REMARK                         _______ _______ _______ _____ _____    ______ ____
ROOT
ATOM      1  C   UNL     1      50.220   4.993  19.082  0.00  0.00    +0.000 A 
ATOM      2  C   UNL     1      49.165   4.475  18.311  0.00  0.00    +0.000 A 
ATOM      3  C   UNL     1      49.328   3.376  17.445  0.00  0.00    +0.000 A 
ATOM      4  C   UNL     1      50.582   2.769  17.346  0.00  0.00    +0.000 A 
ATOM      5  C   UNL     1      51.659   3.251  18.092  0.00  0.00    +0.000 A 
ATOM      6  C   UNL     1      51.459   4.348  18.950  0.00  0.00    +0.000 A 
ENDROOT
BRANCH   1  10
ATOM      7  C   UNL     1      47.536   7.865  19.074  0.00  0.00    +0.000 C 
ATOM      8  C   UNL     1      48.751   8.199  19.945  0.00  0.00    +0.000 C 
ATOM      9  C   UNL     1      50.027   7.466  19.438  0.00  0.00    +0.000 C 
ATOM     10  N   UNL     1      50.056   6.076  19.919  0.00  0.00    +0.000 N 
ATOM     11  C   UNL     1      49.908   5.945  21.377  0.00  0.00    +0.000 C 
ATOM     12  C   UNL     1      48.611   6.637  21.868  0.00  0.00    +0.000 C 
ATOM     13  C   UNL     1      47.366   5.793  21.587  0.00  0.00    +0.000 C 
ATOM     14  N   UNL     1      48.463   8.036  21.394  0.00  0.00    +0.000 NA
ATOM     15  H   UNL     1      49.166   8.586  21.892  0.00  0.00    +0.000 HD
ENDBRANCH   1  10
BRANCH   5  16
ATOM     16  C   UNL     1      53.032   2.639  17.986  0.00  0.00    +0.000 C 
ATOM     17  F   UNL     1      53.949   3.451  17.388  0.00  0.00    +0.000 F 
ATOM     18  F   UNL     1      53.555   2.322  19.204  0.00  0.00    +0.000 F 
ATOM     19  F   UNL     1      53.036   1.482  17.267  0.00  0.00    +0.000 F 
ENDBRANCH   5  16
BRANCH   3  20
ATOM     20  C   UNL     1      48.190   2.914  16.562  0.00  0.00    +0.000 C 
BRANCH  20  21
ATOM     21  C   UNL     1      47.127   4.011  16.429  0.00  0.00    +0.000 C 
BRANCH  21  22
ATOM     22  N   UNL     1      47.547   5.043  15.472  0.00  0.00    +0.000 N 
ATOM     23  C   UNL     1      46.814   4.988  14.266  0.00  0.00    +0.000 A 
ATOM     24  C   UNL     1      47.107   5.907  13.261  0.00  0.00    +0.000 A 
ATOM     25  C   UNL     1      46.389   5.875  12.065  0.00  0.00    +0.000 A 
ATOM     26  C   UNL     1      45.401   4.918  11.927  0.00  0.00    +0.000 A 
ATOM     27  N   UNL     1      45.115   4.034  12.907  0.00  0.00    +0.000 NA
ATOM     28  N   UNL     1      45.821   4.088  14.082  0.00  0.00    +0.000 NA
ATOM     29  H   UNL     1      48.539   4.991  15.254  0.00  0.00    +0.000 HD
BRANCH  26  30
ATOM     30  C   UNL     1      44.609   4.794  10.671  0.00  0.00    +0.000 C 
ATOM     31  N   UNL     1      45.250   5.163   9.518  0.00  0.00    +0.000 N 
ATOM     32  O   UNL     1      43.453   4.390  10.665  0.00  0.00    +0.000 OA
ATOM     33  H   UNL     1      46.209   5.490   9.536  0.00  0.00    +0.000 HD
ATOM     34  H   UNL     1      44.759   5.096   8.636  0.00  0.00    +0.000 HD
ENDBRANCH  26  30
ENDBRANCH  21  22
ENDBRANCH  20  21
ENDBRANCH   3  20
TORSDOF 6
ENDMDL
MODEL 7
REMARK VINA RESULT:    -6.807      5.183      7.164
REMARK INTER + INTRA:         -10.243
REMARK INTER:                  -9.037
REMARK INTRA:                  -1.206
REMARK UNBOUND:                -1.048
REMARK  Name = 
REMARK  8 active torsions:
REMARK  status: ('A' for Active; 'I' for Inactive)
REMARK    1  A    between atoms: C_1  and  C_2
REMARK    2  A    between atoms: N_4  and  C_5
REMARK    3  A    between atoms: C_7  and  C_8
REMARK    4  A    between atoms: C_8  and  C_9
REMARK    5  A    between atoms: C_9  and  N_10
REMARK    6  A    between atoms: C_14  and  C_15
REMARK    7  A    between atoms: C_21  and  C_22
REMARK    8  A    between atoms: C_28  and  C_29
REMARK                            x       y       z     vdW  Elec       q    Type
REMARK                         _______ _______ _______ _____ _____    ______ ____
ROOT
ATOM      1  C   UNL     1      49.352   6.334  16.425  0.00  0.00    +0.000 A 
ATOM      2  C   UNL     1      48.703   7.096  15.439  0.00  0.00    +0.000 A 
ATOM      3  C   UNL     1      49.402   7.916  14.532  0.00  0.00    +0.000 A 
ATOM      4  C   UNL     1      50.796   7.977  14.605  0.00  0.00    +0.000 A 
ATOM      5  C   UNL     1      51.482   7.237  15.571  0.00  0.00    +0.000 A 
ATOM      6  C   UNL     1      50.752   6.426  16.458  0.00  0.00    +0.000 A 
ENDROOT
BRANCH   1  10
ATOM      7  C   UNL     1      49.835   2.565  17.429  0.00  0.00    +0.000 C 
ATOM      8  C   UNL     1      48.475   3.119  17.867  0.00  0.00    +0.000 C 
ATOM      9  C   UNL     1      48.014   4.278  16.936  0.00  0.00    +0.000 C 
ATOM     10  N   UNL     1      48.660   5.543  17.318  0.00  0.00    +0.000 N 
ATOM     11  C   UNL     1      48.491   5.897  18.736  0.00  0.00    +0.000 C 
ATOM     12  C   UNL     1      48.996   4.757  19.657  0.00  0.00    +0.000 C 
ATOM     13  C   UNL     1      50.523   4.737  19.763  0.00  0.00    +0.000 C 
ATOM     14  N   UNL     1      48.436   3.424  19.321  0.00  0.00    +0.000 NA
ATOM     15  H   UNL     1      47.449   3.451  19.584  0.00  0.00    +0.000 HD
ENDBRANCH   1  10
BRANCH   5  16
ATOM     16  C   UNL     1      52.983   7.303  15.697  0.00  0.00    +0.000 C 
ATOM     17  F   UNL     1      53.609   7.732  14.566  0.00  0.00    +0.000 F 
ATOM     18  F   UNL     1      53.382   8.150  16.688  0.00  0.00    +0.000 F 
ATOM     19  F   UNL     1      53.538   6.095  15.996  0.00  0.00    +0.000 F 
ENDBRANCH   5  16
BRANCH   3  20
ATOM     20  C   UNL     1      48.656   8.793  13.551  0.00  0.00    +0.000 C 
BRANCH  20  21
ATOM     21  C   UNL     1      47.186   8.368  13.451  0.00  0.00    +0.000 C 
BRANCH  21  22
ATOM     22  N   UNL     1      46.837   7.991  12.075  0.00  0.00    +0.000 N 
ATOM     23  C   UNL     1      46.153   6.757  12.013  0.00  0.00    +0.000 A 
ATOM     24  C   UNL     1      45.760   6.269  10.769  0.00  0.00    +0.000 A 
ATOM     25  C   UNL     1      45.076   5.056  10.688  0.00  0.00    +0.000 A 
ATOM     26  C   UNL     1      44.811   4.380  11.863  0.00  0.00    +0.000 A 
ATOM     27  N   UNL     1      45.186   4.860  13.069  0.00  0.00    +0.000 NA
ATOM     28  N   UNL     1      45.847   6.061  13.133  0.00  0.00    +0.000 NA
ATOM     29  H   UNL     1      47.650   7.944  11.466  0.00  0.00    +0.000 HD
BRANCH  26  30
ATOM     30  C   UNL     1      44.113   3.063  11.863  0.00  0.00    +0.000 C 
ATOM     31  N   UNL     1      44.070   2.406  10.662  0.00  0.00    +0.000 N 
ATOM     32  O   UNL     1      43.605   2.594  12.874  0.00  0.00    +0.000 OA
ATOM     33  H   UNL     1      44.500   2.804   9.835  0.00  0.00    +0.000 HD
ATOM     34  H   UNL     1      43.610   1.507  10.606  0.00  0.00    +0.000 HD
ENDBRANCH  26  30
ENDBRANCH  21  22
ENDBRANCH  20  21
ENDBRANCH   3  20
TORSDOF 6
ENDMDL
MODEL 8
REMARK VINA RESULT:    -6.568      5.232      8.229
REMARK INTER + INTRA:          -9.921
REMARK INTER:                  -9.731
REMARK INTRA:                  -0.190
REMARK UNBOUND:                -1.048
REMARK  Name = 
REMARK  8 active torsions:
REMARK  status: ('A' for Active; 'I' for Inactive)
REMARK    1  A    between atoms: C_1  and  C_2
REMARK    2  A    between atoms: N_4  and  C_5
REMARK    3  A    between atoms: C_7  and  C_8
REMARK    4  A    between atoms: C_8  and  C_9
REMARK    5  A    between atoms: C_9  and  N_10
REMARK    6  A    between atoms: C_14  and  C_15
REMARK    7  A    between atoms: C_21  and  C_22
REMARK    8  A    between atoms: C_28  and  C_29
REMARK                            x       y       z     vdW  Elec       q    Type
REMARK                         _______ _______ _______ _____ _____    ______ ____
ROOT
ATOM      1  C   UNL     1      46.308   5.832  12.115  0.00  0.00    +0.000 A 
ATOM      2  C   UNL     1      46.358   4.865  13.134  0.00  0.00    +0.000 A 
ATOM      3  C   UNL     1      47.308   4.908  14.173  0.00  0.00    +0.000 A 
ATOM      4  C   UNL     1      48.236   5.951  14.204  0.00  0.00    +0.000 A 
ATOM      5  C   UNL     1      48.223   6.934  13.211  0.00  0.00    +0.000 A 
ATOM      6  C   UNL     1      47.259   6.861  12.190  0.00  0.00    +0.000 A 
ENDROOT
BRANCH   1  10
ATOM      7  C   UNL     1      45.436   2.951   9.588  0.00  0.00    +0.000 C 
ATOM      8  C   UNL     1      44.879   4.308   9.146  0.00  0.00    +0.000 C 
ATOM      9  C   UNL     1      45.741   5.479   9.700  0.00  0.00    +0.000 C 
ATOM     10  N   UNL     1      45.383   5.778  11.094  0.00  0.00    +0.000 N 
ATOM     11  C   UNL     1      43.947   6.027  11.302  0.00  0.00    +0.000 C 
ATOM     12  C   UNL     1      43.097   4.836  10.790  0.00  0.00    +0.000 C 
ATOM     13  C   UNL     1      43.113   3.657  11.765  0.00  0.00    +0.000 C 
ATOM     14  N   UNL     1      43.420   4.424   9.401  0.00  0.00    +0.000 NA
ATOM     15  H   UNL     1      43.078   5.170   8.792  0.00  0.00    +0.000 HD
ENDBRANCH   1  10
BRANCH   5  16
ATOM     16  C   UNL     1      49.230   8.055  13.197  0.00  0.00    +0.000 C 
ATOM     17  F   UNL     1      48.829   9.160  13.885  0.00  0.00    +0.000 F 
ATOM     18  F   UNL     1      50.423   7.689  13.746  0.00  0.00    +0.000 F 
ATOM     19  F   UNL     1      49.518   8.485  11.936  0.00  0.00    +0.000 F 
ENDBRANCH   5  16
BRANCH   3  20
ATOM     20  C   UNL     1      47.387   3.793  15.192  0.00  0.00    +0.000 C 
BRANCH  20  21
ATOM     21  C   UNL     1      47.256   4.348  16.615  0.00  0.00    +0.000 C 
BRANCH  21  22
ATOM     22  N   UNL     1      48.513   4.965  17.061  0.00  0.00    +0.000 N 
ATOM     23  C   UNL     1      49.543   4.016  17.243  0.00  0.00    +0.000 A 
ATOM     24  C   UNL     1      50.793   4.456  17.669  0.00  0.00    +0.000 A 
ATOM     25  C   UNL     1      51.826   3.535  17.847  0.00  0.00    +0.000 A 
ATOM     26  C   UNL     1      51.560   2.204  17.588  0.00  0.00    +0.000 A 
ATOM     27  N   UNL     1      50.348   1.781  17.169  0.00  0.00    +0.000 NA
ATOM     28  N   UNL     1      49.347   2.702  16.985  0.00  0.00    +0.000 NA
ATOM     29  H   UNL     1      48.402   5.496  17.921  0.00  0.00    +0.000 HD
BRANCH  26  30
ATOM     30  C   UNL     1      52.597   1.151  17.784  0.00  0.00    +0.000 C 
ATOM     31  N   UNL     1      53.859   1.464  17.354  0.00  0.00    +0.000 N 
ATOM     32  O   UNL     1      52.339   0.069  18.295  0.00  0.00    +0.000 OA
ATOM     33  H   UNL     1      54.060   2.366  16.938  0.00  0.00    +0.000 HD
ATOM     34  H   UNL     1      54.601   0.786  17.464  0.00  0.00    +0.000 HD
ENDBRANCH  26  30
ENDBRANCH  21  22
ENDBRANCH  20  21
ENDBRANCH   3  20
TORSDOF 6
ENDMDL
MODEL 9
REMARK VINA RESULT:    -6.110      7.308      9.335
REMARK INTER + INTRA:          -9.301
REMARK INTER:                  -7.888
REMARK INTRA:                  -1.413
REMARK UNBOUND:                -1.048
REMARK  Name = 
REMARK  8 active torsions:
REMARK  status: ('A' for Active; 'I' for Inactive)
REMARK    1  A    between atoms: C_1  and  C_2
REMARK    2  A    between atoms: N_4  and  C_5
REMARK    3  A    between atoms: C_7  and  C_8
REMARK    4  A    between atoms: C_8  and  C_9
REMARK    5  A    between atoms: C_9  and  N_10
REMARK    6  A    between atoms: C_14  and  C_15
REMARK    7  A    between atoms: C_21  and  C_22
REMARK    8  A    between atoms: C_28  and  C_29
REMARK                            x       y       z     vdW  Elec       q    Type
REMARK                         _______ _______ _______ _____ _____    ______ ____
ROOT
ATOM      1  C   UNL     1      51.885   4.013  18.080  0.00  0.00    +0.000 A 
ATOM      2  C   UNL     1      50.578   3.693  17.676  0.00  0.00    +0.000 A 
ATOM      3  C   UNL     1      50.198   2.390  17.300  0.00  0.00    +0.000 A 
ATOM      4  C   UNL     1      51.150   1.368  17.334  0.00  0.00    +0.000 A 
ATOM      5  C   UNL     1      52.461   1.641  17.729  0.00  0.00    +0.000 A 
ATOM      6  C   UNL     1      52.805   2.953  18.100  0.00  0.00    +0.000 A 
ENDROOT
BRANCH   1  10
ATOM      7  C   UNL     1      52.142   7.299  15.939  0.00  0.00    +0.000 C 
ATOM      8  C   UNL     1      52.870   7.416  17.282  0.00  0.00    +0.000 C 
ATOM      9  C   UNL     1      53.352   6.024  17.784  0.00  0.00    +0.000 C 
ATOM     10  N   UNL     1      52.253   5.294  18.435  0.00  0.00    +0.000 N 
ATOM     11  C   UNL     1      51.588   6.048  19.508  0.00  0.00    +0.000 C 
ATOM     12  C   UNL     1      51.069   7.413  18.990  0.00  0.00    +0.000 C 
ATOM     13  C   UNL     1      49.776   7.269  18.183  0.00  0.00    +0.000 C 
ATOM     14  N   UNL     1      52.096   8.209  18.272  0.00  0.00    +0.000 NA
ATOM     15  H   UNL     1      52.765   8.522  18.978  0.00  0.00    +0.000 HD
ENDBRANCH   1  10
BRANCH   5  16
ATOM     16  C   UNL     1      53.521   0.568  17.747  0.00  0.00    +0.000 C 
ATOM     17  F   UNL     1      54.696   0.969  18.305  0.00  0.00    +0.000 F 
ATOM     18  F   UNL     1      53.132  -0.533  18.450  0.00  0.00    +0.000 F 
ATOM     19  F   UNL     1      53.834   0.120  16.499  0.00  0.00    +0.000 F 
ENDBRANCH   5  16
BRANCH   3  20
ATOM     20  C   UNL     1      48.806   2.112  16.779  0.00  0.00    +0.000 C 
BRANCH  20  21
ATOM     21  C   UNL     1      47.894   3.326  16.990  0.00  0.00    +0.000 C 
BRANCH  21  22
ATOM     22  N   UNL     1      46.971   3.498  15.862  0.00  0.00    +0.000 N 
ATOM     23  C   UNL     1      47.305   4.610  15.057  0.00  0.00    +0.000 A 
ATOM     24  C   UNL     1      46.513   4.898  13.949  0.00  0.00    +0.000 A 
ATOM     25  C   UNL     1      46.833   5.987  13.137  0.00  0.00    +0.000 A 
ATOM     26  C   UNL     1      47.940   6.743  13.471  0.00  0.00    +0.000 A 
ATOM     27  N   UNL     1      48.710   6.456  14.542  0.00  0.00    +0.000 NA
ATOM     28  N   UNL     1      48.390   5.373  15.323  0.00  0.00    +0.000 NA
ATOM     29  H   UNL     1      46.003   3.592  16.161  0.00  0.00    +0.000 HD
BRANCH  26  30
ATOM     30  C   UNL     1      48.332   7.942  12.676  0.00  0.00    +0.000 C 
ATOM     31  N   UNL     1      48.827   7.696  11.423  0.00  0.00    +0.000 N 
ATOM     32  O   UNL     1      48.224   9.080  13.115  0.00  0.00    +0.000 OA
ATOM     33  H   UNL     1      48.905   6.749  11.070  0.00  0.00    +0.000 HD
ATOM     34  H   UNL     1      49.107   8.473  10.840  0.00  0.00    +0.000 HD
ENDBRANCH  26  30
ENDBRANCH  21  22
ENDBRANCH  20  21
ENDBRANCH   3  20
TORSDOF 6
ENDMDL
