MODEL 1
REMARK VINA RESULT:    -7.873      0.000      0.000
REMARK INTER + INTRA:         -12.155
REMARK INTER:                 -11.094
REMARK INTRA:                  -1.061
REMARK UNBOUND:                -1.061
REMARK  Name = 
REMARK  7 active torsions:
REMARK  status: ('A' for Active; 'I' for Inactive)
REMARK    1  A    between atoms: C_2  and  C_4
REMARK    2  A    between atoms: C_7  and  O_8
REMARK    3  A    between atoms: O_8  and  C_9
REMARK    4  A    between atoms: C_9  and  C_10
REMARK    5  A    between atoms: C_10  and  C_11
REMARK    6  A    between atoms: C_15  and  O_16
REMARK    7  A    between atoms: O_16  and  C_17
REMARK                            x       y       z     vdW  Elec       q    Type
REMARK                         _______ _______ _______ _____ _____    ______ ____
ROOT
ATOM      1  C   UNL     1      43.592   4.160  10.793  0.00  0.00    +0.000 C 
ENDROOT
BRANCH   1   2
ATOM      2  O   UNL     1      43.863   2.801  10.419  0.00  0.00    +0.000 OA
BRANCH   2   6
ATOM      3  C   UNL     1      46.491   2.651   7.242  0.00  0.00    +0.000 A 
ATOM      4  C   UNL     1      45.840   3.852   7.541  0.00  0.00    +0.000 A 
ATOM      5  C   UNL     1      44.946   3.893   8.616  0.00  0.00    +0.000 A 
ATOM      6  C   UNL     1      44.741   2.734   9.349  0.00  0.00    +0.000 A 
ATOM      7  N   UNL     1      45.349   1.562   9.069  0.00  0.00    +0.000 NA
ATOM      8  C   UNL     1      46.200   1.542   8.020  0.00  0.00    +0.000 A 
BRANCH   3  10
ATOM      9  N   UNL     1      48.785   2.564   6.444  0.00  0.00    +0.000 N 
ATOM     10  C   UNL     1      47.457   2.490   6.135  0.00  0.00    +0.000 C 
ATOM     11  O   UNL     1      47.087   2.253   4.993  0.00  0.00    +0.000 OA
ATOM     12  H   UNL     1      49.427   2.323   5.699  0.00  0.00    +0.000 HD
ATOM     13  H   UNL     1      49.126   2.490   7.392  0.00  0.00    +0.000 HD
ENDBRANCH   3  10
ENDBRANCH   2   6
ENDBRANCH   1   2
BRANCH   1  14
ATOM     14  C   UNL     1      43.902   4.372  12.275  0.00  0.00    +0.000 C 
BRANCH  14  15
ATOM     15  C   UNL     1      45.261   5.005  12.461  0.00  0.00    +0.000 A 
ATOM     16  C   UNL     1      45.741   5.944  11.540  0.00  0.00    +0.000 A 
ATOM     17  C   UNL     1      46.973   6.569  11.745  0.00  0.00    +0.000 A 
ATOM     18  C   UNL     1      47.742   6.264  12.872  0.00  0.00    +0.000 A 
ATOM     19  C   UNL     1      47.275   5.332  13.794  0.00  0.00    +0.000 A 
ATOM     20  C   UNL     1      46.036   4.714  13.593  0.00  0.00    +0.000 A 
BRANCH  19  21
ATOM     21  O   UNL     1      47.928   4.984  14.952  0.00  0.00    +0.000 OA
BRANCH  21  22
ATOM     22  C   UNL     1      47.267   4.113  15.897  0.00  0.00    +0.000 C 
ATOM     23  C   UNL     1      47.325   4.524  17.387  0.00  0.00    +0.000 C 
ATOM     24  C   UNL     1      47.783   3.104  17.747  0.00  0.00    +0.000 C 
ATOM     25  C   UNL     1      48.088   2.854  16.266  0.00  0.00    +0.000 C 
ENDBRANCH  21  22
ENDBRANCH  19  21
ENDBRANCH  14  15
ENDBRANCH   1  14
TORSDOF 7
ENDMDL
MODEL 2
REMARK VINA RESULT:    -7.042      1.570      1.839
REMARK INTER + INTRA:         -10.984
REMARK INTER:                 -10.007
REMARK INTRA:                  -0.977
REMARK UNBOUND:                -1.061
REMARK  Name = 
REMARK  7 active torsions:
REMARK  status: ('A' for Active; 'I' for Inactive)
REMARK    1  A    between atoms: C_2  and  C_4
REMARK    2  A    between atoms: C_7  and  O_8
REMARK    3  A    between atoms: O_8  and  C_9
REMARK    4  A    between atoms: C_9  and  C_10
REMARK    5  A    between atoms: C_10  and  C_11
REMARK    6  A    between atoms: C_15  and  O_16
REMARK    7  A    between atoms: O_16  and  C_17
REMARK                            x       y       z     vdW  Elec       q    Type
REMARK                         _______ _______ _______ _____ _____    ______ ____
ROOT
ATOM      1  C   UNL     1      44.009   3.473  11.951  0.00  0.00    +0.000 C 
ENDROOT
BRANCH   1   2
ATOM      2  O   UNL     1      43.422   3.320  10.650  0.00  0.00    +0.000 OA
BRANCH   2   6
ATOM      3  C   UNL     1      46.322   2.789   7.764  0.00  0.00    +0.000 A 
ATOM      4  C   UNL     1      45.845   4.075   8.032  0.00  0.00    +0.000 A 
ATOM      5  C   UNL     1      44.858   4.246   9.008  0.00  0.00    +0.000 A 
ATOM      6  C   UNL     1      44.389   3.126   9.676  0.00  0.00    +0.000 A 
ATOM      7  N   UNL     1      44.826   1.874   9.424  0.00  0.00    +0.000 NA
ATOM      8  C   UNL     1      45.772   1.731   8.470  0.00  0.00    +0.000 A 
BRANCH   3  10
ATOM      9  N   UNL     1      47.293   3.147   5.565  0.00  0.00    +0.000 N 
ATOM     10  C   UNL     1      47.363   2.488   6.760  0.00  0.00    +0.000 C 
ATOM     11  O   UNL     1      48.282   1.716   7.001  0.00  0.00    +0.000 OA
ATOM     12  H   UNL     1      48.084   3.024   4.945  0.00  0.00    +0.000 HD
ATOM     13  H   UNL     1      46.723   3.970   5.433  0.00  0.00    +0.000 HD
ENDBRANCH   3  10
ENDBRANCH   2   6
ENDBRANCH   1   2
BRANCH   1  14
ATOM     14  C   UNL     1      43.660   4.844  12.531  0.00  0.00    +0.000 C 
BRANCH  14  15
ATOM     15  C   UNL     1      44.865   5.754  12.537  0.00  0.00    +0.000 A 
ATOM     16  C   UNL     1      44.829   6.988  11.875  0.00  0.00    +0.000 A 
ATOM     17  C   UNL     1      45.926   7.852  11.931  0.00  0.00    +0.000 A 
ATOM     18  C   UNL     1      47.071   7.495  12.647  0.00  0.00    +0.000 A 
ATOM     19  C   UNL     1      47.119   6.271  13.308  0.00  0.00    +0.000 A 
ATOM     20  C   UNL     1      46.016   5.411  13.261  0.00  0.00    +0.000 A 
BRANCH  19  21
ATOM     21  O   UNL     1      48.176   5.836  14.071  0.00  0.00    +0.000 OA
BRANCH  21  22
ATOM     22  C   UNL     1      48.576   6.608  15.224  0.00  0.00    +0.000 C 
ATOM     23  C   UNL     1      50.077   6.961  15.344  0.00  0.00    +0.000 C 
ATOM     24  C   UNL     1      50.067   6.454  16.792  0.00  0.00    +0.000 C 
ATOM     25  C   UNL     1      48.723   5.772  16.518  0.00  0.00    +0.000 C 
ENDBRANCH  21  22
ENDBRANCH  19  21
ENDBRANCH  14  15
ENDBRANCH   1  14
TORSDOF 7
ENDMDL
MODEL 3
REMARK VINA RESULT:    -7.029      2.013      3.597
REMARK INTER + INTRA:         -10.967
REMARK INTER:                 -10.146
REMARK INTRA:                  -0.820
REMARK UNBOUND:                -1.061
REMARK  Name = 
REMARK  7 active torsions:
REMARK  status: ('A' for Active; 'I' for Inactive)
REMARK    1  A    between atoms: C_2  and  C_4
REMARK    2  A    between atoms: C_7  and  O_8
REMARK    3  A    between atoms: O_8  and  C_9
REMARK    4  A    between atoms: C_9  and  C_10
REMARK    5  A    between atoms: C_10  and  C_11
REMARK    6  A    between atoms: C_15  and  O_16
REMARK    7  A    between atoms: O_16  and  C_17
REMARK                            x       y       z     vdW  Elec       q    Type
REMARK                         _______ _______ _______ _____ _____    ______ ____
ROOT
ATOM      1  C   UNL     1      43.228   3.801  11.283  0.00  0.00    +0.000 C 
ENDROOT
BRANCH   1   2
ATOM      2  O   UNL     1      43.684   4.536  10.137  0.00  0.00    +0.000 OA
BRANCH   2   6
ATOM      3  C   UNL     1      46.350   2.356   7.865  0.00  0.00    +0.000 A 
ATOM      4  C   UNL     1      46.260   3.739   7.684  0.00  0.00    +0.000 A 
ATOM      5  C   UNL     1      45.351   4.470   8.454  0.00  0.00    +0.000 A 
ATOM      6  C   UNL     1      44.568   3.790   9.374  0.00  0.00    +0.000 A 
ATOM      7  N   UNL     1      44.629   2.454   9.556  0.00  0.00    +0.000 NA
ATOM      8  C   UNL     1      45.507   1.766   8.794  0.00  0.00    +0.000 A 
BRANCH   3  10
ATOM      9  N   UNL     1      48.409   2.055   6.611  0.00  0.00    +0.000 N 
ATOM     10  C   UNL     1      47.275   1.483   7.113  0.00  0.00    +0.000 C 
ATOM     11  O   UNL     1      47.062   0.285   6.983  0.00  0.00    +0.000 OA
ATOM     12  H   UNL     1      49.088   1.417   6.214  0.00  0.00    +0.000 HD
ATOM     13  H   UNL     1      48.745   2.956   6.921  0.00  0.00    +0.000 HD
ENDBRANCH   3  10
ENDBRANCH   2   6
ENDBRANCH   1   2
BRANCH   1  14
ATOM     14  C   UNL     1      43.248   4.692  12.525  0.00  0.00    +0.000 C 
BRANCH  14  15
ATOM     15  C   UNL     1      44.651   5.163  12.831  0.00  0.00    +0.000 A 
ATOM     16  C   UNL     1      45.563   4.315  13.472  0.00  0.00    +0.000 A 
ATOM     17  C   UNL     1      46.875   4.735  13.702  0.00  0.00    +0.000 A 
ATOM     18  C   UNL     1      47.293   6.005  13.296  0.00  0.00    +0.000 A 
ATOM     19  C   UNL     1      46.395   6.856  12.659  0.00  0.00    +0.000 A 
ATOM     20  C   UNL     1      45.084   6.432  12.419  0.00  0.00    +0.000 A 
BRANCH  19  21
ATOM     21  O   UNL     1      46.707   8.108  12.186  0.00  0.00    +0.000 OA
BRANCH  21  22
ATOM     22  C   UNL     1      47.994   8.680  12.508  0.00  0.00    +0.000 C 
ATOM     23  C   UNL     1      48.190  10.182  12.196  0.00  0.00    +0.000 C 
ATOM     24  C   UNL     1      49.507   9.849  11.483  0.00  0.00    +0.000 C 
ATOM     25  C   UNL     1      49.095   8.374  11.463  0.00  0.00    +0.000 C 
ENDBRANCH  21  22
ENDBRANCH  19  21
ENDBRANCH  14  15
ENDBRANCH   1  14
TORSDOF 7
ENDMDL
MODEL 4
REMARK VINA RESULT:    -6.759      2.732      3.427
REMARK INTER + INTRA:         -10.586
REMARK INTER:                  -9.982
REMARK INTRA:                  -0.604
REMARK UNBOUND:                -1.061
REMARK  Name = 
REMARK  7 active torsions:
REMARK  status: ('A' for Active; 'I' for Inactive)
REMARK    1  A    between atoms: C_2  and  C_4
REMARK    2  A    between atoms: C_7  and  O_8
REMARK    3  A    between atoms: O_8  and  C_9
REMARK    4  A    between atoms: C_9  and  C_10
REMARK    5  A    between atoms: C_10  and  C_11
REMARK    6  A    between atoms: C_15  and  O_16
REMARK    7  A    between atoms: O_16  and  C_17
REMARK                            x       y       z     vdW  Elec       q    Type
REMARK                         _______ _______ _______ _____ _____    ______ ____
ROOT
ATOM      1  C   UNL     1      44.388   4.881  11.010  0.00  0.00    +0.000 C 
ENDROOT
BRANCH   1   2
ATOM      2  O   UNL     1      43.802   4.374   9.801  0.00  0.00    +0.000 OA
BRANCH   2   6
ATOM      3  C   UNL     1      46.567   2.391   7.467  0.00  0.00    +0.000 A 
ATOM      4  C   UNL     1      45.868   1.688   8.453  0.00  0.00    +0.000 A 
ATOM      5  C   UNL     1      44.936   2.369   9.243  0.00  0.00    +0.000 A 
ATOM      6  C   UNL     1      44.741   3.722   9.017  0.00  0.00    +0.000 A 
ATOM      7  N   UNL     1      45.415   4.422   8.080  0.00  0.00    +0.000 NA
ATOM      8  C   UNL     1      46.318   3.747   7.335  0.00  0.00    +0.000 A 
BRANCH   3  10
ATOM      9  N   UNL     1      48.739   2.457   6.380  0.00  0.00    +0.000 N 
ATOM     10  C   UNL     1      47.570   1.778   6.572  0.00  0.00    +0.000 C 
ATOM     11  O   UNL     1      47.385   0.682   6.059  0.00  0.00    +0.000 OA
ATOM     12  H   UNL     1      49.460   1.961   5.870  0.00  0.00    +0.000 HD
ATOM     13  H   UNL     1      49.033   3.212   6.983  0.00  0.00    +0.000 HD
ENDBRANCH   3  10
ENDBRANCH   2   6
ENDBRANCH   1   2
BRANCH   1  14
ATOM     14  C   UNL     1      43.711   6.191  11.415  0.00  0.00    +0.000 C 
BRANCH  14  15
ATOM     15  C   UNL     1      44.734   7.238  11.788  0.00  0.00    +0.000 A 
ATOM     16  C   UNL     1      44.524   8.585  11.465  0.00  0.00    +0.000 A 
ATOM     17  C   UNL     1      45.445   9.557  11.862  0.00  0.00    +0.000 A 
ATOM     18  C   UNL     1      46.585   9.198  12.585  0.00  0.00    +0.000 A 
ATOM     19  C   UNL     1      46.804   7.863  12.911  0.00  0.00    +0.000 A 
ATOM     20  C   UNL     1      45.877   6.890  12.523  0.00  0.00    +0.000 A 
BRANCH  19  21
ATOM     21  O   UNL     1      47.869   7.403  13.648  0.00  0.00    +0.000 OA
BRANCH  21  22
ATOM     22  C   UNL     1      49.129   7.159  12.986  0.00  0.00    +0.000 C 
ATOM     23  C   UNL     1      50.250   8.202  13.206  0.00  0.00    +0.000 C 
ATOM     24  C   UNL     1      50.476   8.261  11.690  0.00  0.00    +0.000 C 
ATOM     25  C   UNL     1      49.135   7.547  11.487  0.00  0.00    +0.000 C 
ENDBRANCH  21  22
ENDBRANCH  19  21
ENDBRANCH  14  15
ENDBRANCH   1  14
TORSDOF 7
ENDMDL
MODEL 5
REMARK VINA RESULT:    -6.759      3.441      8.192
REMARK INTER + INTRA:         -10.586
REMARK INTER:                  -9.919
REMARK INTRA:                  -0.667
REMARK UNBOUND:                -1.061
REMARK  Name = 
REMARK  7 active torsions:
REMARK  status: ('A' for Active; 'I' for Inactive)
REMARK    1  A    between atoms: C_2  and  C_4
REMARK    2  A    between atoms: C_7  and  O_8
REMARK    3  A    between atoms: O_8  and  C_9
REMARK    4  A    between atoms: C_9  and  C_10
REMARK    5  A    between atoms: C_10  and  C_11
REMARK    6  A    between atoms: C_15  and  O_16
REMARK    7  A    between atoms: O_16  and  C_17
REMARK                            x       y       z     vdW  Elec       q    Type
REMARK                         _______ _______ _______ _____ _____    ______ ____
ROOT
ATOM      1  C   UNL     1      46.818   3.841  14.395  0.00  0.00    +0.000 C 
ENDROOT
BRANCH   1   2
ATOM      2  O   UNL     1      46.903   3.948  15.824  0.00  0.00    +0.000 OA
BRANCH   2   6
ATOM      3  C   UNL     1      50.439   2.413  17.294  0.00  0.00    +0.000 A 
ATOM      4  C   UNL     1      49.991   3.659  17.742  0.00  0.00    +0.000 A 
ATOM      5  C   UNL     1      48.794   4.175  17.235  0.00  0.00    +0.000 A 
ATOM      6  C   UNL     1      48.095   3.425  16.302  0.00  0.00    +0.000 A 
ATOM      7  N   UNL     1      48.516   2.227  15.846  0.00  0.00    +0.000 NA
ATOM      8  C   UNL     1      49.681   1.752  16.342  0.00  0.00    +0.000 A 
BRANCH   3  10
ATOM      9  N   UNL     1      51.636   0.430  18.028  0.00  0.00    +0.000 N 
ATOM     10  C   UNL     1      51.684   1.768  17.761  0.00  0.00    +0.000 C 
ATOM     11  O   UNL     1      52.731   2.394  17.861  0.00  0.00    +0.000 OA
ATOM     12  H   UNL     1      52.525  -0.016  18.220  0.00  0.00    +0.000 HD
ATOM     13  H   UNL     1      50.882  -0.160  17.707  0.00  0.00    +0.000 HD
ENDBRANCH   3  10
ENDBRANCH   2   6
ENDBRANCH   1   2
BRANCH   1  14
ATOM     14  C   UNL     1      46.407   5.183  13.788  0.00  0.00    +0.000 C 
BRANCH  14  15
ATOM     15  C   UNL     1      45.399   4.991  12.680  0.00  0.00    +0.000 A 
ATOM     16  C   UNL     1      44.039   4.832  12.973  0.00  0.00    +0.000 A 
ATOM     17  C   UNL     1      43.103   4.713  11.943  0.00  0.00    +0.000 A 
ATOM     18  C   UNL     1      43.513   4.750  10.608  0.00  0.00    +0.000 A 
ATOM     19  C   UNL     1      44.861   4.907  10.304  0.00  0.00    +0.000 A 
ATOM     20  C   UNL     1      45.797   5.037  11.336  0.00  0.00    +0.000 A 
BRANCH  19  21
ATOM     21  O   UNL     1      45.370   4.994   9.030  0.00  0.00    +0.000 OA
BRANCH  21  22
ATOM     22  C   UNL     1      45.277   3.847   8.156  0.00  0.00    +0.000 C 
ATOM     23  C   UNL     1      45.524   2.460   8.794  0.00  0.00    +0.000 C 
ATOM     24  C   UNL     1      46.508   2.130   7.663  0.00  0.00    +0.000 C 
ATOM     25  C   UNL     1      46.540   3.616   7.291  0.00  0.00    +0.000 C 
ENDBRANCH  21  22
ENDBRANCH  19  21
ENDBRANCH  14  15
ENDBRANCH   1  14
TORSDOF 7
ENDMDL
MODEL 6
REMARK VINA RESULT:    -6.651      3.308      8.348
REMARK INTER + INTRA:         -10.433
REMARK INTER:                  -9.729
REMARK INTRA:                  -0.704
REMARK UNBOUND:                -1.061
REMARK  Name = 
REMARK  7 active torsions:
REMARK  status: ('A' for Active; 'I' for Inactive)
REMARK    1  A    between atoms: C_2  and  C_4
REMARK    2  A    between atoms: C_7  and  O_8
REMARK    3  A    between atoms: O_8  and  C_9
REMARK    4  A    between atoms: C_9  and  C_10
REMARK    5  A    between atoms: C_10  and  C_11
REMARK    6  A    between atoms: C_15  and  O_16
REMARK    7  A    between atoms: O_16  and  C_17
REMARK                            x       y       z     vdW  Elec       q    Type
REMARK                         _______ _______ _______ _____ _____    ______ ____
ROOT
ATOM      1  C   UNL     1      47.446   6.313  13.022  0.00  0.00    +0.000 C 
ENDROOT
BRANCH   1   2
ATOM      2  O   UNL     1      47.395   4.966  13.515  0.00  0.00    +0.000 OA
BRANCH   2   6
ATOM      3  C   UNL     1      48.123   4.757  17.571  0.00  0.00    +0.000 A 
ATOM      4  C   UNL     1      47.218   3.866  16.987  0.00  0.00    +0.000 A 
ATOM      5  C   UNL     1      46.973   3.946  15.613  0.00  0.00    +0.000 A 
ATOM      6  C   UNL     1      47.642   4.913  14.878  0.00  0.00    +0.000 A 
ATOM      7  N   UNL     1      48.508   5.792  15.423  0.00  0.00    +0.000 NA
ATOM      8  C   UNL     1      48.723   5.703  16.755  0.00  0.00    +0.000 A 
BRANCH   3  10
ATOM      9  N   UNL     1      48.538   3.555  19.641  0.00  0.00    +0.000 N 
ATOM     10  C   UNL     1      48.463   4.763  19.008  0.00  0.00    +0.000 C 
ATOM     11  O   UNL     1      48.716   5.803  19.603  0.00  0.00    +0.000 OA
ATOM     12  H   UNL     1      48.898   3.573  20.588  0.00  0.00    +0.000 HD
ATOM     13  H   UNL     1      48.602   2.682  19.137  0.00  0.00    +0.000 HD
ENDBRANCH   3  10
ENDBRANCH   2   6
ENDBRANCH   1   2
BRANCH   1  14
ATOM     14  C   UNL     1      46.035   6.825  12.738  0.00  0.00    +0.000 C 
BRANCH  14  15
ATOM     15  C   UNL     1      45.308   5.910  11.780  0.00  0.00    +0.000 A 
ATOM     16  C   UNL     1      44.090   5.322  12.144  0.00  0.00    +0.000 A 
ATOM     17  C   UNL     1      43.393   4.523  11.235  0.00  0.00    +0.000 A 
ATOM     18  C   UNL     1      43.903   4.300   9.953  0.00  0.00    +0.000 A 
ATOM     19  C   UNL     1      45.112   4.880   9.581  0.00  0.00    +0.000 A 
ATOM     20  C   UNL     1      45.805   5.689  10.487  0.00  0.00    +0.000 A 
BRANCH  19  21
ATOM     21  O   UNL     1      45.685   4.760   8.338  0.00  0.00    +0.000 OA
BRANCH  21  22
ATOM     22  C   UNL     1      45.594   3.498   7.640  0.00  0.00    +0.000 C 
ATOM     23  C   UNL     1      45.976   2.228   8.437  0.00  0.00    +0.000 C 
ATOM     24  C   UNL     1      46.884   1.792   7.280  0.00  0.00    +0.000 C 
ATOM     25  C   UNL     1      46.794   3.210   6.707  0.00  0.00    +0.000 C 
ENDBRANCH  21  22
ENDBRANCH  19  21
ENDBRANCH  14  15
ENDBRANCH   1  14
TORSDOF 7
ENDMDL
MODEL 7
REMARK VINA RESULT:    -5.969      3.571      7.727
REMARK INTER + INTRA:          -9.472
REMARK INTER:                  -8.914
REMARK INTRA:                  -0.558
REMARK UNBOUND:                -1.061
REMARK  Name = 
REMARK  7 active torsions:
REMARK  status: ('A' for Active; 'I' for Inactive)
REMARK    1  A    between atoms: C_2  and  C_4
REMARK    2  A    between atoms: C_7  and  O_8
REMARK    3  A    between atoms: O_8  and  C_9
REMARK    4  A    between atoms: C_9  and  C_10
REMARK    5  A    between atoms: C_10  and  C_11
REMARK    6  A    between atoms: C_15  and  O_16
REMARK    7  A    between atoms: O_16  and  C_17
REMARK                            x       y       z     vdW  Elec       q    Type
REMARK                         _______ _______ _______ _____ _____    ______ ____
ROOT
ATOM      1  C   UNL     1      45.575   6.215  12.757  0.00  0.00    +0.000 C 
ENDROOT
BRANCH   1   2
ATOM      2  O   UNL     1      46.829   5.518  12.759  0.00  0.00    +0.000 OA
BRANCH   2   6
ATOM      3  C   UNL     1      49.978   8.152  13.173  0.00  0.00    +0.000 A 
ATOM      4  C   UNL     1      49.271   8.108  11.968  0.00  0.00    +0.000 A 
ATOM      5  C   UNL     1      48.208   7.209  11.834  0.00  0.00    +0.000 A 
ATOM      6  C   UNL     1      47.895   6.391  12.909  0.00  0.00    +0.000 A 
ATOM      7  N   UNL     1      48.573   6.407  14.076  0.00  0.00    +0.000 NA
ATOM      8  C   UNL     1      49.603   7.277  14.180  0.00  0.00    +0.000 A 
BRANCH   3  10
ATOM      9  N   UNL     1      51.485   9.250  14.731  0.00  0.00    +0.000 N 
ATOM     10  C   UNL     1      51.113   9.062  13.430  0.00  0.00    +0.000 C 
ATOM     11  O   UNL     1      51.731   9.590  12.515  0.00  0.00    +0.000 OA
ATOM     12  H   UNL     1      52.341   9.771  14.876  0.00  0.00    +0.000 HD
ATOM     13  H   UNL     1      51.183   8.638  15.475  0.00  0.00    +0.000 HD
ENDBRANCH   3  10
ENDBRANCH   2   6
ENDBRANCH   1   2
BRANCH   1  14
ATOM     14  C   UNL     1      45.050   6.353  11.328  0.00  0.00    +0.000 C 
BRANCH  14  15
ATOM     15  C   UNL     1      44.841   4.998  10.693  0.00  0.00    +0.000 A 
ATOM     16  C   UNL     1      44.239   3.959  11.414  0.00  0.00    +0.000 A 
ATOM     17  C   UNL     1      43.996   2.725  10.806  0.00  0.00    +0.000 A 
ATOM     18  C   UNL     1      44.351   2.513   9.471  0.00  0.00    +0.000 A 
ATOM     19  C   UNL     1      44.949   3.539   8.745  0.00  0.00    +0.000 A 
ATOM     20  C   UNL     1      45.183   4.777   9.351  0.00  0.00    +0.000 A 
BRANCH  19  21
ATOM     21  O   UNL     1      45.304   3.453   7.420  0.00  0.00    +0.000 OA
BRANCH  21  22
ATOM     22  C   UNL     1      46.665   3.111   7.077  0.00  0.00    +0.000 C 
ATOM     23  C   UNL     1      46.965   2.847   5.583  0.00  0.00    +0.000 C 
ATOM     24  C   UNL     1      47.670   1.540   5.969  0.00  0.00    +0.000 C 
ATOM     25  C   UNL     1      47.028   1.632   7.357  0.00  0.00    +0.000 C 
ENDBRANCH  21  22
ENDBRANCH  19  21
ENDBRANCH  14  15
ENDBRANCH   1  14
TORSDOF 7
ENDMDL
MODEL 8
REMARK VINA RESULT:    -5.926      4.016      7.745
REMARK INTER + INTRA:          -9.411
REMARK INTER:                  -8.479
REMARK INTRA:                  -0.932
REMARK UNBOUND:                -1.061
REMARK  Name = 
REMARK  7 active torsions:
REMARK  status: ('A' for Active; 'I' for Inactive)
REMARK    1  A    between atoms: C_2  and  C_4
REMARK    2  A    between atoms: C_7  and  O_8
REMARK    3  A    between atoms: O_8  and  C_9
REMARK    4  A    between atoms: C_9  and  C_10
REMARK    5  A    between atoms: C_10  and  C_11
REMARK    6  A    between atoms: C_15  and  O_16
REMARK    7  A    between atoms: O_16  and  C_17
REMARK                            x       y       z     vdW  Elec       q    Type
REMARK                         _______ _______ _______ _____ _____    ______ ____
ROOT
ATOM      1  C   UNL     1      49.358   7.277  13.157  0.00  0.00    +0.000 C 
ENDROOT
BRANCH   1   2
ATOM      2  O   UNL     1      49.626   7.542  14.542  0.00  0.00    +0.000 OA
BRANCH   2   6
ATOM      3  C   UNL     1      48.228   4.541  17.004  0.00  0.00    +0.000 A 
ATOM      4  C   UNL     1      49.293   5.340  17.430  0.00  0.00    +0.000 A 
ATOM      5  C   UNL     1      49.765   6.351  16.587  0.00  0.00    +0.000 A 
ATOM      6  C   UNL     1      49.153   6.523  15.355  0.00  0.00    +0.000 A 
ATOM      7  N   UNL     1      48.133   5.755  14.919  0.00  0.00    +0.000 NA
ATOM      8  C   UNL     1      47.700   4.776  15.745  0.00  0.00    +0.000 A 
BRANCH   3  10
ATOM      9  N   UNL     1      48.288   3.107  18.965  0.00  0.00    +0.000 N 
ATOM     10  C   UNL     1      47.645   3.447  17.809  0.00  0.00    +0.000 C 
ATOM     11  O   UNL     1      46.601   2.897  17.482  0.00  0.00    +0.000 OA
ATOM     12  H   UNL     1      47.803   2.448  19.563  0.00  0.00    +0.000 HD
ATOM     13  H   UNL     1      48.980   3.702  19.396  0.00  0.00    +0.000 HD
ENDBRANCH   3  10
ENDBRANCH   2   6
ENDBRANCH   1   2
BRANCH   1  14
ATOM     14  C   UNL     1      48.778   8.521  12.485  0.00  0.00    +0.000 C 
BRANCH  14  15
ATOM     15  C   UNL     1      47.313   8.333  12.168  0.00  0.00    +0.000 A 
ATOM     16  C   UNL     1      46.437   9.426  12.178  0.00  0.00    +0.000 A 
ATOM     17  C   UNL     1      45.095   9.258  11.828  0.00  0.00    +0.000 A 
ATOM     18  C   UNL     1      44.610   7.999  11.466  0.00  0.00    +0.000 A 
ATOM     19  C   UNL     1      45.472   6.906  11.452  0.00  0.00    +0.000 A 
ATOM     20  C   UNL     1      46.818   7.076  11.792  0.00  0.00    +0.000 A 
BRANCH  19  21
ATOM     21  O   UNL     1      45.113   5.633  11.077  0.00  0.00    +0.000 OA
BRANCH  21  22
ATOM     22  C   UNL     1      44.394   4.800  12.013  0.00  0.00    +0.000 C 
ATOM     23  C   UNL     1      44.906   3.353  12.198  0.00  0.00    +0.000 C 
ATOM     24  C   UNL     1      43.475   2.836  12.001  0.00  0.00    +0.000 C 
ATOM     25  C   UNL     1      43.082   4.208  11.445  0.00  0.00    +0.000 C 
ENDBRANCH  21  22
ENDBRANCH  19  21
ENDBRANCH  14  15
ENDBRANCH   1  14
TORSDOF 7
ENDMDL
MODEL 9
REMARK VINA RESULT:    -5.849      2.396      4.124
REMARK INTER + INTRA:          -9.304
REMARK INTER:                  -8.665
REMARK INTRA:                  -0.638
REMARK UNBOUND:                -1.061
REMARK  Name = 
REMARK  7 active torsions:
REMARK  status: ('A' for Active; 'I' for Inactive)
REMARK    1  A    between atoms: C_2  and  C_4
REMARK    2  A    between atoms: C_7  and  O_8
REMARK    3  A    between atoms: O_8  and  C_9
REMARK    4  A    between atoms: C_9  and  C_10
REMARK    5  A    between atoms: C_10  and  C_11
REMARK    6  A    between atoms: C_15  and  O_16
REMARK    7  A    between atoms: O_16  and  C_17
REMARK                            x       y       z     vdW  Elec       q    Type
REMARK                         _______ _______ _______ _____ _____    ______ ____
ROOT
ATOM      1  C   UNL     1      45.181   5.525  10.846  0.00  0.00    +0.000 C 
ENDROOT
BRANCH   1   2
ATOM      2  O   UNL     1      44.525   4.360  10.324  0.00  0.00    +0.000 OA
BRANCH   2   6
ATOM      3  C   UNL     1      46.536   2.749   7.101  0.00  0.00    +0.000 A 
ATOM      4  C   UNL     1      46.025   1.901   8.088  0.00  0.00    +0.000 A 
ATOM      5  C   UNL     1      45.349   2.455   9.180  0.00  0.00    +0.000 A 
ATOM      6  C   UNL     1      45.211   3.833   9.241  0.00  0.00    +0.000 A 
ATOM      7  N   UNL     1      45.708   4.671   8.307  0.00  0.00    +0.000 NA
ATOM      8  C   UNL     1      46.367   4.114   7.266  0.00  0.00    +0.000 A 
BRANCH   3  10
ATOM      9  N   UNL     1      48.555   1.871   6.074  0.00  0.00    +0.000 N 
ATOM     10  C   UNL     1      47.263   2.278   5.904  0.00  0.00    +0.000 C 
ATOM     11  O   UNL     1      46.717   2.207   4.811  0.00  0.00    +0.000 OA
ATOM     12  H   UNL     1      48.990   1.433   5.271  0.00  0.00    +0.000 HD
ATOM     13  H   UNL     1      48.943   1.663   6.983  0.00  0.00    +0.000 HD
ENDBRANCH   3  10
ENDBRANCH   2   6
ENDBRANCH   1   2
BRANCH   1  14
ATOM     14  C   UNL     1      45.397   5.378  12.352  0.00  0.00    +0.000 C 
BRANCH  14  15
ATOM     15  C   UNL     1      46.662   6.079  12.790  0.00  0.00    +0.000 A 
ATOM     16  C   UNL     1      47.230   5.807  14.041  0.00  0.00    +0.000 A 
ATOM     17  C   UNL     1      48.430   6.414  14.419  0.00  0.00    +0.000 A 
ATOM     18  C   UNL     1      49.077   7.300  13.553  0.00  0.00    +0.000 A 
ATOM     19  C   UNL     1      48.523   7.577  12.307  0.00  0.00    +0.000 A 
ATOM     20  C   UNL     1      47.326   6.961  11.925  0.00  0.00    +0.000 A 
BRANCH  19  21
ATOM     21  O   UNL     1      49.091   8.400  11.365  0.00  0.00    +0.000 OA
BRANCH  21  22
ATOM     22  C   UNL     1      48.827   9.819  11.420  0.00  0.00    +0.000 C 
ATOM     23  C   UNL     1      49.786  10.677  12.277  0.00  0.00    +0.000 C 
ATOM     24  C   UNL     1      48.574  11.323  12.962  0.00  0.00    +0.000 C 
ATOM     25  C   UNL     1      47.690  10.207  12.396  0.00  0.00    +0.000 C 
ENDBRANCH  21  22
ENDBRANCH  19  21
ENDBRANCH  14  15
ENDBRANCH   1  14
TORSDOF 7
ENDMDL
