MODEL 1
REMARK VINA RESULT:    -7.575      0.000      0.000
REMARK INTER + INTRA:          -9.484
REMARK INTER:                  -9.347
REMARK INTRA:                  -0.137
REMARK UNBOUND:                -0.137
REMARK  Name = 
REMARK  4 active torsions:
REMARK  status: ('A' for Active; 'I' for Inactive)
REMARK    1  A    between atoms: C_2  and  C_3
REMARK    2  A    between atoms: C_8  and  N_9
REMARK    3  A    between atoms: N_9  and  C_10
REMARK    4  A    between atoms: C_10  and  C_11
REMARK                            x       y       z     vdW  Elec       q    Type
REMARK                         _______ _______ _______ _____ _____    ______ ____
ROOT
ATOM      1  C   UNL     1      46.061   5.848  12.410  0.00  0.00    +0.000 A 
ATOM      2  C   UNL     1      46.964   6.736  11.835  0.00  0.00    +0.000 A 
ATOM      3  C   UNL     1      48.127   7.017  12.528  0.00  0.00    +0.000 A 
ATOM      4  N   UNL     1      48.447   6.475  13.726  0.00  0.00    +0.000 NA
ATOM      5  C   UNL     1      47.602   5.576  14.274  0.00  0.00    +0.000 A 
ATOM      6  N   UNL     1      47.894   5.056  15.511  0.00  0.00    +0.000 N 
ATOM      7  C   UNL     1      47.521   3.707  15.930  0.00  0.00    +0.000 C 
ATOM      8  C   UNL     1      46.902   3.772  17.343  0.00  0.00    +0.000 C 
ATOM      9  N   UNL     1      47.785   4.419  18.338  0.00  0.00    +0.000 NA
ATOM     10  C   UNL     1      48.171   5.764  17.841  0.00  0.00    +0.000 C 
ATOM     11  C   UNL     1      48.797   5.763  16.420  0.00  0.00    +0.000 C 
ATOM     12  C   UNL     1      46.411   5.247  13.623  0.00  0.00    +0.000 A 
ATOM     13  H   UNL     1      48.635   3.862  18.412  0.00  0.00    +0.000 HD
ENDROOT
BRANCH   1  14
ATOM     14  C   UNL     1      44.704   5.597  11.799  0.00  0.00    +0.000 C 
BRANCH  14  15
ATOM     15  N   UNL     1      44.755   5.669  10.351  0.00  0.00    +0.000 N 
ATOM     16  H   UNL     1      45.289   6.463   9.998  0.00  0.00    +0.000 HD
BRANCH  15  22
ATOM     17  C   UNL     1      44.707   3.250   9.750  0.00  0.00    +0.000 A 
ATOM     18  C   UNL     1      45.133   2.274   8.834  0.00  0.00    +0.000 A 
ATOM     19  C   UNL     1      45.959   2.627   7.780  0.00  0.00    +0.000 A 
ATOM     20  C   UNL     1      46.344   3.949   7.692  0.00  0.00    +0.000 A 
ATOM     21  N   UNL     1      45.961   4.907   8.569  0.00  0.00    +0.000 NA
ATOM     22  C   UNL     1      45.140   4.571   9.594  0.00  0.00    +0.000 A 
BRANCH  17  24
ATOM     23  N   UNL     1      43.119   2.425  11.621  0.00  0.00    +0.000 NA
ATOM     24  C   UNL     1      43.831   2.820  10.789  0.00  0.00    +0.000 C 
ENDBRANCH  17  24
ENDBRANCH  15  22
ENDBRANCH  14  15
ENDBRANCH   1  14
TORSDOF 4
ENDMDL
MODEL 2
REMARK VINA RESULT:    -7.125      1.625      7.280
REMARK INTER + INTRA:          -8.928
REMARK INTER:                  -8.461
REMARK INTRA:                  -0.467
REMARK UNBOUND:                -0.137
REMARK  Name = 
REMARK  4 active torsions:
REMARK  status: ('A' for Active; 'I' for Inactive)
REMARK    1  A    between atoms: C_2  and  C_3
REMARK    2  A    between atoms: C_8  and  N_9
REMARK    3  A    between atoms: N_9  and  C_10
REMARK    4  A    between atoms: C_10  and  C_11
REMARK                            x       y       z     vdW  Elec       q    Type
REMARK                         _______ _______ _______ _____ _____    ______ ____
ROOT
ATOM      1  C   UNL     1      47.579   6.211  13.829  0.00  0.00    +0.000 A 
ATOM      2  C   UNL     1      48.118   7.095  12.900  0.00  0.00    +0.000 A 
ATOM      3  C   UNL     1      47.552   7.135  11.639  0.00  0.00    +0.000 A 
ATOM      4  N   UNL     1      46.500   6.375  11.255  0.00  0.00    +0.000 NA
ATOM      5  C   UNL     1      45.938   5.547  12.160  0.00  0.00    +0.000 A 
ATOM      6  N   UNL     1      44.900   4.737  11.766  0.00  0.00    +0.000 N 
ATOM      7  C   UNL     1      43.816   4.322  12.653  0.00  0.00    +0.000 C 
ATOM      8  C   UNL     1      43.585   2.804  12.489  0.00  0.00    +0.000 C 
ATOM      9  N   UNL     1      43.318   2.402  11.090  0.00  0.00    +0.000 NA
ATOM     10  C   UNL     1      44.424   2.890  10.228  0.00  0.00    +0.000 C 
ATOM     11  C   UNL     1      44.707   4.412  10.352  0.00  0.00    +0.000 C 
ATOM     12  C   UNL     1      46.461   5.461  13.451  0.00  0.00    +0.000 A 
ATOM     13  H   UNL     1      42.463   2.868  10.788  0.00  0.00    +0.000 HD
ENDROOT
BRANCH   1  14
ATOM     14  C   UNL     1      48.222   5.993  15.177  0.00  0.00    +0.000 C 
BRANCH  14  15
ATOM     15  N   UNL     1      47.461   5.055  15.980  0.00  0.00    +0.000 N 
ATOM     16  H   UNL     1      47.265   4.173  15.507  0.00  0.00    +0.000 HD
BRANCH  15  22
ATOM     17  C   UNL     1      48.598   3.603  17.658  0.00  0.00    +0.000 A 
ATOM     18  C   UNL     1      48.996   3.473  18.998  0.00  0.00    +0.000 A 
ATOM     19  C   UNL     1      48.675   4.459  19.915  0.00  0.00    +0.000 A 
ATOM     20  C   UNL     1      47.948   5.538  19.457  0.00  0.00    +0.000 A 
ATOM     21  N   UNL     1      47.538   5.682  18.174  0.00  0.00    +0.000 NA
ATOM     22  C   UNL     1      47.862   4.727  17.268  0.00  0.00    +0.000 A 
BRANCH  17  24
ATOM     23  N   UNL     1      49.354   1.744  16.022  0.00  0.00    +0.000 NA
ATOM     24  C   UNL     1      48.993   2.565  16.763  0.00  0.00    +0.000 C 
ENDBRANCH  17  24
ENDBRANCH  15  22
ENDBRANCH  14  15
ENDBRANCH   1  14
TORSDOF 4
ENDMDL
MODEL 3
REMARK VINA RESULT:    -7.086      1.804      3.654
REMARK INTER + INTRA:          -8.880
REMARK INTER:                  -8.851
REMARK INTRA:                  -0.029
REMARK UNBOUND:                -0.137
REMARK  Name = 
REMARK  4 active torsions:
REMARK  status: ('A' for Active; 'I' for Inactive)
REMARK    1  A    between atoms: C_2  and  C_3
REMARK    2  A    between atoms: C_8  and  N_9
REMARK    3  A    between atoms: N_9  and  C_10
REMARK    4  A    between atoms: C_10  and  C_11
REMARK                            x       y       z     vdW  Elec       q    Type
REMARK                         _______ _______ _______ _____ _____    ______ ____
ROOT
ATOM      1  C   UNL     1      45.482   5.667  12.514  0.00  0.00    +0.000 A 
ATOM      2  C   UNL     1      45.823   4.650  13.399  0.00  0.00    +0.000 A 
ATOM      3  C   UNL     1      47.023   4.757  14.078  0.00  0.00    +0.000 A 
ATOM      4  N   UNL     1      47.882   5.795  13.942  0.00  0.00    +0.000 NA
ATOM      5  C   UNL     1      47.542   6.811  13.121  0.00  0.00    +0.000 A 
ATOM      6  N   UNL     1      48.427   7.846  12.941  0.00  0.00    +0.000 N 
ATOM      7  C   UNL     1      48.019   9.223  12.674  0.00  0.00    +0.000 C 
ATOM      8  C   UNL     1      48.861   9.780  11.506  0.00  0.00    +0.000 C 
ATOM      9  N   UNL     1      50.319   9.687  11.740  0.00  0.00    +0.000 NA
ATOM     10  C   UNL     1      50.670   8.278  12.053  0.00  0.00    +0.000 C 
ATOM     11  C   UNL     1      49.852   7.661  13.219  0.00  0.00    +0.000 C 
ATOM     12  C   UNL     1      46.342   6.764  12.408  0.00  0.00    +0.000 A 
ATOM     13  H   UNL     1      50.541  10.249  12.562  0.00  0.00    +0.000 HD
ENDROOT
BRANCH   1  14
ATOM     14  C   UNL     1      44.268   5.563  11.623  0.00  0.00    +0.000 C 
BRANCH  14  15
ATOM     15  N   UNL     1      44.631   5.653  10.222  0.00  0.00    +0.000 N 
ATOM     16  H   UNL     1      45.283   6.410  10.014  0.00  0.00    +0.000 HD
BRANCH  15  22
ATOM     17  C   UNL     1      44.715   3.209   9.736  0.00  0.00    +0.000 A 
ATOM     18  C   UNL     1      45.214   2.214   8.880  0.00  0.00    +0.000 A 
ATOM     19  C   UNL     1      46.055   2.556   7.836  0.00  0.00    +0.000 A 
ATOM     20  C   UNL     1      46.381   3.889   7.695  0.00  0.00    +0.000 A 
ATOM     21  N   UNL     1      45.927   4.868   8.514  0.00  0.00    +0.000 NA
ATOM     22  C   UNL     1      45.091   4.541   9.529  0.00  0.00    +0.000 A 
BRANCH  17  24
ATOM     23  N   UNL     1      43.141   2.426  11.637  0.00  0.00    +0.000 NA
ATOM     24  C   UNL     1      43.827   2.787  10.769  0.00  0.00    +0.000 C 
ENDBRANCH  17  24
ENDBRANCH  15  22
ENDBRANCH  14  15
ENDBRANCH   1  14
TORSDOF 4
ENDMDL
MODEL 4
REMARK VINA RESULT:    -6.784      3.475      5.906
REMARK INTER + INTRA:          -8.508
REMARK INTER:                  -8.156
REMARK INTRA:                  -0.352
REMARK UNBOUND:                -0.137
REMARK  Name = 
REMARK  4 active torsions:
REMARK  status: ('A' for Active; 'I' for Inactive)
REMARK    1  A    between atoms: C_2  and  C_3
REMARK    2  A    between atoms: C_8  and  N_9
REMARK    3  A    between atoms: N_9  and  C_10
REMARK    4  A    between atoms: C_10  and  C_11
REMARK                            x       y       z     vdW  Elec       q    Type
REMARK                         _______ _______ _______ _____ _____    ______ ____
ROOT
ATOM      1  C   UNL     1      45.432   7.248  12.004  0.00  0.00    +0.000 A 
ATOM      2  C   UNL     1      46.459   7.641  12.856  0.00  0.00    +0.000 A 
ATOM      3  C   UNL     1      46.711   8.994  12.987  0.00  0.00    +0.000 A 
ATOM      4  N   UNL     1      46.014   9.961  12.346  0.00  0.00    +0.000 NA
ATOM      5  C   UNL     1      44.985   9.596  11.552  0.00  0.00    +0.000 A 
ATOM      6  N   UNL     1      44.301  10.567  10.860  0.00  0.00    +0.000 N 
ATOM      7  C   UNL     1      42.881  10.477  10.529  0.00  0.00    +0.000 C 
ATOM      8  C   UNL     1      42.685  10.861   9.047  0.00  0.00    +0.000 C 
ATOM      9  N   UNL     1      43.231  12.196   8.712  0.00  0.00    +0.000 NA
ATOM     10  C   UNL     1      44.660  12.247   9.113  0.00  0.00    +0.000 C 
ATOM     11  C   UNL     1      44.922  11.866  10.594  0.00  0.00    +0.000 C 
ATOM     12  C   UNL     1      44.678   8.246  11.379  0.00  0.00    +0.000 A 
ATOM     13  H   UNL     1      42.730  12.887   9.269  0.00  0.00    +0.000 HD
ENDROOT
BRANCH   1  14
ATOM     14  C   UNL     1      45.184   5.793  11.686  0.00  0.00    +0.000 C 
BRANCH  14  15
ATOM     15  N   UNL     1      44.715   5.623  10.324  0.00  0.00    +0.000 N 
ATOM     16  H   UNL     1      44.851   6.446   9.736  0.00  0.00    +0.000 HD
BRANCH  15  22
ATOM     17  C   UNL     1      44.686   3.206   9.712  0.00  0.00    +0.000 A 
ATOM     18  C   UNL     1      45.122   2.237   8.793  0.00  0.00    +0.000 A 
ATOM     19  C   UNL     1      45.949   2.600   7.744  0.00  0.00    +0.000 A 
ATOM     20  C   UNL     1      46.326   3.924   7.663  0.00  0.00    +0.000 A 
ATOM     21  N   UNL     1      45.933   4.877   8.543  0.00  0.00    +0.000 NA
ATOM     22  C   UNL     1      45.111   4.531   9.563  0.00  0.00    +0.000 A 
BRANCH  17  24
ATOM     23  N   UNL     1      43.129   2.383  11.610  0.00  0.00    +0.000 NA
ATOM     24  C   UNL     1      43.808   2.767  10.747  0.00  0.00    +0.000 C 
ENDBRANCH  17  24
ENDBRANCH  15  22
ENDBRANCH  14  15
ENDBRANCH   1  14
TORSDOF 4
ENDMDL
MODEL 5
REMARK VINA RESULT:    -6.615      1.185      2.391
REMARK INTER + INTRA:          -8.299
REMARK INTER:                  -7.780
REMARK INTRA:                  -0.519
REMARK UNBOUND:                -0.137
REMARK  Name = 
REMARK  4 active torsions:
REMARK  status: ('A' for Active; 'I' for Inactive)
REMARK    1  A    between atoms: C_2  and  C_3
REMARK    2  A    between atoms: C_8  and  N_9
REMARK    3  A    between atoms: N_9  and  C_10
REMARK    4  A    between atoms: C_10  and  C_11
REMARK                            x       y       z     vdW  Elec       q    Type
REMARK                         _______ _______ _______ _____ _____    ______ ____
ROOT
ATOM      1  C   UNL     1      47.040   6.992  12.817  0.00  0.00    +0.000 A 
ATOM      2  C   UNL     1      48.166   7.710  12.429  0.00  0.00    +0.000 A 
ATOM      3  C   UNL     1      49.295   7.627  13.224  0.00  0.00    +0.000 A 
ATOM      4  N   UNL     1      49.376   6.881  14.350  0.00  0.00    +0.000 NA
ATOM      5  C   UNL     1      48.307   6.142  14.714  0.00  0.00    +0.000 A 
ATOM      6  N   UNL     1      48.363   5.419  15.881  0.00  0.00    +0.000 N 
ATOM      7  C   UNL     1      47.664   4.152  16.082  0.00  0.00    +0.000 C 
ATOM      8  C   UNL     1      46.949   4.184  17.450  0.00  0.00    +0.000 C 
ATOM      9  N   UNL     1      47.859   4.481  18.578  0.00  0.00    +0.000 NA
ATOM     10  C   UNL     1      48.577   5.751  18.299  0.00  0.00    +0.000 C 
ATOM     11  C   UNL     1      49.313   5.780  16.933  0.00  0.00    +0.000 C 
ATOM     12  C   UNL     1      47.137   6.181  13.953  0.00  0.00    +0.000 A 
ATOM     13  H   UNL     1      48.555   3.737  18.623  0.00  0.00    +0.000 HD
ENDROOT
BRANCH   1  14
ATOM     14  C   UNL     1      45.723   7.139  12.096  0.00  0.00    +0.000 C 
BRANCH  14  15
ATOM     15  N   UNL     1      45.654   6.268  10.938  0.00  0.00    +0.000 N 
ATOM     16  H   UNL     1      46.566   6.017  10.558  0.00  0.00    +0.000 HD
BRANCH  15  22
ATOM     17  C   UNL     1      44.830   4.126   9.964  0.00  0.00    +0.000 A 
ATOM     18  C   UNL     1      44.093   2.954  10.197  0.00  0.00    +0.000 A 
ATOM     19  C   UNL     1      43.465   2.762  11.416  0.00  0.00    +0.000 A 
ATOM     20  C   UNL     1      43.586   3.764  12.356  0.00  0.00    +0.000 A 
ATOM     21  N   UNL     1      44.278   4.910  12.153  0.00  0.00    +0.000 NA
ATOM     22  C   UNL     1      44.907   5.098  10.968  0.00  0.00    +0.000 A 
BRANCH  17  24
ATOM     23  N   UNL     1      45.996   4.287   7.658  0.00  0.00    +0.000 NA
ATOM     24  C   UNL     1      45.478   4.240   8.698  0.00  0.00    +0.000 C 
ENDBRANCH  17  24
ENDBRANCH  15  22
ENDBRANCH  14  15
ENDBRANCH   1  14
TORSDOF 4
ENDMDL
MODEL 6
REMARK VINA RESULT:    -6.572      2.727      4.851
REMARK INTER + INTRA:          -8.245
REMARK INTER:                  -7.949
REMARK INTRA:                  -0.296
REMARK UNBOUND:                -0.137
REMARK  Name = 
REMARK  4 active torsions:
REMARK  status: ('A' for Active; 'I' for Inactive)
REMARK    1  A    between atoms: C_2  and  C_3
REMARK    2  A    between atoms: C_8  and  N_9
REMARK    3  A    between atoms: N_9  and  C_10
REMARK    4  A    between atoms: C_10  and  C_11
REMARK                            x       y       z     vdW  Elec       q    Type
REMARK                         _______ _______ _______ _____ _____    ______ ____
ROOT
ATOM      1  C   UNL     1      46.312   6.557  12.266  0.00  0.00    +0.000 A 
ATOM      2  C   UNL     1      47.467   5.992  12.799  0.00  0.00    +0.000 A 
ATOM      3  C   UNL     1      48.569   6.809  12.968  0.00  0.00    +0.000 A 
ATOM      4  N   UNL     1      48.592   8.126  12.658  0.00  0.00    +0.000 NA
ATOM      5  C   UNL     1      47.465   8.698  12.184  0.00  0.00    +0.000 A 
ATOM      6  N   UNL     1      47.492  10.023  11.822  0.00  0.00    +0.000 N 
ATOM      7  C   UNL     1      46.340  10.915  11.931  0.00  0.00    +0.000 C 
ATOM      8  C   UNL     1      46.199  11.717  10.618  0.00  0.00    +0.000 C 
ATOM      9  N   UNL     1      47.425  12.463  10.255  0.00  0.00    +0.000 NA
ATOM     10  C   UNL     1      48.569  11.518  10.207  0.00  0.00    +0.000 C 
ATOM     11  C   UNL     1      48.760  10.679  11.499  0.00  0.00    +0.000 C 
ATOM     12  C   UNL     1      46.316   7.928  11.992  0.00  0.00    +0.000 A 
ATOM     13  H   UNL     1      47.613  13.136  10.997  0.00  0.00    +0.000 HD
ENDROOT
BRANCH   1  14
ATOM     14  C   UNL     1      45.113   5.713  11.909  0.00  0.00    +0.000 C 
BRANCH  14  15
ATOM     15  N   UNL     1      44.841   5.757  10.486  0.00  0.00    +0.000 N 
ATOM     16  H   UNL     1      45.195   6.596  10.025  0.00  0.00    +0.000 HD
BRANCH  15  22
ATOM     17  C   UNL     1      44.685   3.381   9.747  0.00  0.00    +0.000 A 
ATOM     18  C   UNL     1      45.058   2.443   8.771  0.00  0.00    +0.000 A 
ATOM     19  C   UNL     1      45.885   2.822   7.727  0.00  0.00    +0.000 A 
ATOM     20  C   UNL     1      46.324   4.130   7.709  0.00  0.00    +0.000 A 
ATOM     21  N   UNL     1      45.992   5.051   8.645  0.00  0.00    +0.000 NA
ATOM     22  C   UNL     1      45.170   4.690   9.661  0.00  0.00    +0.000 A 
BRANCH  17  24
ATOM     23  N   UNL     1      43.114   2.521  11.617  0.00  0.00    +0.000 NA
ATOM     24  C   UNL     1      43.804   2.928  10.773  0.00  0.00    +0.000 C 
ENDBRANCH  17  24
ENDBRANCH  15  22
ENDBRANCH  14  15
ENDBRANCH   1  14
TORSDOF 4
ENDMDL
MODEL 7
REMARK VINA RESULT:    -6.301      2.439      3.519
REMARK INTER + INTRA:          -7.911
REMARK INTER:                  -7.311
REMARK INTRA:                  -0.600
REMARK UNBOUND:                -0.137
REMARK  Name = 
REMARK  4 active torsions:
REMARK  status: ('A' for Active; 'I' for Inactive)
REMARK    1  A    between atoms: C_2  and  C_3
REMARK    2  A    between atoms: C_8  and  N_9
REMARK    3  A    between atoms: N_9  and  C_10
REMARK    4  A    between atoms: C_10  and  C_11
REMARK                            x       y       z     vdW  Elec       q    Type
REMARK                         _______ _______ _______ _____ _____    ______ ____
ROOT
ATOM      1  C   UNL     1      48.468   7.299  14.513  0.00  0.00    +0.000 A 
ATOM      2  C   UNL     1      49.065   8.523  14.794  0.00  0.00    +0.000 A 
ATOM      3  C   UNL     1      49.698   8.671  16.014  0.00  0.00    +0.000 A 
ATOM      4  N   UNL     1      49.783   7.695  16.948  0.00  0.00    +0.000 NA
ATOM      5  C   UNL     1      49.248   6.487  16.670  0.00  0.00    +0.000 A 
ATOM      6  N   UNL     1      49.288   5.505  17.631  0.00  0.00    +0.000 N 
ATOM      7  C   UNL     1      49.381   4.080  17.326  0.00  0.00    +0.000 C 
ATOM      8  C   UNL     1      48.349   3.314  18.182  0.00  0.00    +0.000 C 
ATOM      9  N   UNL     1      48.493   3.564  19.633  0.00  0.00    +0.000 NA
ATOM     10  C   UNL     1      48.439   5.028  19.879  0.00  0.00    +0.000 C 
ATOM     11  C   UNL     1      49.452   5.853  19.043  0.00  0.00    +0.000 C 
ATOM     12  C   UNL     1      48.596   6.273  15.455  0.00  0.00    +0.000 A 
ATOM     13  H   UNL     1      49.416   3.238  19.917  0.00  0.00    +0.000 HD
ENDROOT
BRANCH   1  14
ATOM     14  C   UNL     1      47.630   7.095  13.274  0.00  0.00    +0.000 C 
BRANCH  14  15
ATOM     15  N   UNL     1      46.277   6.694  13.612  0.00  0.00    +0.000 N 
ATOM     16  H   UNL     1      45.640   7.478  13.755  0.00  0.00    +0.000 HD
BRANCH  15  22
ATOM     17  C   UNL     1      45.736   4.379  12.860  0.00  0.00    +0.000 A 
ATOM     18  C   UNL     1      44.893   3.586  12.066  0.00  0.00    +0.000 A 
ATOM     19  C   UNL     1      43.919   4.180  11.282  0.00  0.00    +0.000 A 
ATOM     20  C   UNL     1      43.836   5.556  11.309  0.00  0.00    +0.000 A 
ATOM     21  N   UNL     1      44.645   6.347  12.053  0.00  0.00    +0.000 NA
ATOM     22  C   UNL     1      45.591   5.771  12.835  0.00  0.00    +0.000 A 
BRANCH  17  24
ATOM     23  N   UNL     1      47.445   3.146  14.364  0.00  0.00    +0.000 NA
ATOM     24  C   UNL     1      46.693   3.697  13.668  0.00  0.00    +0.000 C 
ENDBRANCH  17  24
ENDBRANCH  15  22
ENDBRANCH  14  15
ENDBRANCH   1  14
TORSDOF 4
ENDMDL
MODEL 8
REMARK VINA RESULT:    -6.294      2.011      7.169
REMARK INTER + INTRA:          -7.903
REMARK INTER:                  -7.383
REMARK INTRA:                  -0.520
REMARK UNBOUND:                -0.137
REMARK  Name = 
REMARK  4 active torsions:
REMARK  status: ('A' for Active; 'I' for Inactive)
REMARK    1  A    between atoms: C_2  and  C_3
REMARK    2  A    between atoms: C_8  and  N_9
REMARK    3  A    between atoms: N_9  and  C_10
REMARK    4  A    between atoms: C_10  and  C_11
REMARK                            x       y       z     vdW  Elec       q    Type
REMARK                         _______ _______ _______ _____ _____    ______ ____
ROOT
ATOM      1  C   UNL     1      47.318   7.146  13.642  0.00  0.00    +0.000 A 
ATOM      2  C   UNL     1      47.167   8.400  13.060  0.00  0.00    +0.000 A 
ATOM      3  C   UNL     1      46.100   8.592  12.201  0.00  0.00    +0.000 A 
ATOM      4  N   UNL     1      45.188   7.639  11.899  0.00  0.00    +0.000 NA
ATOM      5  C   UNL     1      45.295   6.432  12.493  0.00  0.00    +0.000 A 
ATOM      6  N   UNL     1      44.401   5.444  12.157  0.00  0.00    +0.000 N 
ATOM      7  C   UNL     1      43.958   4.405  13.084  0.00  0.00    +0.000 C 
ATOM      8  C   UNL     1      44.024   3.035  12.374  0.00  0.00    +0.000 C 
ATOM      9  N   UNL     1      43.252   2.995  11.112  0.00  0.00    +0.000 NA
ATOM     10  C   UNL     1      43.709   4.098  10.230  0.00  0.00    +0.000 C 
ATOM     11  C   UNL     1      43.670   5.502  10.891  0.00  0.00    +0.000 C 
ATOM     12  C   UNL     1      46.348   6.174  13.372  0.00  0.00    +0.000 A 
ATOM     13  H   UNL     1      42.273   3.167  11.338  0.00  0.00    +0.000 HD
ENDROOT
BRANCH   1  14
ATOM     14  C   UNL     1      48.530   6.802  14.472  0.00  0.00    +0.000 C 
BRANCH  14  15
ATOM     15  N   UNL     1      48.154   6.399  15.814  0.00  0.00    +0.000 N 
ATOM     16  H   UNL     1      47.147   6.380  15.971  0.00  0.00    +0.000 HD
BRANCH  15  22
ATOM     17  C   UNL     1      49.773   5.123  17.217  0.00  0.00    +0.000 A 
ATOM     18  C   UNL     1      50.092   3.873  17.773  0.00  0.00    +0.000 A 
ATOM     19  C   UNL     1      49.298   2.772  17.502  0.00  0.00    +0.000 A 
ATOM     20  C   UNL     1      48.217   2.960  16.667  0.00  0.00    +0.000 A 
ATOM     21  N   UNL     1      47.894   4.149  16.105  0.00  0.00    +0.000 NA
ATOM     22  C   UNL     1      48.659   5.234  16.378  0.00  0.00    +0.000 A 
BRANCH  17  24
ATOM     23  N   UNL     1      51.269   7.143  17.838  0.00  0.00    +0.000 NA
ATOM     24  C   UNL     1      50.616   6.219  17.566  0.00  0.00    +0.000 C 
ENDBRANCH  17  24
ENDBRANCH  15  22
ENDBRANCH  14  15
ENDBRANCH   1  14
TORSDOF 4
ENDMDL
MODEL 9
REMARK VINA RESULT:    -6.146      1.901      2.848
REMARK INTER + INTRA:          -7.720
REMARK INTER:                  -7.240
REMARK INTRA:                  -0.480
REMARK UNBOUND:                -0.137
REMARK  Name = 
REMARK  4 active torsions:
REMARK  status: ('A' for Active; 'I' for Inactive)
REMARK    1  A    between atoms: C_2  and  C_3
REMARK    2  A    between atoms: C_8  and  N_9
REMARK    3  A    between atoms: N_9  and  C_10
REMARK    4  A    between atoms: C_10  and  C_11
REMARK                            x       y       z     vdW  Elec       q    Type
REMARK                         _______ _______ _______ _____ _____    ______ ____
ROOT
ATOM      1  C   UNL     1      47.158   5.807  13.425  0.00  0.00    +0.000 A 
ATOM      2  C   UNL     1      46.735   4.569  13.898  0.00  0.00    +0.000 A 
ATOM      3  C   UNL     1      47.210   4.148  15.127  0.00  0.00    +0.000 A 
ATOM      4  N   UNL     1      48.052   4.870  15.903  0.00  0.00    +0.000 NA
ATOM      5  C   UNL     1      48.433   6.093  15.477  0.00  0.00    +0.000 A 
ATOM      6  N   UNL     1      49.324   6.813  16.236  0.00  0.00    +0.000 N 
ATOM      7  C   UNL     1      49.332   8.272  16.307  0.00  0.00    +0.000 C 
ATOM      8  C   UNL     1      50.782   8.777  16.145  0.00  0.00    +0.000 C 
ATOM      9  N   UNL     1      51.719   8.185  17.126  0.00  0.00    +0.000 NA
ATOM     10  C   UNL     1      51.635   6.705  17.044  0.00  0.00    +0.000 C 
ATOM     11  C   UNL     1      50.199   6.138  17.196  0.00  0.00    +0.000 C 
ATOM     12  C   UNL     1      47.987   6.577  14.246  0.00  0.00    +0.000 A 
ATOM     13  H   UNL     1      51.410   8.460  18.058  0.00  0.00    +0.000 HD
ENDROOT
BRANCH   1  14
ATOM     14  C   UNL     1      46.811   6.281  12.035  0.00  0.00    +0.000 C 
BRANCH  14  15
ATOM     15  N   UNL     1      45.488   5.837  11.640  0.00  0.00    +0.000 N 
ATOM     16  H   UNL     1      44.838   6.599  11.448  0.00  0.00    +0.000 HD
BRANCH  15  22
ATOM     17  C   UNL     1      44.647   3.689  10.693  0.00  0.00    +0.000 A 
ATOM     18  C   UNL     1      44.495   2.915   9.530  0.00  0.00    +0.000 A 
ATOM     19  C   UNL     1      44.993   3.374   8.323  0.00  0.00    +0.000 A 
ATOM     20  C   UNL     1      45.644   4.589   8.327  0.00  0.00    +0.000 A 
ATOM     21  N   UNL     1      45.819   5.349   9.434  0.00  0.00    +0.000 NA
ATOM     22  C   UNL     1      45.320   4.913  10.616  0.00  0.00    +0.000 A 
BRANCH  17  24
ATOM     23  N   UNL     1      43.582   2.724  12.846  0.00  0.00    +0.000 NA
ATOM     24  C   UNL     1      44.079   3.170  11.893  0.00  0.00    +0.000 C 
ENDBRANCH  17  24
ENDBRANCH  15  22
ENDBRANCH  14  15
ENDBRANCH   1  14
TORSDOF 4
ENDMDL
