MODEL 1
REMARK VINA RESULT:    -6.978      0.000      0.000
REMARK INTER + INTRA:          -9.347
REMARK INTER:                  -8.609
REMARK INTRA:                  -0.737
REMARK UNBOUND:                -0.737
REMARK  Name = 
REMARK  4 active torsions:
REMARK  status: ('A' for Active; 'I' for Inactive)
REMARK    1  A    between atoms: C_4  and  O_5
REMARK    2  A    between atoms: O_5  and  C_6
REMARK    3  A    between atoms: C_6  and  C_7
REMARK    4  A    between atoms: C_11  and  C_12
REMARK                            x       y       z     vdW  Elec       q    Type
REMARK                         _______ _______ _______ _____ _____    ______ ____
ROOT
ATOM      1  C   UNL     1      45.088   5.173  12.197  0.00  0.00    +0.000 A 
ATOM      2  C   UNL     1      45.623   4.203  13.062  0.00  0.00    +0.000 A 
ATOM      3  C   UNL     1      46.870   4.358  13.661  0.00  0.00    +0.000 A 
ATOM      4  C   UNL     1      47.633   5.489  13.386  0.00  0.00    +0.000 A 
ATOM      5  C   UNL     1      47.155   6.494  12.531  0.00  0.00    +0.000 A 
ATOM      6  C   UNL     1      45.864   6.327  11.985  0.00  0.00    +0.000 A 
ENDROOT
BRANCH   5   7
ATOM      7  C   UNL     1      47.993   7.646  12.151  0.00  0.00    +0.000 A 
ATOM      8  C   UNL     1      49.347   7.511  11.813  0.00  0.00    +0.000 A 
ATOM      9  C   UNL     1      50.121   8.632  11.520  0.00  0.00    +0.000 A 
ATOM     10  C   UNL     1      49.517   9.876  11.555  0.00  0.00    +0.000 A 
ATOM     11  N   UNL     1      48.218  10.065  11.862  0.00  0.00    +0.000 NA
ATOM     12  C   UNL     1      47.497   8.954  12.155  0.00  0.00    +0.000 A 
ENDBRANCH   5   7
BRANCH   1  13
ATOM     13  C   UNL     1      43.780   4.925  11.450  0.00  0.00    +0.000 C 
ATOM     14  C   UNL     1      42.455   5.345  12.085  0.00  0.00    +0.000 C 
ATOM     15  C   UNL     1      43.029   6.147  10.966  0.00  0.00    +0.000 C 
BRANCH  13  16
ATOM     16  O   UNL     1      43.620   3.668  10.743  0.00  0.00    +0.000 OA
BRANCH  16  20
ATOM     17  C   UNL     1      46.271   2.901   7.704  0.00  0.00    +0.000 A 
ATOM     18  C   UNL     1      45.765   1.848   8.466  0.00  0.00    +0.000 A 
ATOM     19  C   UNL     1      44.848   2.120   9.472  0.00  0.00    +0.000 A 
ATOM     20  C   UNL     1      44.486   3.437   9.691  0.00  0.00    +0.000 A 
ATOM     21  N   UNL     1      44.921   4.472   8.938  0.00  0.00    +0.000 NA
ATOM     22  C   UNL     1      45.811   4.179   7.967  0.00  0.00    +0.000 A 
ENDBRANCH  16  20
ENDBRANCH  13  16
ENDBRANCH   1  13
TORSDOF 4
ENDMDL
MODEL 2
REMARK VINA RESULT:    -6.899      2.239      3.731
REMARK INTER + INTRA:          -9.249
REMARK INTER:                  -8.863
REMARK INTRA:                  -0.386
REMARK UNBOUND:                -0.737
REMARK  Name = 
REMARK  4 active torsions:
REMARK  status: ('A' for Active; 'I' for Inactive)
REMARK    1  A    between atoms: C_4  and  O_5
REMARK    2  A    between atoms: O_5  and  C_6
REMARK    3  A    between atoms: C_6  and  C_7
REMARK    4  A    between atoms: C_11  and  C_12
REMARK                            x       y       z     vdW  Elec       q    Type
REMARK                         _______ _______ _______ _____ _____    ______ ____
ROOT
ATOM      1  C   UNL     1      45.458   5.288  12.223  0.00  0.00    +0.000 A 
ATOM      2  C   UNL     1      46.177   6.325  11.604  0.00  0.00    +0.000 A 
ATOM      3  C   UNL     1      47.356   6.827  12.146  0.00  0.00    +0.000 A 
ATOM      4  C   UNL     1      47.837   6.318  13.348  0.00  0.00    +0.000 A 
ATOM      5  C   UNL     1      47.165   5.283  14.016  0.00  0.00    +0.000 A 
ATOM      6  C   UNL     1      46.001   4.762  13.408  0.00  0.00    +0.000 A 
ENDROOT
BRANCH   5   7
ATOM      7  C   UNL     1      47.605   4.804  15.339  0.00  0.00    +0.000 A 
ATOM      8  C   UNL     1      47.280   3.528  15.821  0.00  0.00    +0.000 A 
ATOM      9  C   UNL     1      47.663   3.136  17.103  0.00  0.00    +0.000 A 
ATOM     10  C   UNL     1      48.381   4.028  17.878  0.00  0.00    +0.000 A 
ATOM     11  N   UNL     1      48.730   5.262  17.463  0.00  0.00    +0.000 NA
ATOM     12  C   UNL     1      48.331   5.617  16.215  0.00  0.00    +0.000 A 
ENDBRANCH   5   7
BRANCH   1  13
ATOM     13  C   UNL     1      44.102   4.840  11.683  0.00  0.00    +0.000 C 
ATOM     14  C   UNL     1      42.836   5.115  12.494  0.00  0.00    +0.000 C 
ATOM     15  C   UNL     1      43.133   5.933  11.282  0.00  0.00    +0.000 C 
BRANCH  13  16
ATOM     16  O   UNL     1      44.012   3.541  11.040  0.00  0.00    +0.000 OA
BRANCH  16  20
ATOM     17  C   UNL     1      46.197   2.996   7.608  0.00  0.00    +0.000 A 
ATOM     18  C   UNL     1      45.827   1.893   8.378  0.00  0.00    +0.000 A 
ATOM     19  C   UNL     1      45.064   2.091   9.521  0.00  0.00    +0.000 A 
ATOM     20  C   UNL     1      44.717   3.385   9.863  0.00  0.00    +0.000 A 
ATOM     21  N   UNL     1      45.018   4.468   9.111  0.00  0.00    +0.000 NA
ATOM     22  C   UNL     1      45.760   4.247   8.005  0.00  0.00    +0.000 A 
ENDBRANCH  16  20
ENDBRANCH  13  16
ENDBRANCH   1  13
TORSDOF 4
ENDMDL
MODEL 3
REMARK VINA RESULT:    -6.554      2.482      6.346
REMARK INTER + INTRA:          -8.824
REMARK INTER:                  -7.962
REMARK INTRA:                  -0.863
REMARK UNBOUND:                -0.737
REMARK  Name = 
REMARK  4 active torsions:
REMARK  status: ('A' for Active; 'I' for Inactive)
REMARK    1  A    between atoms: C_4  and  O_5
REMARK    2  A    between atoms: O_5  and  C_6
REMARK    3  A    between atoms: C_6  and  C_7
REMARK    4  A    between atoms: C_11  and  C_12
REMARK                            x       y       z     vdW  Elec       q    Type
REMARK                         _______ _______ _______ _____ _____    ______ ____
ROOT
ATOM      1  C   UNL     1      45.100   6.415  11.896  0.00  0.00    +0.000 A 
ATOM      2  C   UNL     1      43.784   6.148  12.313  0.00  0.00    +0.000 A 
ATOM      3  C   UNL     1      43.030   5.119  11.755  0.00  0.00    +0.000 A 
ATOM      4  C   UNL     1      43.570   4.340  10.736  0.00  0.00    +0.000 A 
ATOM      5  C   UNL     1      44.878   4.557  10.275  0.00  0.00    +0.000 A 
ATOM      6  C   UNL     1      45.631   5.574  10.902  0.00  0.00    +0.000 A 
ENDROOT
BRANCH   5   7
ATOM      7  C   UNL     1      45.427   3.809   9.130  0.00  0.00    +0.000 A 
ATOM      8  C   UNL     1      45.475   2.408   9.102  0.00  0.00    +0.000 A 
ATOM      9  C   UNL     1      46.058   1.738   8.028  0.00  0.00    +0.000 A 
ATOM     10  C   UNL     1      46.573   2.489   6.986  0.00  0.00    +0.000 A 
ATOM     11  N   UNL     1      46.545   3.836   6.953  0.00  0.00    +0.000 NA
ATOM     12  C   UNL     1      45.982   4.456   8.021  0.00  0.00    +0.000 A 
ENDBRANCH   5   7
BRANCH   1  13
ATOM     13  C   UNL     1      45.861   7.626  12.427  0.00  0.00    +0.000 C 
ATOM     14  C   UNL     1      47.029   7.423  13.392  0.00  0.00    +0.000 C 
ATOM     15  C   UNL     1      47.296   7.784  11.970  0.00  0.00    +0.000 C 
BRANCH  13  16
ATOM     16  O   UNL     1      45.102   8.806  12.802  0.00  0.00    +0.000 OA
BRANCH  16  20
ATOM     17  C   UNL     1      44.551  11.536   9.787  0.00  0.00    +0.000 A 
ATOM     18  C   UNL     1      43.706  10.431   9.885  0.00  0.00    +0.000 A 
ATOM     19  C   UNL     1      43.887   9.531  10.927  0.00  0.00    +0.000 A 
ATOM     20  C   UNL     1      44.919   9.759  11.819  0.00  0.00    +0.000 A 
ATOM     21  N   UNL     1      45.722  10.846  11.779  0.00  0.00    +0.000 NA
ATOM     22  C   UNL     1      45.523  11.705  10.756  0.00  0.00    +0.000 A 
ENDBRANCH  16  20
ENDBRANCH  13  16
ENDBRANCH   1  13
TORSDOF 4
ENDMDL
MODEL 4
REMARK VINA RESULT:    -6.502      1.759      2.244
REMARK INTER + INTRA:          -8.760
REMARK INTER:                  -8.074
REMARK INTRA:                  -0.685
REMARK UNBOUND:                -0.737
REMARK  Name = 
REMARK  4 active torsions:
REMARK  status: ('A' for Active; 'I' for Inactive)
REMARK    1  A    between atoms: C_4  and  O_5
REMARK    2  A    between atoms: O_5  and  C_6
REMARK    3  A    between atoms: C_6  and  C_7
REMARK    4  A    between atoms: C_11  and  C_12
REMARK                            x       y       z     vdW  Elec       q    Type
REMARK                         _______ _______ _______ _____ _____    ______ ____
ROOT
ATOM      1  C   UNL     1      45.315   5.718  12.809  0.00  0.00    +0.000 A 
ATOM      2  C   UNL     1      46.522   5.325  13.413  0.00  0.00    +0.000 A 
ATOM      3  C   UNL     1      47.529   6.239  13.708  0.00  0.00    +0.000 A 
ATOM      4  C   UNL     1      47.363   7.581  13.379  0.00  0.00    +0.000 A 
ATOM      5  C   UNL     1      46.182   8.036  12.773  0.00  0.00    +0.000 A 
ATOM      6  C   UNL     1      45.161   7.089  12.538  0.00  0.00    +0.000 A 
ENDROOT
BRANCH   5   7
ATOM      7  C   UNL     1      46.033   9.433  12.326  0.00  0.00    +0.000 A 
ATOM      8  C   UNL     1      47.135  10.265  12.082  0.00  0.00    +0.000 A 
ATOM      9  C   UNL     1      46.951  11.599  11.721  0.00  0.00    +0.000 A 
ATOM     10  C   UNL     1      45.659  12.075  11.595  0.00  0.00    +0.000 A 
ATOM     11  N   UNL     1      44.563  11.319  11.806  0.00  0.00    +0.000 NA
ATOM     12  C   UNL     1      44.777  10.029  12.169  0.00  0.00    +0.000 A 
ENDBRANCH   5   7
BRANCH   1  13
ATOM     13  C   UNL     1      44.280   4.683  12.376  0.00  0.00    +0.000 C 
ATOM     14  C   UNL     1      43.078   4.393  13.275  0.00  0.00    +0.000 C 
ATOM     15  C   UNL     1      42.899   5.202  12.034  0.00  0.00    +0.000 C 
BRANCH  13  16
ATOM     16  O   UNL     1      44.750   3.457  11.757  0.00  0.00    +0.000 OA
BRANCH  16  20
ATOM     17  C   UNL     1      45.371   3.425   7.700  0.00  0.00    +0.000 A 
ATOM     18  C   UNL     1      44.782   2.323   8.320  0.00  0.00    +0.000 A 
ATOM     19  C   UNL     1      44.552   2.361   9.690  0.00  0.00    +0.000 A 
ATOM     20  C   UNL     1      44.939   3.489  10.389  0.00  0.00    +0.000 A 
ATOM     21  N   UNL     1      45.466   4.590   9.809  0.00  0.00    +0.000 NA
ATOM     22  C   UNL     1      45.678   4.527   8.477  0.00  0.00    +0.000 A 
ENDBRANCH  16  20
ENDBRANCH  13  16
ENDBRANCH   1  13
TORSDOF 4
ENDMDL
MODEL 5
REMARK VINA RESULT:    -6.371      2.408      6.475
REMARK INTER + INTRA:          -8.599
REMARK INTER:                  -7.877
REMARK INTRA:                  -0.721
REMARK UNBOUND:                -0.737
REMARK  Name = 
REMARK  4 active torsions:
REMARK  status: ('A' for Active; 'I' for Inactive)
REMARK    1  A    between atoms: C_4  and  O_5
REMARK    2  A    between atoms: O_5  and  C_6
REMARK    3  A    between atoms: C_6  and  C_7
REMARK    4  A    between atoms: C_11  and  C_12
REMARK                            x       y       z     vdW  Elec       q    Type
REMARK                         _______ _______ _______ _____ _____    ______ ____
ROOT
ATOM      1  C   UNL     1      45.539   6.421  11.868  0.00  0.00    +0.000 A 
ATOM      2  C   UNL     1      44.158   6.625  12.032  0.00  0.00    +0.000 A 
ATOM      3  C   UNL     1      43.216   5.867  11.342  0.00  0.00    +0.000 A 
ATOM      4  C   UNL     1      43.636   4.894  10.441  0.00  0.00    +0.000 A 
ATOM      5  C   UNL     1      45.001   4.643  10.232  0.00  0.00    +0.000 A 
ATOM      6  C   UNL     1      45.927   5.394  10.990  0.00  0.00    +0.000 A 
ENDROOT
BRANCH   5   7
ATOM      7  C   UNL     1      45.462   3.688   9.208  0.00  0.00    +0.000 A 
ATOM      8  C   UNL     1      45.952   4.102   7.961  0.00  0.00    +0.000 A 
ATOM      9  C   UNL     1      46.320   3.166   6.997  0.00  0.00    +0.000 A 
ATOM     10  C   UNL     1      46.204   1.823   7.305  0.00  0.00    +0.000 A 
ATOM     11  N   UNL     1      45.751   1.366   8.489  0.00  0.00    +0.000 NA
ATOM     12  C   UNL     1      45.389   2.304   9.401  0.00  0.00    +0.000 A 
ENDBRANCH   5   7
BRANCH   1  13
ATOM     13  C   UNL     1      46.554   7.347  12.533  0.00  0.00    +0.000 C 
ATOM     14  C   UNL     1      46.745   8.767  12.003  0.00  0.00    +0.000 C 
ATOM     15  C   UNL     1      46.001   8.544  13.277  0.00  0.00    +0.000 C 
BRANCH  13  16
ATOM     16  O   UNL     1      47.832   6.789  12.938  0.00  0.00    +0.000 OA
BRANCH  16  20
ATOM     17  C   UNL     1      48.071   4.899  16.574  0.00  0.00    +0.000 A 
ATOM     18  C   UNL     1      48.714   6.122  16.384  0.00  0.00    +0.000 A 
ATOM     19  C   UNL     1      48.600   6.763  15.157  0.00  0.00    +0.000 A 
ATOM     20  C   UNL     1      47.865   6.147  14.161  0.00  0.00    +0.000 A 
ATOM     21  N   UNL     1      47.191   4.987  14.331  0.00  0.00    +0.000 NA
ATOM     22  C   UNL     1      47.318   4.387  15.533  0.00  0.00    +0.000 A 
ENDBRANCH  16  20
ENDBRANCH  13  16
ENDBRANCH   1  13
TORSDOF 4
ENDMDL
MODEL 6
REMARK VINA RESULT:    -6.291      2.849      6.784
REMARK INTER + INTRA:          -8.500
REMARK INTER:                  -7.854
REMARK INTRA:                  -0.646
REMARK UNBOUND:                -0.737
REMARK  Name = 
REMARK  4 active torsions:
REMARK  status: ('A' for Active; 'I' for Inactive)
REMARK    1  A    between atoms: C_4  and  O_5
REMARK    2  A    between atoms: O_5  and  C_6
REMARK    3  A    between atoms: C_6  and  C_7
REMARK    4  A    between atoms: C_11  and  C_12
REMARK                            x       y       z     vdW  Elec       q    Type
REMARK                         _______ _______ _______ _____ _____    ______ ____
ROOT
ATOM      1  C   UNL     1      46.934   7.319  12.828  0.00  0.00    +0.000 A 
ATOM      2  C   UNL     1      46.013   8.381  12.834  0.00  0.00    +0.000 A 
ATOM      3  C   UNL     1      44.817   8.322  12.125  0.00  0.00    +0.000 A 
ATOM      4  C   UNL     1      44.521   7.197  11.361  0.00  0.00    +0.000 A 
ATOM      5  C   UNL     1      45.400   6.104  11.312  0.00  0.00    +0.000 A 
ATOM      6  C   UNL     1      46.578   6.178  12.088  0.00  0.00    +0.000 A 
ENDROOT
BRANCH   5   7
ATOM      7  C   UNL     1      45.149   4.951  10.429  0.00  0.00    +0.000 A 
ATOM      8  C   UNL     1      45.603   4.908   9.103  0.00  0.00    +0.000 A 
ATOM      9  C   UNL     1      45.292   3.827   8.280  0.00  0.00    +0.000 A 
ATOM     10  C   UNL     1      44.539   2.794   8.808  0.00  0.00    +0.000 A 
ATOM     11  N   UNL     1      44.085   2.775  10.076  0.00  0.00    +0.000 NA
ATOM     12  C   UNL     1      44.395   3.849  10.846  0.00  0.00    +0.000 A 
ENDBRANCH   5   7
BRANCH   1  13
ATOM     13  C   UNL     1      48.295   7.455  13.505  0.00  0.00    +0.000 C 
ATOM     14  C   UNL     1      49.350   8.385  12.905  0.00  0.00    +0.000 C 
ATOM     15  C   UNL     1      48.612   8.795  14.135  0.00  0.00    +0.000 C 
BRANCH  13  16
ATOM     16  O   UNL     1      48.924   6.257  14.031  0.00  0.00    +0.000 OA
BRANCH  16  20
ATOM     17  C   UNL     1      47.555   4.803  17.617  0.00  0.00    +0.000 A 
ATOM     18  C   UNL     1      48.365   5.939  17.592  0.00  0.00    +0.000 A 
ATOM     19  C   UNL     1      48.797   6.436  16.370  0.00  0.00    +0.000 A 
ATOM     20  C   UNL     1      48.420   5.766  15.220  0.00  0.00    +0.000 A 
ATOM     21  N   UNL     1      47.597   4.693  15.209  0.00  0.00    +0.000 NA
ATOM     22  C   UNL     1      47.192   4.232  16.411  0.00  0.00    +0.000 A 
ENDBRANCH  16  20
ENDBRANCH  13  16
ENDBRANCH   1  13
TORSDOF 4
ENDMDL
MODEL 7
REMARK VINA RESULT:    -6.267      2.103      6.238
REMARK INTER + INTRA:          -8.470
REMARK INTER:                  -7.960
REMARK INTRA:                  -0.510
REMARK UNBOUND:                -0.737
REMARK  Name = 
REMARK  4 active torsions:
REMARK  status: ('A' for Active; 'I' for Inactive)
REMARK    1  A    between atoms: C_4  and  O_5
REMARK    2  A    between atoms: O_5  and  C_6
REMARK    3  A    between atoms: C_6  and  C_7
REMARK    4  A    between atoms: C_11  and  C_12
REMARK                            x       y       z     vdW  Elec       q    Type
REMARK                         _______ _______ _______ _____ _____    ______ ____
ROOT
ATOM      1  C   UNL     1      44.609   4.320  10.594  0.00  0.00    +0.000 A 
ATOM      2  C   UNL     1      43.777   3.284  11.052  0.00  0.00    +0.000 A 
ATOM      3  C   UNL     1      43.778   2.024  10.462  0.00  0.00    +0.000 A 
ATOM      4  C   UNL     1      44.601   1.772   9.369  0.00  0.00    +0.000 A 
ATOM      5  C   UNL     1      45.455   2.765   8.863  0.00  0.00    +0.000 A 
ATOM      6  C   UNL     1      45.466   4.014   9.522  0.00  0.00    +0.000 A 
ENDROOT
BRANCH   5   7
ATOM      7  C   UNL     1      46.256   2.546   7.645  0.00  0.00    +0.000 A 
ATOM      8  C   UNL     1      46.249   3.446   6.570  0.00  0.00    +0.000 A 
ATOM      9  C   UNL     1      46.972   3.173   5.410  0.00  0.00    +0.000 A 
ATOM     10  C   UNL     1      47.705   2.002   5.353  0.00  0.00    +0.000 A 
ATOM     11  N   UNL     1      47.758   1.106   6.358  0.00  0.00    +0.000 NA
ATOM     12  C   UNL     1      47.033   1.397   7.467  0.00  0.00    +0.000 A 
ENDBRANCH   5   7
BRANCH   1  13
ATOM     13  C   UNL     1      44.500   5.729  11.169  0.00  0.00    +0.000 C 
ATOM     14  C   UNL     1      43.161   6.464  11.124  0.00  0.00    +0.000 C 
ATOM     15  C   UNL     1      43.652   5.894  12.413  0.00  0.00    +0.000 C 
BRANCH  13  16
ATOM     16  O   UNL     1      45.589   6.658  10.925  0.00  0.00    +0.000 OA
BRANCH  16  20
ATOM     17  C   UNL     1      47.950   7.420  14.195  0.00  0.00    +0.000 A 
ATOM     18  C   UNL     1      47.713   6.103  13.802  0.00  0.00    +0.000 A 
ATOM     19  C   UNL     1      46.936   5.862  12.677  0.00  0.00    +0.000 A 
ATOM     20  C   UNL     1      46.408   6.946  12.000  0.00  0.00    +0.000 A 
ATOM     21  N   UNL     1      46.660   8.233  12.327  0.00  0.00    +0.000 NA
ATOM     22  C   UNL     1      47.419   8.439  13.424  0.00  0.00    +0.000 A 
ENDBRANCH  16  20
ENDBRANCH  13  16
ENDBRANCH   1  13
TORSDOF 4
ENDMDL
MODEL 8
REMARK VINA RESULT:    -6.226      2.636      3.575
REMARK INTER + INTRA:          -8.420
REMARK INTER:                  -7.557
REMARK INTRA:                  -0.862
REMARK UNBOUND:                -0.737
REMARK  Name = 
REMARK  4 active torsions:
REMARK  status: ('A' for Active; 'I' for Inactive)
REMARK    1  A    between atoms: C_4  and  O_5
REMARK    2  A    between atoms: O_5  and  C_6
REMARK    3  A    between atoms: C_6  and  C_7
REMARK    4  A    between atoms: C_11  and  C_12
REMARK                            x       y       z     vdW  Elec       q    Type
REMARK                         _______ _______ _______ _____ _____    ______ ____
ROOT
ATOM      1  C   UNL     1      44.846   6.677  12.310  0.00  0.00    +0.000 A 
ATOM      2  C   UNL     1      46.099   6.711  12.946  0.00  0.00    +0.000 A 
ATOM      3  C   UNL     1      46.862   7.874  13.006  0.00  0.00    +0.000 A 
ATOM      4  C   UNL     1      46.397   9.037  12.401  0.00  0.00    +0.000 A 
ATOM      5  C   UNL     1      45.155   9.068  11.749  0.00  0.00    +0.000 A 
ATOM      6  C   UNL     1      44.385   7.884  11.755  0.00  0.00    +0.000 A 
ENDROOT
BRANCH   5   7
ATOM      7  C   UNL     1      44.696  10.262  11.017  0.00  0.00    +0.000 A 
ATOM      8  C   UNL     1      43.533  10.262  10.233  0.00  0.00    +0.000 A 
ATOM      9  C   UNL     1      43.167  11.393   9.506  0.00  0.00    +0.000 A 
ATOM     10  C   UNL     1      43.969  12.517   9.589  0.00  0.00    +0.000 A 
ATOM     11  N   UNL     1      45.091  12.579  10.333  0.00  0.00    +0.000 NA
ATOM     12  C   UNL     1      45.426  11.456  11.018  0.00  0.00    +0.000 A 
ENDBRANCH   5   7
BRANCH   1  13
ATOM     13  C   UNL     1      44.086   5.364  12.142  0.00  0.00    +0.000 C 
ATOM     14  C   UNL     1      42.917   5.041  13.072  0.00  0.00    +0.000 C 
ATOM     15  C   UNL     1      42.652   5.461  11.665  0.00  0.00    +0.000 C 
BRANCH  13  16
ATOM     16  O   UNL     1      44.847   4.160  11.859  0.00  0.00    +0.000 OA
BRANCH  16  20
ATOM     17  C   UNL     1      45.048   3.159   7.883  0.00  0.00    +0.000 A 
ATOM     18  C   UNL     1      45.513   4.403   8.310  0.00  0.00    +0.000 A 
ATOM     19  C   UNL     1      45.464   4.716   9.662  0.00  0.00    +0.000 A 
ATOM     20  C   UNL     1      44.934   3.782  10.533  0.00  0.00    +0.000 A 
ATOM     21  N   UNL     1      44.523   2.550  10.156  0.00  0.00    +0.000 NA
ATOM     22  C   UNL     1      44.582   2.272   8.837  0.00  0.00    +0.000 A 
ENDBRANCH  16  20
ENDBRANCH  13  16
ENDBRANCH   1  13
TORSDOF 4
ENDMDL
MODEL 9
REMARK VINA RESULT:    -5.933      3.089      7.265
REMARK INTER + INTRA:          -8.058
REMARK INTER:                  -7.249
REMARK INTRA:                  -0.809
REMARK UNBOUND:                -0.737
REMARK  Name = 
REMARK  4 active torsions:
REMARK  status: ('A' for Active; 'I' for Inactive)
REMARK    1  A    between atoms: C_4  and  O_5
REMARK    2  A    between atoms: O_5  and  C_6
REMARK    3  A    between atoms: C_6  and  C_7
REMARK    4  A    between atoms: C_11  and  C_12
REMARK                            x       y       z     vdW  Elec       q    Type
REMARK                         _______ _______ _______ _____ _____    ______ ____
ROOT
ATOM      1  C   UNL     1      47.605   7.708  12.644  0.00  0.00    +0.000 A 
ATOM      2  C   UNL     1      46.864   8.896  12.515  0.00  0.00    +0.000 A 
ATOM      3  C   UNL     1      45.493   8.885  12.276  0.00  0.00    +0.000 A 
ATOM      4  C   UNL     1      44.825   7.673  12.132  0.00  0.00    +0.000 A 
ATOM      5  C   UNL     1      45.508   6.453  12.248  0.00  0.00    +0.000 A 
ATOM      6  C   UNL     1      46.888   6.502  12.545  0.00  0.00    +0.000 A 
ENDROOT
BRANCH   5   7
ATOM      7  C   UNL     1      44.836   5.165  11.997  0.00  0.00    +0.000 A 
ATOM      8  C   UNL     1      44.665   4.647  10.705  0.00  0.00    +0.000 A 
ATOM      9  C   UNL     1      43.969   3.456  10.505  0.00  0.00    +0.000 A 
ATOM     10  C   UNL     1      43.466   2.794  11.609  0.00  0.00    +0.000 A 
ATOM     11  N   UNL     1      43.609   3.238  12.873  0.00  0.00    +0.000 NA
ATOM     12  C   UNL     1      44.281   4.406  13.032  0.00  0.00    +0.000 A 
ENDBRANCH   5   7
BRANCH   1  13
ATOM     13  C   UNL     1      49.125   7.740  12.776  0.00  0.00    +0.000 C 
ATOM     14  C   UNL     1      49.993   7.821  11.520  0.00  0.00    +0.000 C 
ATOM     15  C   UNL     1      49.817   9.028  12.380  0.00  0.00    +0.000 C 
BRANCH  13  16
ATOM     16  O   UNL     1      49.749   6.874  13.760  0.00  0.00    +0.000 OA
BRANCH  16  20
ATOM     17  C   UNL     1      48.553   7.323  17.661  0.00  0.00    +0.000 A 
ATOM     18  C   UNL     1      49.000   8.431  16.940  0.00  0.00    +0.000 A 
ATOM     19  C   UNL     1      49.374   8.268  15.613  0.00  0.00    +0.000 A 
ATOM     20  C   UNL     1      49.307   7.001  15.063  0.00  0.00    +0.000 A 
ATOM     21  N   UNL     1      48.831   5.920  15.720  0.00  0.00    +0.000 NA
ATOM     22  C   UNL     1      48.474   6.106  17.008  0.00  0.00    +0.000 A 
ENDBRANCH  16  20
ENDBRANCH  13  16
ENDBRANCH   1  13
TORSDOF 4
ENDMDL
