MODEL 1
REMARK VINA RESULT:    -8.479      0.000      0.000
REMARK INTER + INTRA:         -12.844
REMARK INTER:                 -11.948
REMARK INTRA:                  -0.896
REMARK UNBOUND:                -0.896
REMARK  Name = 
REMARK  7 active torsions:
REMARK  status: ('A' for Active; 'I' for Inactive)
REMARK    1  A    between atoms: C_2  and  C_3
REMARK    2  A    between atoms: C_2  and  C_19
REMARK    3  A    between atoms: C_3  and  C_4
REMARK    4  A    between atoms: C_4  and  C_5
REMARK    5  A    between atoms: C_8  and  C_9
REMARK    6  A    between atoms: C_9  and  N_10
REMARK    7  A    between atoms: N_10  and  C_11
REMARK                            x       y       z     vdW  Elec       q    Type
REMARK                         _______ _______ _______ _____ _____    ______ ____
ROOT
ATOM      1  C   UNL     1      46.542   4.988  14.346  0.00  0.00    +0.000 C 
ENDROOT
BRANCH   1   2
ATOM      2  C   UNL     1      46.005   4.758  12.953  0.00  0.00    +0.000 A 
ATOM      3  C   UNL     1      45.365   3.557  12.621  0.00  0.00    +0.000 A 
ATOM      4  C   UNL     1      44.888   3.342  11.328  0.00  0.00    +0.000 A 
ATOM      5  C   UNL     1      45.023   4.329  10.343  0.00  0.00    +0.000 A 
ATOM      6  C   UNL     1      45.648   5.538  10.679  0.00  0.00    +0.000 A 
ATOM      7  C   UNL     1      46.133   5.748  11.972  0.00  0.00    +0.000 A 
BRANCH   5   8
ATOM      8  C   UNL     1      44.552   4.074   8.931  0.00  0.00    +0.000 C 
BRANCH   8   9
ATOM      9  N   UNL     1      45.618   4.305   7.957  0.00  0.00    +0.000 NA
ATOM     10  H   UNL     1      46.448   4.621   8.457  0.00  0.00    +0.000 HD
BRANCH   9  11
ATOM     11  C   UNL     1      45.944   3.116   7.155  0.00  0.00    +0.000 C 
ATOM     12  C   UNL     1      46.530   2.041   8.082  0.00  0.00    +0.000 C 
ATOM     13  C   UNL     1      46.995   0.830   7.283  0.00  0.00    +0.000 C 
ATOM     14  O   UNL     1      47.930   1.210   6.276  0.00  0.00    +0.000 OA
ATOM     15  C   UNL     1      47.366   2.120   5.336  0.00  0.00    +0.000 C 
ATOM     16  C   UNL     1      46.935   3.409   6.020  0.00  0.00    +0.000 C 
ENDBRANCH   9  11
ENDBRANCH   8   9
ENDBRANCH   5   8
ENDBRANCH   1   2
BRANCH   1  17
ATOM     17  C   UNL     1      47.341   3.790  14.855  0.00  0.00    +0.000 C 
BRANCH  17  19
ATOM     18  O   UNL     1      46.485   3.301  17.043  0.00  0.00    +0.000 OA
ATOM     19  C   UNL     1      47.410   3.752  16.373  0.00  0.00    +0.000 C 
BRANCH  19  20
ATOM     20  C   UNL     1      48.601   4.322  17.015  0.00  0.00    +0.000 A 
ATOM     21  C   UNL     1      48.674   5.636  17.449  0.00  0.00    +0.000 A 
ATOM     22  S   UNL     1      50.134   5.997  18.260  0.00  0.00    +0.000 S 
ATOM     23  C   UNL     1      50.719   4.416  18.028  0.00  0.00    +0.000 A 
ATOM     24  N   UNL     1      51.939   4.043  18.499  0.00  0.00    +0.000 NA
ATOM     25  C   UNL     1      52.248   2.814  18.252  0.00  0.00    +0.000 A 
ATOM     26  N   UNL     1      51.457   1.929  17.562  0.00  0.00    +0.000 N 
ATOM     27  C   UNL     1      50.260   2.287  16.984  0.00  0.00    +0.000 A 
ATOM     28  O   UNL     1      49.690   1.536  16.202  0.00  0.00    +0.000 OA
ATOM     29  C   UNL     1      49.827   3.634  17.317  0.00  0.00    +0.000 A 
ATOM     30  H   UNL     1      51.788   1.002  17.341  0.00  0.00    +0.000 HD
ENDBRANCH  19  20
ENDBRANCH  17  19
ENDBRANCH   1  17
TORSDOF 7
ENDMDL
MODEL 2
REMARK VINA RESULT:    -7.440      1.418      2.118
REMARK INTER + INTRA:         -11.380
REMARK INTER:                 -10.209
REMARK INTRA:                  -1.171
REMARK UNBOUND:                -0.896
REMARK  Name = 
REMARK  7 active torsions:
REMARK  status: ('A' for Active; 'I' for Inactive)
REMARK    1  A    between atoms: C_2  and  C_3
REMARK    2  A    between atoms: C_2  and  C_19
REMARK    3  A    between atoms: C_3  and  C_4
REMARK    4  A    between atoms: C_4  and  C_5
REMARK    5  A    between atoms: C_8  and  C_9
REMARK    6  A    between atoms: C_9  and  N_10
REMARK    7  A    between atoms: N_10  and  C_11
REMARK                            x       y       z     vdW  Elec       q    Type
REMARK                         _______ _______ _______ _____ _____    ______ ____
ROOT
ATOM      1  C   UNL     1      48.192   5.257  15.457  0.00  0.00    +0.000 C 
ENDROOT
BRANCH   1   2
ATOM      2  C   UNL     1      47.393   5.372  14.181  0.00  0.00    +0.000 A 
ATOM      3  C   UNL     1      47.573   6.461  13.318  0.00  0.00    +0.000 A 
ATOM      4  C   UNL     1      46.819   6.572  12.150  0.00  0.00    +0.000 A 
ATOM      5  C   UNL     1      45.881   5.589  11.808  0.00  0.00    +0.000 A 
ATOM      6  C   UNL     1      45.712   4.491  12.663  0.00  0.00    +0.000 A 
ATOM      7  C   UNL     1      46.462   4.385  13.837  0.00  0.00    +0.000 A 
BRANCH   5   8
ATOM      8  C   UNL     1      45.030   5.738  10.570  0.00  0.00    +0.000 C 
BRANCH   8   9
ATOM      9  N   UNL     1      44.198   4.557  10.341  0.00  0.00    +0.000 NA
ATOM     10  H   UNL     1      43.231   4.862  10.229  0.00  0.00    +0.000 HD
BRANCH   9  11
ATOM     11  C   UNL     1      44.610   3.770   9.170  0.00  0.00    +0.000 C 
ATOM     12  C   UNL     1      45.042   2.374   9.641  0.00  0.00    +0.000 C 
ATOM     13  C   UNL     1      45.590   1.555   8.478  0.00  0.00    +0.000 C 
ATOM     14  O   UNL     1      46.663   2.237   7.833  0.00  0.00    +0.000 OA
ATOM     15  C   UNL     1      46.253   3.487   7.287  0.00  0.00    +0.000 C 
ATOM     16  C   UNL     1      45.755   4.421   8.380  0.00  0.00    +0.000 C 
ENDBRANCH   9  11
ENDBRANCH   8   9
ENDBRANCH   5   8
ENDBRANCH   1   2
BRANCH   1  17
ATOM     17  C   UNL     1      47.300   4.988  16.668  0.00  0.00    +0.000 C 
BRANCH  17  19
ATOM     18  O   UNL     1      47.096   2.916  17.862  0.00  0.00    +0.000 OA
ATOM     19  C   UNL     1      47.824   3.845  17.521  0.00  0.00    +0.000 C 
BRANCH  19  20
ATOM     20  C   UNL     1      49.221   3.915  17.970  0.00  0.00    +0.000 A 
ATOM     21  C   UNL     1      49.706   4.925  18.785  0.00  0.00    +0.000 A 
ATOM     22  S   UNL     1      51.336   4.694  19.241  0.00  0.00    +0.000 S 
ATOM     23  C   UNL     1      51.445   3.256  18.339  0.00  0.00    +0.000 A 
ATOM     24  N   UNL     1      52.596   2.532  18.308  0.00  0.00    +0.000 NA
ATOM     25  C   UNL     1      52.529   1.464  17.586  0.00  0.00    +0.000 A 
ATOM     26  N   UNL     1      51.423   1.062  16.880  0.00  0.00    +0.000 N 
ATOM     27  C   UNL     1      50.269   1.809  16.805  0.00  0.00    +0.000 A 
ATOM     28  O   UNL     1      49.390   1.527  16.000  0.00  0.00    +0.000 OA
ATOM     29  C   UNL     1      50.265   2.971  17.677  0.00  0.00    +0.000 A 
ATOM     30  H   UNL     1      51.459   0.252  16.277  0.00  0.00    +0.000 HD
ENDBRANCH  19  20
ENDBRANCH  17  19
ENDBRANCH   1  17
TORSDOF 7
ENDMDL
MODEL 3
REMARK VINA RESULT:    -7.356      1.322      2.316
REMARK INTER + INTRA:         -11.261
REMARK INTER:                 -10.598
REMARK INTRA:                  -0.663
REMARK UNBOUND:                -0.896
REMARK  Name = 
REMARK  7 active torsions:
REMARK  status: ('A' for Active; 'I' for Inactive)
REMARK    1  A    between atoms: C_2  and  C_3
REMARK    2  A    between atoms: C_2  and  C_19
REMARK    3  A    between atoms: C_3  and  C_4
REMARK    4  A    between atoms: C_4  and  C_5
REMARK    5  A    between atoms: C_8  and  C_9
REMARK    6  A    between atoms: C_9  and  N_10
REMARK    7  A    between atoms: N_10  and  C_11
REMARK                            x       y       z     vdW  Elec       q    Type
REMARK                         _______ _______ _______ _____ _____    ______ ____
ROOT
ATOM      1  C   UNL     1      46.577   4.798  14.406  0.00  0.00    +0.000 C 
ENDROOT
BRANCH   1   2
ATOM      2  C   UNL     1      46.056   4.634  12.998  0.00  0.00    +0.000 A 
ATOM      3  C   UNL     1      46.137   5.685  12.076  0.00  0.00    +0.000 A 
ATOM      4  C   UNL     1      45.638   5.535  10.782  0.00  0.00    +0.000 A 
ATOM      5  C   UNL     1      45.062   4.323  10.375  0.00  0.00    +0.000 A 
ATOM      6  C   UNL     1      44.996   3.265  11.292  0.00  0.00    +0.000 A 
ATOM      7  C   UNL     1      45.489   3.420  12.590  0.00  0.00    +0.000 A 
BRANCH   5   8
ATOM      8  C   UNL     1      44.476   4.180   8.991  0.00  0.00    +0.000 C 
BRANCH   8   9
ATOM      9  N   UNL     1      45.465   4.472   7.954  0.00  0.00    +0.000 NA
ATOM     10  H   UNL     1      45.961   5.326   8.213  0.00  0.00    +0.000 HD
BRANCH   9  11
ATOM     11  C   UNL     1      46.429   3.383   7.741  0.00  0.00    +0.000 C 
ATOM     12  C   UNL     1      46.849   3.377   6.265  0.00  0.00    +0.000 C 
ATOM     13  C   UNL     1      47.759   2.192   5.964  0.00  0.00    +0.000 C 
ATOM     14  O   UNL     1      47.135   0.963   6.328  0.00  0.00    +0.000 OA
ATOM     15  C   UNL     1      46.842   0.902   7.721  0.00  0.00    +0.000 C 
ATOM     16  C   UNL     1      45.871   2.003   8.120  0.00  0.00    +0.000 C 
ENDBRANCH   9  11
ENDBRANCH   8   9
ENDBRANCH   5   8
ENDBRANCH   1   2
BRANCH   1  17
ATOM     17  C   UNL     1      47.391   3.587  14.859  0.00  0.00    +0.000 C 
BRANCH  17  19
ATOM     18  O   UNL     1      46.592   3.732  17.117  0.00  0.00    +0.000 OA
ATOM     19  C   UNL     1      47.546   3.535  16.369  0.00  0.00    +0.000 C 
BRANCH  19  20
ATOM     20  C   UNL     1      48.891   3.291  16.908  0.00  0.00    +0.000 A 
ATOM     21  C   UNL     1      49.521   2.059  16.845  0.00  0.00    +0.000 A 
ATOM     22  S   UNL     1      51.120   2.091  17.446  0.00  0.00    +0.000 S 
ATOM     23  C   UNL     1      51.003   3.744  17.832  0.00  0.00    +0.000 A 
ATOM     24  N   UNL     1      52.051   4.413  18.382  0.00  0.00    +0.000 NA
ATOM     25  C   UNL     1      51.817   5.661  18.617  0.00  0.00    +0.000 A 
ATOM     26  N   UNL     1      50.627   6.297  18.368  0.00  0.00    +0.000 N 
ATOM     27  C   UNL     1      49.510   5.641  17.902  0.00  0.00    +0.000 A 
ATOM     28  O   UNL     1      48.416   6.192  17.895  0.00  0.00    +0.000 OA
ATOM     29  C   UNL     1      49.754   4.257  17.534  0.00  0.00    +0.000 A 
ATOM     30  H   UNL     1      50.486   7.259  18.640  0.00  0.00    +0.000 HD
ENDBRANCH  19  20
ENDBRANCH  17  19
ENDBRANCH   1  17
TORSDOF 7
ENDMDL
MODEL 4
REMARK VINA RESULT:    -7.332      5.103      6.814
REMARK INTER + INTRA:         -11.228
REMARK INTER:                  -9.707
REMARK INTRA:                  -1.521
REMARK UNBOUND:                -0.896
REMARK  Name = 
REMARK  7 active torsions:
REMARK  status: ('A' for Active; 'I' for Inactive)
REMARK    1  A    between atoms: C_2  and  C_3
REMARK    2  A    between atoms: C_2  and  C_19
REMARK    3  A    between atoms: C_3  and  C_4
REMARK    4  A    between atoms: C_4  and  C_5
REMARK    5  A    between atoms: C_8  and  C_9
REMARK    6  A    between atoms: C_9  and  N_10
REMARK    7  A    between atoms: N_10  and  C_11
REMARK                            x       y       z     vdW  Elec       q    Type
REMARK                         _______ _______ _______ _____ _____    ______ ____
ROOT
ATOM      1  C   UNL     1      47.901   6.843  13.614  0.00  0.00    +0.000 C 
ENDROOT
BRANCH   1   2
ATOM      2  C   UNL     1      46.910   6.097  12.752  0.00  0.00    +0.000 A 
ATOM      3  C   UNL     1      46.173   5.025  13.270  0.00  0.00    +0.000 A 
ATOM      4  C   UNL     1      45.272   4.327  12.464  0.00  0.00    +0.000 A 
ATOM      5  C   UNL     1      45.075   4.698  11.127  0.00  0.00    +0.000 A 
ATOM      6  C   UNL     1      45.800   5.781  10.612  0.00  0.00    +0.000 A 
ATOM      7  C   UNL     1      46.708   6.473  11.418  0.00  0.00    +0.000 A 
BRANCH   5   8
ATOM      8  C   UNL     1      44.139   3.909  10.244  0.00  0.00    +0.000 C 
BRANCH   8   9
ATOM      9  N   UNL     1      44.230   4.333   8.847  0.00  0.00    +0.000 NA
ATOM     10  H   UNL     1      44.694   5.241   8.816  0.00  0.00    +0.000 HD
BRANCH   9  11
ATOM     11  C   UNL     1      44.952   3.377   7.993  0.00  0.00    +0.000 C 
ATOM     12  C   UNL     1      45.318   2.145   8.831  0.00  0.00    +0.000 C 
ATOM     13  C   UNL     1      46.171   1.173   8.024  0.00  0.00    +0.000 C 
ATOM     14  O   UNL     1      47.337   1.817   7.515  0.00  0.00    +0.000 OA
ATOM     15  C   UNL     1      47.015   2.895   6.639  0.00  0.00    +0.000 C 
ATOM     16  C   UNL     1      46.224   3.970   7.369  0.00  0.00    +0.000 C 
ENDBRANCH   9  11
ENDBRANCH   8   9
ENDBRANCH   5   8
ENDBRANCH   1   2
BRANCH   1  17
ATOM     17  C   UNL     1      48.602   7.960  12.842  0.00  0.00    +0.000 C 
BRANCH  17  19
ATOM     18  O   UNL     1      48.249   9.558  14.597  0.00  0.00    +0.000 OA
ATOM     19  C   UNL     1      48.258   9.335  13.389  0.00  0.00    +0.000 C 
BRANCH  19  20
ATOM     20  C   UNL     1      47.884  10.377  12.425  0.00  0.00    +0.000 A 
ATOM     21  C   UNL     1      48.773  11.331  11.955  0.00  0.00    +0.000 A 
ATOM     22  S   UNL     1      48.098  12.347  10.759  0.00  0.00    +0.000 S 
ATOM     23  C   UNL     1      46.593  11.559  10.857  0.00  0.00    +0.000 A 
ATOM     24  N   UNL     1      45.549  11.938  10.072  0.00  0.00    +0.000 NA
ATOM     25  C   UNL     1      44.473  11.249  10.254  0.00  0.00    +0.000 A 
ATOM     26  N   UNL     1      44.340  10.226  11.160  0.00  0.00    +0.000 N 
ATOM     27  C   UNL     1      45.336   9.871  12.041  0.00  0.00    +0.000 A 
ATOM     28  O   UNL     1      45.109   9.105  12.971  0.00  0.00    +0.000 OA
ATOM     29  C   UNL     1      46.596  10.556  11.809  0.00  0.00    +0.000 A 
ATOM     30  H   UNL     1      43.449   9.773  11.303  0.00  0.00    +0.000 HD
ENDBRANCH  19  20
ENDBRANCH  17  19
ENDBRANCH   1  17
TORSDOF 7
ENDMDL
MODEL 5
REMARK VINA RESULT:    -7.297      2.314      2.938
REMARK INTER + INTRA:         -11.179
REMARK INTER:                 -10.235
REMARK INTRA:                  -0.944
REMARK UNBOUND:                -0.896
REMARK  Name = 
REMARK  7 active torsions:
REMARK  status: ('A' for Active; 'I' for Inactive)
REMARK    1  A    between atoms: C_2  and  C_3
REMARK    2  A    between atoms: C_2  and  C_19
REMARK    3  A    between atoms: C_3  and  C_4
REMARK    4  A    between atoms: C_4  and  C_5
REMARK    5  A    between atoms: C_8  and  C_9
REMARK    6  A    between atoms: C_9  and  N_10
REMARK    7  A    between atoms: N_10  and  C_11
REMARK                            x       y       z     vdW  Elec       q    Type
REMARK                         _______ _______ _______ _____ _____    ______ ____
ROOT
ATOM      1  C   UNL     1      47.957   6.553  14.059  0.00  0.00    +0.000 C 
ENDROOT
BRANCH   1   2
ATOM      2  C   UNL     1      46.944   5.946  13.117  0.00  0.00    +0.000 A 
ATOM      3  C   UNL     1      46.695   6.522  11.865  0.00  0.00    +0.000 A 
ATOM      4  C   UNL     1      45.746   5.968  11.005  0.00  0.00    +0.000 A 
ATOM      5  C   UNL     1      45.037   4.816  11.371  0.00  0.00    +0.000 A 
ATOM      6  C   UNL     1      45.298   4.229  12.617  0.00  0.00    +0.000 A 
ATOM      7  C   UNL     1      46.243   4.790  13.480  0.00  0.00    +0.000 A 
BRANCH   5   8
ATOM      8  C   UNL     1      43.974   4.249  10.461  0.00  0.00    +0.000 C 
BRANCH   8   9
ATOM      9  N   UNL     1      44.184   4.649   9.070  0.00  0.00    +0.000 NA
ATOM     10  H   UNL     1      44.776   5.480   9.061  0.00  0.00    +0.000 HD
BRANCH   9  11
ATOM     11  C   UNL     1      44.794   3.596   8.245  0.00  0.00    +0.000 C 
ATOM     12  C   UNL     1      44.956   2.331   9.099  0.00  0.00    +0.000 C 
ATOM     13  C   UNL     1      45.691   1.244   8.325  0.00  0.00    +0.000 C 
ATOM     14  O   UNL     1      46.952   1.714   7.855  0.00  0.00    +0.000 OA
ATOM     15  C   UNL     1      46.815   2.819   6.965  0.00  0.00    +0.000 C 
ATOM     16  C   UNL     1      46.157   4.000   7.664  0.00  0.00    +0.000 C 
ENDBRANCH   9  11
ENDBRANCH   8   9
ENDBRANCH   5   8
ENDBRANCH   1   2
BRANCH   1  17
ATOM     17  C   UNL     1      48.073   5.760  15.360  0.00  0.00    +0.000 C 
BRANCH  17  19
ATOM     18  O   UNL     1      50.353   6.304  15.875  0.00  0.00    +0.000 OA
ATOM     19  C   UNL     1      49.184   6.287  16.253  0.00  0.00    +0.000 C 
BRANCH  19  20
ATOM     20  C   UNL     1      48.821   6.727  17.605  0.00  0.00    +0.000 A 
ATOM     21  C   UNL     1      48.482   8.036  17.912  0.00  0.00    +0.000 A 
ATOM     22  S   UNL     1      47.994   8.240  19.536  0.00  0.00    +0.000 S 
ATOM     23  C   UNL     1      48.249   6.593  19.880  0.00  0.00    +0.000 A 
ATOM     24  N   UNL     1      48.006   6.089  21.120  0.00  0.00    +0.000 NA
ATOM     25  C   UNL     1      48.242   4.825  21.232  0.00  0.00    +0.000 A 
ATOM     26  N   UNL     1      48.714   4.022  20.223  0.00  0.00    +0.000 N 
ATOM     27  C   UNL     1      49.064   4.505  18.983  0.00  0.00    +0.000 A 
ATOM     28  O   UNL     1      49.678   3.805  18.186  0.00  0.00    +0.000 OA
ATOM     29  C   UNL     1      48.727   5.904  18.781  0.00  0.00    +0.000 A 
ATOM     30  H   UNL     1      48.944   3.055  20.396  0.00  0.00    +0.000 HD
ENDBRANCH  19  20
ENDBRANCH  17  19
ENDBRANCH   1  17
TORSDOF 7
ENDMDL
MODEL 6
REMARK VINA RESULT:    -7.041      3.023      9.171
REMARK INTER + INTRA:         -10.817
REMARK INTER:                  -9.574
REMARK INTRA:                  -1.244
REMARK UNBOUND:                -0.896
REMARK  Name = 
REMARK  7 active torsions:
REMARK  status: ('A' for Active; 'I' for Inactive)
REMARK    1  A    between atoms: C_2  and  C_3
REMARK    2  A    between atoms: C_2  and  C_19
REMARK    3  A    between atoms: C_3  and  C_4
REMARK    4  A    between atoms: C_4  and  C_5
REMARK    5  A    between atoms: C_8  and  C_9
REMARK    6  A    between atoms: C_9  and  N_10
REMARK    7  A    between atoms: N_10  and  C_11
REMARK                            x       y       z     vdW  Elec       q    Type
REMARK                         _______ _______ _______ _____ _____    ______ ____
ROOT
ATOM      1  C   UNL     1      47.092   6.268  12.514  0.00  0.00    +0.000 C 
ENDROOT
BRANCH   1   2
ATOM      2  C   UNL     1      47.501   5.842  13.904  0.00  0.00    +0.000 A 
ATOM      3  C   UNL     1      48.409   6.605  14.650  0.00  0.00    +0.000 A 
ATOM      4  C   UNL     1      48.798   6.197  15.926  0.00  0.00    +0.000 A 
ATOM      5  C   UNL     1      48.275   5.027  16.493  0.00  0.00    +0.000 A 
ATOM      6  C   UNL     1      47.354   4.272  15.754  0.00  0.00    +0.000 A 
ATOM      7  C   UNL     1      46.972   4.677  14.473  0.00  0.00    +0.000 A 
BRANCH   5   8
ATOM      8  C   UNL     1      48.737   4.561  17.853  0.00  0.00    +0.000 C 
BRANCH   8   9
ATOM      9  N   UNL     1      50.163   4.818  18.056  0.00  0.00    +0.000 NA
ATOM     10  H   UNL     1      50.265   5.467  18.836  0.00  0.00    +0.000 HD
BRANCH   9  11
ATOM     11  C   UNL     1      50.944   3.600  18.317  0.00  0.00    +0.000 C 
ATOM     12  C   UNL     1      52.438   3.945  18.233  0.00  0.00    +0.000 C 
ATOM     13  C   UNL     1      53.293   2.693  18.380  0.00  0.00    +0.000 C 
ATOM     14  O   UNL     1      52.934   1.711  17.409  0.00  0.00    +0.000 OA
ATOM     15  C   UNL     1      51.579   1.292  17.546  0.00  0.00    +0.000 C 
ATOM     16  C   UNL     1      50.626   2.460  17.339  0.00  0.00    +0.000 C 
ENDBRANCH   9  11
ENDBRANCH   8   9
ENDBRANCH   5   8
ENDBRANCH   1   2
BRANCH   1  17
ATOM     17  C   UNL     1      45.930   7.260  12.541  0.00  0.00    +0.000 C 
BRANCH  17  19
ATOM     18  O   UNL     1      44.087   7.638  11.050  0.00  0.00    +0.000 OA
ATOM     19  C   UNL     1      44.783   6.820  11.646  0.00  0.00    +0.000 C 
BRANCH  19  20
ATOM     20  C   UNL     1      44.501   5.381  11.559  0.00  0.00    +0.000 A 
ATOM     21  C   UNL     1      43.872   4.669  12.568  0.00  0.00    +0.000 A 
ATOM     22  S   UNL     1      43.570   3.040  12.152  0.00  0.00    +0.000 S 
ATOM     23  C   UNL     1      44.298   3.235  10.626  0.00  0.00    +0.000 A 
ATOM     24  N   UNL     1      44.367   2.202   9.744  0.00  0.00    +0.000 NA
ATOM     25  C   UNL     1      44.942   2.498   8.627  0.00  0.00    +0.000 A 
ATOM     26  N   UNL     1      45.470   3.727   8.318  0.00  0.00    +0.000 N 
ATOM     27  C   UNL     1      45.509   4.772   9.213  0.00  0.00    +0.000 A 
ATOM     28  O   UNL     1      46.174   5.775   8.979  0.00  0.00    +0.000 OA
ATOM     29  C   UNL     1      44.789   4.514  10.448  0.00  0.00    +0.000 A 
ATOM     30  H   UNL     1      45.970   3.873   7.454  0.00  0.00    +0.000 HD
ENDBRANCH  19  20
ENDBRANCH  17  19
ENDBRANCH   1  17
TORSDOF 7
ENDMDL
MODEL 7
REMARK VINA RESULT:    -7.002      3.750      9.918
REMARK INTER + INTRA:         -10.763
REMARK INTER:                  -9.501
REMARK INTRA:                  -1.261
REMARK UNBOUND:                -0.896
REMARK  Name = 
REMARK  7 active torsions:
REMARK  status: ('A' for Active; 'I' for Inactive)
REMARK    1  A    between atoms: C_2  and  C_3
REMARK    2  A    between atoms: C_2  and  C_19
REMARK    3  A    between atoms: C_3  and  C_4
REMARK    4  A    between atoms: C_4  and  C_5
REMARK    5  A    between atoms: C_8  and  C_9
REMARK    6  A    between atoms: C_9  and  N_10
REMARK    7  A    between atoms: N_10  and  C_11
REMARK                            x       y       z     vdW  Elec       q    Type
REMARK                         _______ _______ _______ _____ _____    ______ ____
ROOT
ATOM      1  C   UNL     1      47.191   6.182  12.369  0.00  0.00    +0.000 C 
ENDROOT
BRANCH   1   2
ATOM      2  C   UNL     1      47.491   5.800  13.799  0.00  0.00    +0.000 A 
ATOM      3  C   UNL     1      46.948   4.636  14.359  0.00  0.00    +0.000 A 
ATOM      4  C   UNL     1      47.212   4.297  15.686  0.00  0.00    +0.000 A 
ATOM      5  C   UNL     1      48.042   5.102  16.478  0.00  0.00    +0.000 A 
ATOM      6  C   UNL     1      48.601   6.257  15.913  0.00  0.00    +0.000 A 
ATOM      7  C   UNL     1      48.327   6.601  14.586  0.00  0.00    +0.000 A 
BRANCH   5   8
ATOM      8  C   UNL     1      48.286   4.760  17.927  0.00  0.00    +0.000 C 
BRANCH   8   9
ATOM      9  N   UNL     1      47.124   5.073  18.758  0.00  0.00    +0.000 NA
ATOM     10  H   UNL     1      46.707   4.196  19.072  0.00  0.00    +0.000 HD
BRANCH   9  11
ATOM     11  C   UNL     1      47.445   5.914  19.921  0.00  0.00    +0.000 C 
ATOM     12  C   UNL     1      47.690   7.350  19.439  0.00  0.00    +0.000 C 
ATOM     13  C   UNL     1      48.142   8.240  20.590  0.00  0.00    +0.000 C 
ATOM     14  O   UNL     1      49.302   7.704  21.225  0.00  0.00    +0.000 OA
ATOM     15  C   UNL     1      49.061   6.415  21.782  0.00  0.00    +0.000 C 
ATOM     16  C   UNL     1      48.673   5.419  20.700  0.00  0.00    +0.000 C 
ENDBRANCH   9  11
ENDBRANCH   8   9
ENDBRANCH   5   8
ENDBRANCH   1   2
BRANCH   1  17
ATOM     17  C   UNL     1      46.238   7.373  12.285  0.00  0.00    +0.000 C 
BRANCH  17  19
ATOM     18  O   UNL     1      44.249   7.881  11.041  0.00  0.00    +0.000 OA
ATOM     19  C   UNL     1      44.942   7.019  11.575  0.00  0.00    +0.000 C 
BRANCH  19  20
ATOM     20  C   UNL     1      44.519   5.612  11.593  0.00  0.00    +0.000 A 
ATOM     21  C   UNL     1      43.852   5.034  12.661  0.00  0.00    +0.000 A 
ATOM     22  S   UNL     1      43.382   3.418  12.364  0.00  0.00    +0.000 S 
ATOM     23  C   UNL     1      44.082   3.440  10.813  0.00  0.00    +0.000 A 
ATOM     24  N   UNL     1      44.026   2.349  10.002  0.00  0.00    +0.000 NA
ATOM     25  C   UNL     1      44.596   2.513   8.856  0.00  0.00    +0.000 A 
ATOM     26  N   UNL     1      45.232   3.660   8.452  0.00  0.00    +0.000 N 
ATOM     27  C   UNL     1      45.398   4.753   9.272  0.00  0.00    +0.000 A 
ATOM     28  O   UNL     1      46.149   5.668   8.956  0.00  0.00    +0.000 OA
ATOM     29  C   UNL     1      44.690   4.650  10.537  0.00  0.00    +0.000 A 
ATOM     30  H   UNL     1      45.719   3.699   7.569  0.00  0.00    +0.000 HD
ENDBRANCH  19  20
ENDBRANCH  17  19
ENDBRANCH   1  17
TORSDOF 7
ENDMDL
MODEL 8
REMARK VINA RESULT:    -6.828      3.249      4.692
REMARK INTER + INTRA:         -10.517
REMARK INTER:                  -9.152
REMARK INTRA:                  -1.366
REMARK UNBOUND:                -0.896
REMARK  Name = 
REMARK  7 active torsions:
REMARK  status: ('A' for Active; 'I' for Inactive)
REMARK    1  A    between atoms: C_2  and  C_3
REMARK    2  A    between atoms: C_2  and  C_19
REMARK    3  A    between atoms: C_3  and  C_4
REMARK    4  A    between atoms: C_4  and  C_5
REMARK    5  A    between atoms: C_8  and  C_9
REMARK    6  A    between atoms: C_9  and  N_10
REMARK    7  A    between atoms: N_10  and  C_11
REMARK                            x       y       z     vdW  Elec       q    Type
REMARK                         _______ _______ _______ _____ _____    ______ ____
ROOT
ATOM      1  C   UNL     1      49.894   8.586  13.919  0.00  0.00    +0.000 C 
ENDROOT
BRANCH   1   2
ATOM      2  C   UNL     1      48.560   8.281  13.280  0.00  0.00    +0.000 A 
ATOM      3  C   UNL     1      48.462   7.365  12.225  0.00  0.00    +0.000 A 
ATOM      4  C   UNL     1      47.230   7.101  11.627  0.00  0.00    +0.000 A 
ATOM      5  C   UNL     1      46.064   7.733  12.082  0.00  0.00    +0.000 A 
ATOM      6  C   UNL     1      46.159   8.637  13.149  0.00  0.00    +0.000 A 
ATOM      7  C   UNL     1      47.395   8.907  13.741  0.00  0.00    +0.000 A 
BRANCH   5   8
ATOM      8  C   UNL     1      44.741   7.484  11.399  0.00  0.00    +0.000 C 
BRANCH   8   9
ATOM      9  N   UNL     1      43.879   6.610  12.195  0.00  0.00    +0.000 NA
ATOM     10  H   UNL     1      42.908   6.806  11.949  0.00  0.00    +0.000 HD
BRANCH   9  11
ATOM     11  C   UNL     1      44.161   5.180  12.004  0.00  0.00    +0.000 C 
ATOM     12  C   UNL     1      43.902   4.818  10.535  0.00  0.00    +0.000 C 
ATOM     13  C   UNL     1      44.066   3.320  10.308  0.00  0.00    +0.000 C 
ATOM     14  O   UNL     1      43.219   2.575  11.180  0.00  0.00    +0.000 OA
ATOM     15  C   UNL     1      43.522   2.810  12.552  0.00  0.00    +0.000 C 
ATOM     16  C   UNL     1      43.315   4.274  12.911  0.00  0.00    +0.000 C 
ENDBRANCH   9  11
ENDBRANCH   8   9
ENDBRANCH   5   8
ENDBRANCH   1   2
BRANCH   1  17
ATOM     17  C   UNL     1      50.374   7.443  14.812  0.00  0.00    +0.000 C 
BRANCH  17  19
ATOM     18  O   UNL     1      49.164   8.485  16.604  0.00  0.00    +0.000 OA
ATOM     19  C   UNL     1      49.713   7.470  16.179  0.00  0.00    +0.000 C 
BRANCH  19  20
ATOM     20  C   UNL     1      49.796   6.256  17.001  0.00  0.00    +0.000 A 
ATOM     21  C   UNL     1      50.742   6.078  17.999  0.00  0.00    +0.000 A 
ATOM     22  S   UNL     1      50.535   4.622  18.868  0.00  0.00    +0.000 S 
ATOM     23  C   UNL     1      49.196   4.178  17.917  0.00  0.00    +0.000 A 
ATOM     24  N   UNL     1      48.527   3.016  18.146  0.00  0.00    +0.000 NA
ATOM     25  C   UNL     1      47.532   2.813  17.349  0.00  0.00    +0.000 A 
ATOM     26  N   UNL     1      47.155   3.656  16.335  0.00  0.00    +0.000 N 
ATOM     27  C   UNL     1      47.858   4.793  16.004  0.00  0.00    +0.000 A 
ATOM     28  O   UNL     1      47.618   5.400  14.967  0.00  0.00    +0.000 OA
ATOM     29  C   UNL     1      48.929   5.111  16.933  0.00  0.00    +0.000 A 
ATOM     30  H   UNL     1      46.409   3.405  15.701  0.00  0.00    +0.000 HD
ENDBRANCH  19  20
ENDBRANCH  17  19
ENDBRANCH   1  17
TORSDOF 7
ENDMDL
MODEL 9
REMARK VINA RESULT:    -6.793      3.916      8.557
REMARK INTER + INTRA:         -10.468
REMARK INTER:                  -8.838
REMARK INTRA:                  -1.630
REMARK UNBOUND:                -0.896
REMARK  Name = 
REMARK  7 active torsions:
REMARK  status: ('A' for Active; 'I' for Inactive)
REMARK    1  A    between atoms: C_2  and  C_3
REMARK    2  A    between atoms: C_2  and  C_19
REMARK    3  A    between atoms: C_3  and  C_4
REMARK    4  A    between atoms: C_4  and  C_5
REMARK    5  A    between atoms: C_8  and  C_9
REMARK    6  A    between atoms: C_9  and  N_10
REMARK    7  A    between atoms: N_10  and  C_11
REMARK                            x       y       z     vdW  Elec       q    Type
REMARK                         _______ _______ _______ _____ _____    ______ ____
ROOT
ATOM      1  C   UNL     1      48.430   9.269  13.206  0.00  0.00    +0.000 C 
ENDROOT
BRANCH   1   2
ATOM      2  C   UNL     1      48.947   8.510  14.405  0.00  0.00    +0.000 A 
ATOM      3  C   UNL     1      50.043   7.646  14.288  0.00  0.00    +0.000 A 
ATOM      4  C   UNL     1      50.505   6.933  15.395  0.00  0.00    +0.000 A 
ATOM      5  C   UNL     1      49.894   7.082  16.647  0.00  0.00    +0.000 A 
ATOM      6  C   UNL     1      48.808   7.959  16.769  0.00  0.00    +0.000 A 
ATOM      7  C   UNL     1      48.341   8.666  15.657  0.00  0.00    +0.000 A 
BRANCH   5   8
ATOM      8  C   UNL     1      50.364   6.271  17.830  0.00  0.00    +0.000 C 
BRANCH   8   9
ATOM      9  N   UNL     1      49.268   5.514  18.435  0.00  0.00    +0.000 NA
ATOM     10  H   UNL     1      48.386   5.926  18.130  0.00  0.00    +0.000 HD
BRANCH   9  11
ATOM     11  C   UNL     1      49.289   4.083  18.098  0.00  0.00    +0.000 C 
ATOM     12  C   UNL     1      50.722   3.690  17.709  0.00  0.00    +0.000 C 
ATOM     13  C   UNL     1      50.778   2.242  17.237  0.00  0.00    +0.000 C 
ATOM     14  O   UNL     1      49.870   2.020  16.159  0.00  0.00    +0.000 OA
ATOM     15  C   UNL     1      48.519   2.269  16.536  0.00  0.00    +0.000 C 
ATOM     16  C   UNL     1      48.331   3.720  16.955  0.00  0.00    +0.000 C 
ENDBRANCH   9  11
ENDBRANCH   8   9
ENDBRANCH   5   8
ENDBRANCH   1   2
BRANCH   1  17
ATOM     17  C   UNL     1      47.691   8.357  12.228  0.00  0.00    +0.000 C 
BRANCH  17  19
ATOM     18  O   UNL     1      45.531   8.560  13.253  0.00  0.00    +0.000 OA
ATOM     19  C   UNL     1      46.402   7.811  12.818  0.00  0.00    +0.000 C 
BRANCH  19  20
ATOM     20  C   UNL     1      46.254   6.352  12.899  0.00  0.00    +0.000 A 
ATOM     21  C   UNL     1      47.202   5.525  13.479  0.00  0.00    +0.000 A 
ATOM     22  S   UNL     1      46.719   3.887  13.536  0.00  0.00    +0.000 S 
ATOM     23  C   UNL     1      45.244   4.236  12.761  0.00  0.00    +0.000 A 
ATOM     24  N   UNL     1      44.336   3.256  12.507  0.00  0.00    +0.000 NA
ATOM     25  C   UNL     1      43.264   3.669  11.917  0.00  0.00    +0.000 A 
ATOM     26  N   UNL     1      43.025   4.968  11.544  0.00  0.00    +0.000 N 
ATOM     27  C   UNL     1      43.952   5.974  11.694  0.00  0.00    +0.000 A 
ATOM     28  O   UNL     1      43.788   7.064  11.159  0.00  0.00    +0.000 OA
ATOM     29  C   UNL     1      45.135   5.575  12.438  0.00  0.00    +0.000 A 
ATOM     30  H   UNL     1      42.196   5.213  11.023  0.00  0.00    +0.000 HD
ENDBRANCH  19  20
ENDBRANCH  17  19
ENDBRANCH   1  17
TORSDOF 7
ENDMDL
