MODEL 1
REMARK VINA RESULT:    -7.140      0.000      0.000
REMARK INTER + INTRA:          -9.841
REMARK INTER:                  -9.227
REMARK INTRA:                  -0.615
REMARK UNBOUND:                -0.615
REMARK  Name = 
REMARK  5 active torsions:
REMARK  status: ('A' for Active; 'I' for Inactive)
REMARK    1  A    between atoms: C_2  and  C_4
REMARK    2  A    between atoms: C_8  and  O_9
REMARK    3  A    between atoms: O_9  and  C_10
REMARK    4  A    between atoms: C_10  and  C_11
REMARK    5  A    between atoms: C_16  and  C_17
REMARK                            x       y       z     vdW  Elec       q    Type
REMARK                         _______ _______ _______ _____ _____    ______ ____
ROOT
ATOM      1  C   UNL     1      47.027   4.616  15.062  0.00  0.00    +0.000 C 
ENDROOT
BRANCH   1   2
ATOM      2  C   UNL     1      46.824   5.234  13.704  0.00  0.00    +0.000 A 
ATOM      3  C   UNL     1      47.708   6.175  13.179  0.00  0.00    +0.000 A 
ATOM      4  C   UNL     1      47.438   6.741  11.940  0.00  0.00    +0.000 A 
ATOM      5  F   UNL     1      48.280   7.656  11.440  0.00  0.00    +0.000 F 
ATOM      6  C   UNL     1      46.305   6.387  11.207  0.00  0.00    +0.000 A 
ATOM      7  C   UNL     1      45.408   5.433  11.706  0.00  0.00    +0.000 A 
ATOM      8  C   UNL     1      45.700   4.864  12.952  0.00  0.00    +0.000 A 
BRANCH   7   9
ATOM      9  C   UNL     1      44.168   5.052  10.907  0.00  0.00    +0.000 C 
ATOM     10  C   UNL     1      43.110   4.285  11.719  0.00  0.00    +0.000 C 
ATOM     11  C   UNL     1      43.401   2.790  11.862  0.00  0.00    +0.000 C 
ATOM     12  N   UNL     1      43.699   2.132  10.589  0.00  0.00    +0.000 NA
ATOM     13  C   UNL     1      44.750   2.802   9.821  0.00  0.00    +0.000 C 
ATOM     14  C   UNL     1      44.485   4.292   9.609  0.00  0.00    +0.000 C 
ATOM     15  H   UNL     1      42.848   2.105  10.028  0.00  0.00    +0.000 HD
ENDBRANCH   7   9
ENDBRANCH   1   2
BRANCH   1  16
ATOM     16  O   UNL     1      48.365   4.860  15.499  0.00  0.00    +0.000 OA
BRANCH  16  21
ATOM     17  C   UNL     1      48.442   5.766  19.081  0.00  0.00    +0.000 A 
ATOM     18  N   UNL     1      48.823   7.078  19.016  0.00  0.00    +0.000 NA
ATOM     19  C   UNL     1      49.044   7.575  17.779  0.00  0.00    +0.000 A 
ATOM     20  C   UNL     1      48.897   6.835  16.614  0.00  0.00    +0.000 A 
ATOM     21  C   UNL     1      48.499   5.500  16.707  0.00  0.00    +0.000 A 
ATOM     22  C   UNL     1      48.275   4.953  17.969  0.00  0.00    +0.000 A 
ATOM     23  F   UNL     1      47.903   3.674  18.112  0.00  0.00    +0.000 F 
BRANCH  17  25
ATOM     24  N   UNL     1      47.042   5.665  21.055  0.00  0.00    +0.000 N 
ATOM     25  C   UNL     1      48.185   5.217  20.449  0.00  0.00    +0.000 C 
ATOM     26  O   UNL     1      48.919   4.419  21.017  0.00  0.00    +0.000 OA
ATOM     27  H   UNL     1      46.809   5.318  21.974  0.00  0.00    +0.000 HD
ATOM     28  H   UNL     1      46.435   6.320  20.577  0.00  0.00    +0.000 HD
ENDBRANCH  17  25
ENDBRANCH  16  21
ENDBRANCH   1  16
TORSDOF 5
ENDMDL
MODEL 2
REMARK VINA RESULT:    -7.128      4.635      6.422
REMARK INTER + INTRA:          -9.827
REMARK INTER:                  -9.058
REMARK INTRA:                  -0.769
REMARK UNBOUND:                -0.615
REMARK  Name = 
REMARK  5 active torsions:
REMARK  status: ('A' for Active; 'I' for Inactive)
REMARK    1  A    between atoms: C_2  and  C_4
REMARK    2  A    between atoms: C_8  and  O_9
REMARK    3  A    between atoms: O_9  and  C_10
REMARK    4  A    between atoms: C_10  and  C_11
REMARK    5  A    between atoms: C_16  and  C_17
REMARK                            x       y       z     vdW  Elec       q    Type
REMARK                         _______ _______ _______ _____ _____    ______ ____
ROOT
ATOM      1  C   UNL     1      48.319   7.957  11.954  0.00  0.00    +0.000 C 
ENDROOT
BRANCH   1   2
ATOM      2  C   UNL     1      47.420   6.801  12.304  0.00  0.00    +0.000 A 
ATOM      3  C   UNL     1      47.615   6.031  13.450  0.00  0.00    +0.000 A 
ATOM      4  C   UNL     1      46.778   4.950  13.691  0.00  0.00    +0.000 A 
ATOM      5  F   UNL     1      46.973   4.201  14.784  0.00  0.00    +0.000 F 
ATOM      6  C   UNL     1      45.743   4.619  12.815  0.00  0.00    +0.000 A 
ATOM      7  C   UNL     1      45.517   5.385  11.663  0.00  0.00    +0.000 A 
ATOM      8  C   UNL     1      46.364   6.478  11.441  0.00  0.00    +0.000 A 
BRANCH   7   9
ATOM      9  C   UNL     1      44.391   5.019  10.705  0.00  0.00    +0.000 C 
ATOM     10  C   UNL     1      43.206   4.302  11.374  0.00  0.00    +0.000 C 
ATOM     11  C   UNL     1      43.428   2.804  11.588  0.00  0.00    +0.000 C 
ATOM     12  N   UNL     1      43.881   2.106  10.384  0.00  0.00    +0.000 NA
ATOM     13  C   UNL     1      45.050   2.727   9.758  0.00  0.00    +0.000 C 
ATOM     14  C   UNL     1      44.864   4.218   9.481  0.00  0.00    +0.000 C 
ATOM     15  H   UNL     1      43.118   2.089   9.708  0.00  0.00    +0.000 HD
ENDBRANCH   7   9
ENDBRANCH   1   2
BRANCH   1  16
ATOM     16  O   UNL     1      47.914   9.114  12.688  0.00  0.00    +0.000 OA
BRANCH  16  21
ATOM     17  C   UNL     1      44.867  10.803  11.456  0.00  0.00    +0.000 A 
ATOM     18  N   UNL     1      45.404  11.749  10.625  0.00  0.00    +0.000 NA
ATOM     19  C   UNL     1      46.752  11.772  10.540  0.00  0.00    +0.000 A 
ATOM     20  C   UNL     1      47.583  10.900  11.230  0.00  0.00    +0.000 A 
ATOM     21  C   UNL     1      47.010   9.938  12.064  0.00  0.00    +0.000 A 
ATOM     22  C   UNL     1      45.622   9.896  12.185  0.00  0.00    +0.000 A 
ATOM     23  F   UNL     1      45.025   9.000  12.982  0.00  0.00    +0.000 F 
BRANCH  17  25
ATOM     24  N   UNL     1      42.774   9.716  10.906  0.00  0.00    +0.000 N 
ATOM     25  C   UNL     1      43.374  10.769  11.542  0.00  0.00    +0.000 C 
ATOM     26  O   UNL     1      42.702  11.601  12.136  0.00  0.00    +0.000 OA
ATOM     27  H   UNL     1      41.769   9.633  10.942  0.00  0.00    +0.000 HD
ATOM     28  H   UNL     1      43.336   9.026  10.421  0.00  0.00    +0.000 HD
ENDBRANCH  17  25
ENDBRANCH  16  21
ENDBRANCH   1  16
TORSDOF 5
ENDMDL
MODEL 3
REMARK VINA RESULT:    -7.105      2.217      2.651
REMARK INTER + INTRA:          -9.796
REMARK INTER:                  -9.053
REMARK INTRA:                  -0.744
REMARK UNBOUND:                -0.615
REMARK  Name = 
REMARK  5 active torsions:
REMARK  status: ('A' for Active; 'I' for Inactive)
REMARK    1  A    between atoms: C_2  and  C_4
REMARK    2  A    between atoms: C_8  and  O_9
REMARK    3  A    between atoms: O_9  and  C_10
REMARK    4  A    between atoms: C_10  and  C_11
REMARK    5  A    between atoms: C_16  and  C_17
REMARK                            x       y       z     vdW  Elec       q    Type
REMARK                         _______ _______ _______ _____ _____    ______ ____
ROOT
ATOM      1  C   UNL     1      48.271   7.526  13.360  0.00  0.00    +0.000 C 
ENDROOT
BRANCH   1   2
ATOM      2  C   UNL     1      46.960   7.786  12.668  0.00  0.00    +0.000 A 
ATOM      3  C   UNL     1      46.434   9.070  12.534  0.00  0.00    +0.000 A 
ATOM      4  C   UNL     1      45.198   9.238  11.924  0.00  0.00    +0.000 A 
ATOM      5  F   UNL     1      44.686  10.470  11.808  0.00  0.00    +0.000 F 
ATOM      6  C   UNL     1      44.470   8.150  11.439  0.00  0.00    +0.000 A 
ATOM      7  C   UNL     1      44.982   6.850  11.549  0.00  0.00    +0.000 A 
ATOM      8  C   UNL     1      46.235   6.700  12.156  0.00  0.00    +0.000 A 
BRANCH   7   9
ATOM      9  C   UNL     1      44.184   5.663  11.025  0.00  0.00    +0.000 C 
ATOM     10  C   UNL     1      42.837   5.449  11.736  0.00  0.00    +0.000 C 
ATOM     11  C   UNL     1      42.949   4.706  13.067  0.00  0.00    +0.000 C 
ATOM     12  N   UNL     1      43.724   3.467  12.977  0.00  0.00    +0.000 NA
ATOM     13  C   UNL     1      45.041   3.649  12.363  0.00  0.00    +0.000 C 
ATOM     14  C   UNL     1      44.981   4.348  11.006  0.00  0.00    +0.000 C 
ATOM     15  H   UNL     1      43.197   2.790  12.427  0.00  0.00    +0.000 HD
ENDBRANCH   7   9
ENDBRANCH   1   2
BRANCH   1  16
ATOM     16  O   UNL     1      48.338   6.154  13.750  0.00  0.00    +0.000 OA
BRANCH  16  21
ATOM     17  C   UNL     1      47.986   4.697  17.128  0.00  0.00    +0.000 A 
ATOM     18  N   UNL     1      48.479   5.709  17.907  0.00  0.00    +0.000 NA
ATOM     19  C   UNL     1      48.912   6.809  17.253  0.00  0.00    +0.000 A 
ATOM     20  C   UNL     1      48.869   6.952  15.873  0.00  0.00    +0.000 A 
ATOM     21  C   UNL     1      48.353   5.909  15.101  0.00  0.00    +0.000 A 
ATOM     22  C   UNL     1      47.910   4.754  15.745  0.00  0.00    +0.000 A 
ATOM     23  F   UNL     1      47.419   3.721  15.047  0.00  0.00    +0.000 F 
BRANCH  17  25
ATOM     24  N   UNL     1      48.256   3.092  18.922  0.00  0.00    +0.000 N 
ATOM     25  C   UNL     1      47.496   3.483  17.852  0.00  0.00    +0.000 C 
ATOM     26  O   UNL     1      46.489   2.861  17.543  0.00  0.00    +0.000 OA
ATOM     27  H   UNL     1      47.967   2.287  19.457  0.00  0.00    +0.000 HD
ATOM     28  H   UNL     1      49.085   3.616  19.176  0.00  0.00    +0.000 HD
ENDBRANCH  17  25
ENDBRANCH  16  21
ENDBRANCH   1  16
TORSDOF 5
ENDMDL
MODEL 4
REMARK VINA RESULT:    -6.980      5.106      8.667
REMARK INTER + INTRA:          -9.635
REMARK INTER:                  -9.263
REMARK INTRA:                  -0.372
REMARK UNBOUND:                -0.615
REMARK  Name = 
REMARK  5 active torsions:
REMARK  status: ('A' for Active; 'I' for Inactive)
REMARK    1  A    between atoms: C_2  and  C_4
REMARK    2  A    between atoms: C_8  and  O_9
REMARK    3  A    between atoms: O_9  and  C_10
REMARK    4  A    between atoms: C_10  and  C_11
REMARK    5  A    between atoms: C_16  and  C_17
REMARK                            x       y       z     vdW  Elec       q    Type
REMARK                         _______ _______ _______ _____ _____    ______ ____
ROOT
ATOM      1  C   UNL     1      44.443   3.708  11.358  0.00  0.00    +0.000 C 
ENDROOT
BRANCH   1   2
ATOM      2  C   UNL     1      44.768   5.139  11.694  0.00  0.00    +0.000 A 
ATOM      3  C   UNL     1      43.966   6.199  11.276  0.00  0.00    +0.000 A 
ATOM      4  C   UNL     1      44.346   7.499  11.580  0.00  0.00    +0.000 A 
ATOM      5  F   UNL     1      43.583   8.519  11.167  0.00  0.00    +0.000 F 
ATOM      6  C   UNL     1      45.512   7.769  12.298  0.00  0.00    +0.000 A 
ATOM      7  C   UNL     1      46.329   6.720  12.742  0.00  0.00    +0.000 A 
ATOM      8  C   UNL     1      45.925   5.415  12.436  0.00  0.00    +0.000 A 
BRANCH   7   9
ATOM      9  C   UNL     1      47.605   7.017  13.521  0.00  0.00    +0.000 C 
ATOM     10  C   UNL     1      47.703   8.462  14.037  0.00  0.00    +0.000 C 
ATOM     11  C   UNL     1      48.184   9.465  12.988  0.00  0.00    +0.000 C 
ATOM     12  N   UNL     1      49.407   9.045  12.301  0.00  0.00    +0.000 NA
ATOM     13  C   UNL     1      49.322   7.695  11.739  0.00  0.00    +0.000 C 
ATOM     14  C   UNL     1      48.888   6.644  12.760  0.00  0.00    +0.000 C 
ATOM     15  H   UNL     1      50.182   9.077  12.962  0.00  0.00    +0.000 HD
ENDBRANCH   7   9
ENDBRANCH   1   2
BRANCH   1  16
ATOM     16  O   UNL     1      44.009   3.626   9.999  0.00  0.00    +0.000 OA
BRANCH  16  21
ATOM     17  C   UNL     1      46.407   2.033   7.684  0.00  0.00    +0.000 A 
ATOM     18  N   UNL     1      47.046   3.127   7.167  0.00  0.00    +0.000 NA
ATOM     19  C   UNL     1      46.625   4.330   7.614  0.00  0.00    +0.000 A 
ATOM     20  C   UNL     1      45.613   4.494   8.550  0.00  0.00    +0.000 A 
ATOM     21  C   UNL     1      44.983   3.361   9.069  0.00  0.00    +0.000 A 
ATOM     22  C   UNL     1      45.385   2.104   8.618  0.00  0.00    +0.000 A 
ATOM     23  F   UNL     1      44.803   0.988   9.076  0.00  0.00    +0.000 F 
BRANCH  17  25
ATOM     24  N   UNL     1      47.307   0.667   5.897  0.00  0.00    +0.000 N 
ATOM     25  C   UNL     1      46.880   0.699   7.197  0.00  0.00    +0.000 C 
ATOM     26  O   UNL     1      46.905  -0.312   7.885  0.00  0.00    +0.000 OA
ATOM     27  H   UNL     1      47.650  -0.202   5.517  0.00  0.00    +0.000 HD
ATOM     28  H   UNL     1      47.290   1.510   5.334  0.00  0.00    +0.000 HD
ENDBRANCH  17  25
ENDBRANCH  16  21
ENDBRANCH   1  16
TORSDOF 5
ENDMDL
MODEL 5
REMARK VINA RESULT:    -6.784      5.150      7.757
REMARK INTER + INTRA:          -9.381
REMARK INTER:                  -8.496
REMARK INTRA:                  -0.886
REMARK UNBOUND:                -0.615
REMARK  Name = 
REMARK  5 active torsions:
REMARK  status: ('A' for Active; 'I' for Inactive)
REMARK    1  A    between atoms: C_2  and  C_4
REMARK    2  A    between atoms: C_8  and  O_9
REMARK    3  A    between atoms: O_9  and  C_10
REMARK    4  A    between atoms: C_10  and  C_11
REMARK    5  A    between atoms: C_16  and  C_17
REMARK                            x       y       z     vdW  Elec       q    Type
REMARK                         _______ _______ _______ _____ _____    ______ ____
ROOT
ATOM      1  C   UNL     1      46.373   6.512  12.824  0.00  0.00    +0.000 C 
ENDROOT
BRANCH   1   2
ATOM      2  C   UNL     1      46.772   7.892  12.374  0.00  0.00    +0.000 A 
ATOM      3  C   UNL     1      48.103   8.242  12.149  0.00  0.00    +0.000 A 
ATOM      4  C   UNL     1      48.409   9.545  11.780  0.00  0.00    +0.000 A 
ATOM      5  F   UNL     1      49.689   9.885  11.578  0.00  0.00    +0.000 F 
ATOM      6  C   UNL     1      47.415  10.512  11.626  0.00  0.00    +0.000 A 
ATOM      7  C   UNL     1      46.069  10.183  11.833  0.00  0.00    +0.000 A 
ATOM      8  C   UNL     1      45.776   8.862  12.194  0.00  0.00    +0.000 A 
BRANCH   7   9
ATOM      9  C   UNL     1      44.985  11.242  11.669  0.00  0.00    +0.000 C 
ATOM     10  C   UNL     1      43.579  10.668  11.424  0.00  0.00    +0.000 C 
ATOM     11  C   UNL     1      43.317  10.265   9.973  0.00  0.00    +0.000 C 
ATOM     12  N   UNL     1      43.657  11.313   9.009  0.00  0.00    +0.000 NA
ATOM     13  C   UNL     1      45.015  11.836   9.173  0.00  0.00    +0.000 C 
ATOM     14  C   UNL     1      45.314  12.296  10.599  0.00  0.00    +0.000 C 
ATOM     15  H   UNL     1      42.995  12.081   9.113  0.00  0.00    +0.000 HD
ENDBRANCH   7   9
ENDBRANCH   1   2
BRANCH   1  16
ATOM     16  O   UNL     1      44.973   6.328  12.604  0.00  0.00    +0.000 OA
BRANCH  16  21
ATOM     17  C   UNL     1      44.512   3.469  10.309  0.00  0.00    +0.000 A 
ATOM     18  N   UNL     1      43.653   2.684  11.029  0.00  0.00    +0.000 NA
ATOM     19  C   UNL     1      43.293   3.153  12.244  0.00  0.00    +0.000 A 
ATOM     20  C   UNL     1      43.737   4.360  12.767  0.00  0.00    +0.000 A 
ATOM     21  C   UNL     1      44.606   5.147  12.008  0.00  0.00    +0.000 A 
ATOM     22  C   UNL     1      45.008   4.685  10.755  0.00  0.00    +0.000 A 
ATOM     23  F   UNL     1      45.850   5.397   9.994  0.00  0.00    +0.000 F 
BRANCH  17  25
ATOM     24  N   UNL     1      44.333   3.607   7.897  0.00  0.00    +0.000 N 
ATOM     25  C   UNL     1      44.903   2.956   8.959  0.00  0.00    +0.000 C 
ATOM     26  O   UNL     1      45.678   2.027   8.777  0.00  0.00    +0.000 OA
ATOM     27  H   UNL     1      44.571   3.313   6.961  0.00  0.00    +0.000 HD
ATOM     28  H   UNL     1      43.697   4.379   8.055  0.00  0.00    +0.000 HD
ENDBRANCH  17  25
ENDBRANCH  16  21
ENDBRANCH   1  16
TORSDOF 5
ENDMDL
MODEL 6
REMARK VINA RESULT:    -6.702      1.902      2.162
REMARK INTER + INTRA:          -9.276
REMARK INTER:                  -8.673
REMARK INTRA:                  -0.603
REMARK UNBOUND:                -0.615
REMARK  Name = 
REMARK  5 active torsions:
REMARK  status: ('A' for Active; 'I' for Inactive)
REMARK    1  A    between atoms: C_2  and  C_4
REMARK    2  A    between atoms: C_8  and  O_9
REMARK    3  A    between atoms: O_9  and  C_10
REMARK    4  A    between atoms: C_10  and  C_11
REMARK    5  A    between atoms: C_16  and  C_17
REMARK                            x       y       z     vdW  Elec       q    Type
REMARK                         _______ _______ _______ _____ _____    ______ ____
ROOT
ATOM      1  C   UNL     1      47.527   4.915  15.199  0.00  0.00    +0.000 C 
ENDROOT
BRANCH   1   2
ATOM      2  C   UNL     1      47.153   5.453  13.844  0.00  0.00    +0.000 A 
ATOM      3  C   UNL     1      48.005   6.281  13.115  0.00  0.00    +0.000 A 
ATOM      4  C   UNL     1      47.582   6.781  11.890  0.00  0.00    +0.000 A 
ATOM      5  F   UNL     1      48.394   7.589  11.196  0.00  0.00    +0.000 F 
ATOM      6  C   UNL     1      46.324   6.469  11.371  0.00  0.00    +0.000 A 
ATOM      7  C   UNL     1      45.455   5.627  12.077  0.00  0.00    +0.000 A 
ATOM      8  C   UNL     1      45.902   5.124  13.305  0.00  0.00    +0.000 A 
BRANCH   7   9
ATOM      9  C   UNL     1      44.080   5.293  11.511  0.00  0.00    +0.000 C 
ATOM     10  C   UNL     1      43.212   4.429  12.441  0.00  0.00    +0.000 C 
ATOM     11  C   UNL     1      43.533   2.935  12.379  0.00  0.00    +0.000 C 
ATOM     12  N   UNL     1      43.569   2.405  11.015  0.00  0.00    +0.000 NA
ATOM     13  C   UNL     1      44.440   3.168  10.119  0.00  0.00    +0.000 C 
ATOM     14  C   UNL     1      44.131   4.664  10.109  0.00  0.00    +0.000 C 
ATOM     15  H   UNL     1      42.623   2.410  10.636  0.00  0.00    +0.000 HD
ENDBRANCH   7   9
ENDBRANCH   1   2
BRANCH   1  16
ATOM     16  O   UNL     1      48.620   5.670  15.725  0.00  0.00    +0.000 OA
BRANCH  16  21
ATOM     17  C   UNL     1      50.444   4.888  18.842  0.00  0.00    +0.000 A 
ATOM     18  N   UNL     1      49.413   4.791  19.737  0.00  0.00    +0.000 NA
ATOM     19  C   UNL     1      48.174   5.007  19.245  0.00  0.00    +0.000 A 
ATOM     20  C   UNL     1      47.913   5.305  17.914  0.00  0.00    +0.000 A 
ATOM     21  C   UNL     1      48.982   5.389  17.019  0.00  0.00    +0.000 A 
ATOM     22  C   UNL     1      50.275   5.184  17.497  0.00  0.00    +0.000 A 
ATOM     23  F   UNL     1      51.335   5.267  16.681  0.00  0.00    +0.000 F 
BRANCH  17  25
ATOM     24  N   UNL     1      52.298   3.370  19.195  0.00  0.00    +0.000 N 
ATOM     25  C   UNL     1      51.816   4.638  19.383  0.00  0.00    +0.000 C 
ATOM     26  O   UNL     1      52.493   5.483  19.952  0.00  0.00    +0.000 OA
ATOM     27  H   UNL     1      53.224   3.146  19.527  0.00  0.00    +0.000 HD
ATOM     28  H   UNL     1      51.735   2.676  18.717  0.00  0.00    +0.000 HD
ENDBRANCH  17  25
ENDBRANCH  16  21
ENDBRANCH   1  16
TORSDOF 5
ENDMDL
MODEL 7
REMARK VINA RESULT:    -6.698      2.415      8.489
REMARK INTER + INTRA:          -9.270
REMARK INTER:                  -8.629
REMARK INTRA:                  -0.641
REMARK UNBOUND:                -0.615
REMARK  Name = 
REMARK  5 active torsions:
REMARK  status: ('A' for Active; 'I' for Inactive)
REMARK    1  A    between atoms: C_2  and  C_4
REMARK    2  A    between atoms: C_8  and  O_9
REMARK    3  A    between atoms: O_9  and  C_10
REMARK    4  A    between atoms: C_10  and  C_11
REMARK    5  A    between atoms: C_16  and  C_17
REMARK                            x       y       z     vdW  Elec       q    Type
REMARK                         _______ _______ _______ _____ _____    ______ ____
ROOT
ATOM      1  C   UNL     1      48.033   5.935  14.742  0.00  0.00    +0.000 C 
ENDROOT
BRANCH   1   2
ATOM      2  C   UNL     1      48.061   5.219  16.067  0.00  0.00    +0.000 A 
ATOM      3  C   UNL     1      47.404   4.007  16.268  0.00  0.00    +0.000 A 
ATOM      4  C   UNL     1      47.430   3.421  17.527  0.00  0.00    +0.000 A 
ATOM      5  F   UNL     1      46.786   2.263  17.725  0.00  0.00    +0.000 F 
ATOM      6  C   UNL     1      48.104   4.017  18.595  0.00  0.00    +0.000 A 
ATOM      7  C   UNL     1      48.784   5.229  18.415  0.00  0.00    +0.000 A 
ATOM      8  C   UNL     1      48.756   5.800  17.137  0.00  0.00    +0.000 A 
BRANCH   7   9
ATOM      9  C   UNL     1      49.513   5.880  19.583  0.00  0.00    +0.000 C 
ATOM     10  C   UNL     1      49.506   5.043  20.873  0.00  0.00    +0.000 C 
ATOM     11  C   UNL     1      48.218   5.169  21.688  0.00  0.00    +0.000 C 
ATOM     12  N   UNL     1      47.820   6.556  21.933  0.00  0.00    +0.000 NA
ATOM     13  C   UNL     1      47.753   7.365  20.714  0.00  0.00    +0.000 C 
ATOM     14  C   UNL     1      49.035   7.310  19.884  0.00  0.00    +0.000 C 
ATOM     15  H   UNL     1      48.490   6.982  22.573  0.00  0.00    +0.000 HD
ENDBRANCH   7   9
ENDBRANCH   1   2
BRANCH   1  16
ATOM     16  O   UNL     1      47.589   5.035  13.726  0.00  0.00    +0.000 OA
BRANCH  16  21
ATOM     17  C   UNL     1      44.638   5.265  11.514  0.00  0.00    +0.000 A 
ATOM     18  N   UNL     1      44.445   6.619  11.467  0.00  0.00    +0.000 NA
ATOM     19  C   UNL     1      45.305   7.370  12.189  0.00  0.00    +0.000 A 
ATOM     20  C   UNL     1      46.344   6.842  12.943  0.00  0.00    +0.000 A 
ATOM     21  C   UNL     1      46.525   5.457  12.967  0.00  0.00    +0.000 A 
ATOM     22  C   UNL     1      45.646   4.653  12.243  0.00  0.00    +0.000 A 
ATOM     23  F   UNL     1      45.770   3.319  12.245  0.00  0.00    +0.000 F 
BRANCH  17  25
ATOM     24  N   UNL     1      43.822   4.552   9.348  0.00  0.00    +0.000 N 
ATOM     25  C   UNL     1      43.692   4.433  10.706  0.00  0.00    +0.000 C 
ATOM     26  O   UNL     1      42.855   3.683  11.189  0.00  0.00    +0.000 OA
ATOM     27  H   UNL     1      43.220   4.004   8.752  0.00  0.00    +0.000 HD
ATOM     28  H   UNL     1      44.522   5.169   8.955  0.00  0.00    +0.000 HD
ENDBRANCH  17  25
ENDBRANCH  16  21
ENDBRANCH   1  16
TORSDOF 5
ENDMDL
MODEL 8
REMARK VINA RESULT:    -6.655      3.107      6.951
REMARK INTER + INTRA:          -9.214
REMARK INTER:                  -8.424
REMARK INTRA:                  -0.790
REMARK UNBOUND:                -0.615
REMARK  Name = 
REMARK  5 active torsions:
REMARK  status: ('A' for Active; 'I' for Inactive)
REMARK    1  A    between atoms: C_2  and  C_4
REMARK    2  A    between atoms: C_8  and  O_9
REMARK    3  A    between atoms: O_9  and  C_10
REMARK    4  A    between atoms: C_10  and  C_11
REMARK    5  A    between atoms: C_16  and  C_17
REMARK                            x       y       z     vdW  Elec       q    Type
REMARK                         _______ _______ _______ _____ _____    ______ ____
ROOT
ATOM      1  C   UNL     1      49.234   7.332  14.242  0.00  0.00    +0.000 C 
ENDROOT
BRANCH   1   2
ATOM      2  C   UNL     1      48.845   7.287  15.696  0.00  0.00    +0.000 A 
ATOM      3  C   UNL     1      48.550   8.442  16.420  0.00  0.00    +0.000 A 
ATOM      4  C   UNL     1      48.243   8.336  17.770  0.00  0.00    +0.000 A 
ATOM      5  F   UNL     1      47.973   9.446  18.469  0.00  0.00    +0.000 F 
ATOM      6  C   UNL     1      48.218   7.100  18.418  0.00  0.00    +0.000 A 
ATOM      7  C   UNL     1      48.498   5.924  17.710  0.00  0.00    +0.000 A 
ATOM      8  C   UNL     1      48.795   6.047  16.347  0.00  0.00    +0.000 A 
BRANCH   7   9
ATOM      9  C   UNL     1      48.476   4.576  18.420  0.00  0.00    +0.000 C 
ATOM     10  C   UNL     1      49.872   3.999  18.712  0.00  0.00    +0.000 C 
ATOM     11  C   UNL     1      50.512   3.289  17.519  0.00  0.00    +0.000 C 
ATOM     12  N   UNL     1      49.632   2.303  16.888  0.00  0.00    +0.000 NA
ATOM     13  C   UNL     1      48.316   2.841  16.538  0.00  0.00    +0.000 C 
ATOM     14  C   UNL     1      47.612   3.522  17.710  0.00  0.00    +0.000 C 
ATOM     15  H   UNL     1      49.507   1.520  17.528  0.00  0.00    +0.000 HD
ENDBRANCH   7   9
ENDBRANCH   1   2
BRANCH   1  16
ATOM     16  O   UNL     1      48.730   6.171  13.580  0.00  0.00    +0.000 OA
BRANCH  16  21
ATOM     17  C   UNL     1      45.167   5.662  12.741  0.00  0.00    +0.000 A 
ATOM     18  N   UNL     1      44.947   6.696  11.872  0.00  0.00    +0.000 NA
ATOM     19  C   UNL     1      46.000   7.508  11.632  0.00  0.00    +0.000 A 
ATOM     20  C   UNL     1      47.253   7.335  12.204  0.00  0.00    +0.000 A 
ATOM     21  C   UNL     1      47.454   6.267  13.081  0.00  0.00    +0.000 A 
ATOM     22  C   UNL     1      46.384   5.418  13.361  0.00  0.00    +0.000 A 
ATOM     23  F   UNL     1      46.523   4.387  14.205  0.00  0.00    +0.000 F 
BRANCH  17  25
ATOM     24  N   UNL     1      42.801   5.384  13.178  0.00  0.00    +0.000 N 
ATOM     25  C   UNL     1      44.005   4.756  13.000  0.00  0.00    +0.000 C 
ATOM     26  O   UNL     1      44.084   3.536  13.049  0.00  0.00    +0.000 OA
ATOM     27  H   UNL     1      41.979   4.823  13.343  0.00  0.00    +0.000 HD
ATOM     28  H   UNL     1      42.741   6.394  13.130  0.00  0.00    +0.000 HD
ENDBRANCH  17  25
ENDBRANCH  16  21
ENDBRANCH   1  16
TORSDOF 5
ENDMDL
MODEL 9
REMARK VINA RESULT:    -6.582      4.449      6.889
REMARK INTER + INTRA:          -9.120
REMARK INTER:                  -7.915
REMARK INTRA:                  -1.206
REMARK UNBOUND:                -0.615
REMARK  Name = 
REMARK  5 active torsions:
REMARK  status: ('A' for Active; 'I' for Inactive)
REMARK    1  A    between atoms: C_2  and  C_4
REMARK    2  A    between atoms: C_8  and  O_9
REMARK    3  A    between atoms: O_9  and  C_10
REMARK    4  A    between atoms: C_10  and  C_11
REMARK    5  A    between atoms: C_16  and  C_17
REMARK                            x       y       z     vdW  Elec       q    Type
REMARK                         _______ _______ _______ _____ _____    ______ ____
ROOT
ATOM      1  C   UNL     1      47.916   8.154  13.073  0.00  0.00    +0.000 C 
ENDROOT
BRANCH   1   2
ATOM      2  C   UNL     1      47.720   9.358  12.190  0.00  0.00    +0.000 A 
ATOM      3  C   UNL     1      48.780   9.964  11.517  0.00  0.00    +0.000 A 
ATOM      4  C   UNL     1      48.539  11.099  10.755  0.00  0.00    +0.000 A 
ATOM      5  F   UNL     1      49.560  11.690  10.119  0.00  0.00    +0.000 F 
ATOM      6  C   UNL     1      47.260  11.646  10.645  0.00  0.00    +0.000 A 
ATOM      7  C   UNL     1      46.175  11.049  11.301  0.00  0.00    +0.000 A 
ATOM      8  C   UNL     1      46.434   9.898  12.056  0.00  0.00    +0.000 A 
BRANCH   7   9
ATOM      9  C   UNL     1      44.781  11.651  11.185  0.00  0.00    +0.000 C 
ATOM     10  C   UNL     1      43.650  10.703  11.620  0.00  0.00    +0.000 C 
ATOM     11  C   UNL     1      43.237   9.695  10.547  0.00  0.00    +0.000 C 
ATOM     12  N   UNL     1      42.966  10.309   9.246  0.00  0.00    +0.000 NA
ATOM     13  C   UNL     1      44.054  11.168   8.772  0.00  0.00    +0.000 C 
ATOM     14  C   UNL     1      44.475  12.225   9.792  0.00  0.00    +0.000 C 
ATOM     15  H   UNL     1      42.116  10.867   9.318  0.00  0.00    +0.000 HD
ENDBRANCH   7   9
ENDBRANCH   1   2
BRANCH   1  16
ATOM     16  O   UNL     1      47.894   6.970  12.273  0.00  0.00    +0.000 OA
BRANCH  16  21
ATOM     17  C   UNL     1      44.725   5.069  12.251  0.00  0.00    +0.000 A 
ATOM     18  N   UNL     1      44.929   4.199  13.287  0.00  0.00    +0.000 NA
ATOM     19  C   UNL     1      46.120   4.292  13.919  0.00  0.00    +0.000 A 
ATOM     20  C   UNL     1      47.104   5.209  13.577  0.00  0.00    +0.000 A 
ATOM     21  C   UNL     1      46.868   6.092  12.522  0.00  0.00    +0.000 A 
ATOM     22  C   UNL     1      45.655   6.013  11.840  0.00  0.00    +0.000 A 
ATOM     23  F   UNL     1      45.386   6.830  10.813  0.00  0.00    +0.000 F 
BRANCH  17  25
ATOM     24  N   UNL     1      42.456   5.870  11.976  0.00  0.00    +0.000 N 
ATOM     25  C   UNL     1      43.403   4.974  11.557  0.00  0.00    +0.000 C 
ATOM     26  O   UNL     1      43.151   4.172  10.669  0.00  0.00    +0.000 OA
ATOM     27  H   UNL     1      41.549   5.862  11.534  0.00  0.00    +0.000 HD
ATOM     28  H   UNL     1      42.673   6.537  12.707  0.00  0.00    +0.000 HD
ENDBRANCH  17  25
ENDBRANCH  16  21
ENDBRANCH   1  16
TORSDOF 5
ENDMDL
