MODEL 1
REMARK VINA RESULT:    -6.737      0.000      0.000
REMARK INTER + INTRA:          -9.249
REMARK INTER:                  -8.312
REMARK INTRA:                  -0.937
REMARK UNBOUND:                -0.937
REMARK  Name = 
REMARK  6 active torsions:
REMARK  status: ('A' for Active; 'I' for Inactive)
REMARK    1  A    between atoms: C_1  and  C_2
REMARK    2  A    between atoms: C_4  and  C_5
REMARK    3  A    between atoms: C_7  and  O_8
REMARK    4  A    between atoms: O_8  and  C_9
REMARK    5  A    between atoms: C_9  and  C_10
REMARK    6  A    between atoms: C_14  and  C_15
REMARK                            x       y       z     vdW  Elec       q    Type
REMARK                         _______ _______ _______ _____ _____    ______ ____
ROOT
ATOM      1  C   UNL     1      45.965   7.529  12.492  0.00  0.00    +0.000 C 
ATOM      2  C   UNL     1      47.048   7.227  13.531  0.00  0.00    +0.000 C 
ATOM      3  C   UNL     1      47.439   7.560  12.132  0.00  0.00    +0.000 C 
ENDROOT
BRANCH   1   4
ATOM      4  C   UNL     1      45.144   6.383  11.914  0.00  0.00    +0.000 A 
ATOM      5  C   UNL     1      43.799   6.201  12.275  0.00  0.00    +0.000 A 
ATOM      6  C   UNL     1      43.004   5.227  11.674  0.00  0.00    +0.000 A 
ATOM      7  C   UNL     1      43.535   4.426  10.667  0.00  0.00    +0.000 A 
ATOM      8  C   UNL     1      44.870   4.569  10.256  0.00  0.00    +0.000 A 
ATOM      9  C   UNL     1      45.660   5.525  10.926  0.00  0.00    +0.000 A 
BRANCH   8  10
ATOM     10  C   UNL     1      45.413   3.807   9.115  0.00  0.00    +0.000 A 
ATOM     11  C   UNL     1      45.460   2.408   9.097  0.00  0.00    +0.000 A 
ATOM     12  C   UNL     1      46.037   1.728   8.025  0.00  0.00    +0.000 A 
ATOM     13  C   UNL     1      46.548   2.470   6.976  0.00  0.00    +0.000 A 
ATOM     14  N   UNL     1      46.525   3.818   6.935  0.00  0.00    +0.000 NA
ATOM     15  C   UNL     1      45.969   4.445   8.000  0.00  0.00    +0.000 A 
ENDBRANCH   8  10
ENDBRANCH   1   4
BRANCH   1  16
ATOM     16  O   UNL     1      45.281   8.753  12.853  0.00  0.00    +0.000 OA
BRANCH  16  23
ATOM     17  C   UNL     1      42.913  10.733   9.114  0.00  0.00    +0.000 C 
ATOM     18  C   UNL     1      44.058  10.741  10.079  0.00  0.00    +0.000 A 
ATOM     19  C   UNL     1      45.048  11.728  10.032  0.00  0.00    +0.000 A 
ATOM     20  C   UNL     1      46.095  11.681  10.951  0.00  0.00    +0.000 A 
ATOM     21  C   UNL     1      47.197  12.697  10.911  0.00  0.00    +0.000 C 
ATOM     22  N   UNL     1      46.192  10.730  11.909  0.00  0.00    +0.000 NA
ATOM     23  C   UNL     1      45.238   9.776  11.928  0.00  0.00    +0.000 A 
ATOM     24  C   UNL     1      44.159   9.751  11.053  0.00  0.00    +0.000 A 
ENDBRANCH  16  23
ENDBRANCH   1  16
TORSDOF 4
ENDMDL
MODEL 2
REMARK VINA RESULT:    -6.620      3.524      6.260
REMARK INTER + INTRA:          -9.105
REMARK INTER:                  -8.191
REMARK INTRA:                  -0.914
REMARK UNBOUND:                -0.937
REMARK  Name = 
REMARK  6 active torsions:
REMARK  status: ('A' for Active; 'I' for Inactive)
REMARK    1  A    between atoms: C_1  and  C_2
REMARK    2  A    between atoms: C_4  and  C_5
REMARK    3  A    between atoms: C_7  and  O_8
REMARK    4  A    between atoms: O_8  and  C_9
REMARK    5  A    between atoms: C_9  and  C_10
REMARK    6  A    between atoms: C_14  and  C_15
REMARK                            x       y       z     vdW  Elec       q    Type
REMARK                         _______ _______ _______ _____ _____    ______ ____
ROOT
ATOM      1  C   UNL     1      49.058   7.670  14.021  0.00  0.00    +0.000 C 
ATOM      2  C   UNL     1      50.193   8.250  13.174  0.00  0.00    +0.000 C 
ATOM      3  C   UNL     1      49.630   9.047  14.301  0.00  0.00    +0.000 C 
ENDROOT
BRANCH   1   4
ATOM      4  C   UNL     1      47.647   7.620  13.446  0.00  0.00    +0.000 A 
ATOM      5  C   UNL     1      46.797   8.735  13.512  0.00  0.00    +0.000 A 
ATOM      6  C   UNL     1      45.547   8.742  12.895  0.00  0.00    +0.000 A 
ATOM      7  C   UNL     1      45.130   7.632  12.166  0.00  0.00    +0.000 A 
ATOM      8  C   UNL     1      45.940   6.492  12.056  0.00  0.00    +0.000 A 
ATOM      9  C   UNL     1      47.173   6.499  12.740  0.00  0.00    +0.000 A 
BRANCH   8  10
ATOM     10  C   UNL     1      45.562   5.354  11.196  0.00  0.00    +0.000 A 
ATOM     11  C   UNL     1      45.616   5.416   9.798  0.00  0.00    +0.000 A 
ATOM     12  C   UNL     1      45.191   4.339   9.020  0.00  0.00    +0.000 A 
ATOM     13  C   UNL     1      44.730   3.206   9.665  0.00  0.00    +0.000 A 
ATOM     14  N   UNL     1      44.661   3.087  11.006  0.00  0.00    +0.000 NA
ATOM     15  C   UNL     1      45.069   4.158  11.729  0.00  0.00    +0.000 A 
ENDBRANCH   8  10
ENDBRANCH   1   4
BRANCH   1  16
ATOM     16  O   UNL     1      49.543   6.519  14.753  0.00  0.00    +0.000 OA
BRANCH  16  23
ATOM     17  C   UNL     1      48.174   7.897  19.195  0.00  0.00    +0.000 C 
ATOM     18  C   UNL     1      48.230   6.862  18.114  0.00  0.00    +0.000 A 
ATOM     19  C   UNL     1      47.673   5.590  18.289  0.00  0.00    +0.000 A 
ATOM     20  C   UNL     1      47.763   4.664  17.252  0.00  0.00    +0.000 A 
ATOM     21  C   UNL     1      47.214   3.278  17.411  0.00  0.00    +0.000 C 
ATOM     22  N   UNL     1      48.350   4.942  16.065  0.00  0.00    +0.000 NA
ATOM     23  C   UNL     1      48.898   6.166  15.921  0.00  0.00    +0.000 A 
ATOM     24  C   UNL     1      48.849   7.150  16.901  0.00  0.00    +0.000 A 
ENDBRANCH  16  23
ENDBRANCH   1  16
TORSDOF 4
ENDMDL
MODEL 3
REMARK VINA RESULT:    -6.394      0.900      2.023
REMARK INTER + INTRA:          -8.826
REMARK INTER:                  -8.201
REMARK INTRA:                  -0.625
REMARK UNBOUND:                -0.937
REMARK  Name = 
REMARK  6 active torsions:
REMARK  status: ('A' for Active; 'I' for Inactive)
REMARK    1  A    between atoms: C_1  and  C_2
REMARK    2  A    between atoms: C_4  and  C_5
REMARK    3  A    between atoms: C_7  and  O_8
REMARK    4  A    between atoms: O_8  and  C_9
REMARK    5  A    between atoms: C_9  and  C_10
REMARK    6  A    between atoms: C_14  and  C_15
REMARK                            x       y       z     vdW  Elec       q    Type
REMARK                         _______ _______ _______ _____ _____    ______ ____
ROOT
ATOM      1  C   UNL     1      46.202   7.439  12.495  0.00  0.00    +0.000 C 
ATOM      2  C   UNL     1      47.244   6.953  13.505  0.00  0.00    +0.000 C 
ATOM      3  C   UNL     1      47.678   7.382  12.146  0.00  0.00    +0.000 C 
ENDROOT
BRANCH   1   4
ATOM      4  C   UNL     1      45.297   6.424  11.807  0.00  0.00    +0.000 A 
ATOM      5  C   UNL     1      43.903   6.470  11.967  0.00  0.00    +0.000 A 
ATOM      6  C   UNL     1      43.055   5.620  11.260  0.00  0.00    +0.000 A 
ATOM      7  C   UNL     1      43.589   4.716  10.345  0.00  0.00    +0.000 A 
ATOM      8  C   UNL     1      44.974   4.631  10.135  0.00  0.00    +0.000 A 
ATOM      9  C   UNL     1      45.804   5.467  10.910  0.00  0.00    +0.000 A 
BRANCH   8  10
ATOM     10  C   UNL     1      45.545   3.759   9.090  0.00  0.00    +0.000 A 
ATOM     11  C   UNL     1      46.130   4.266   7.923  0.00  0.00    +0.000 A 
ATOM     12  C   UNL     1      46.603   3.406   6.933  0.00  0.00    +0.000 A 
ATOM     13  C   UNL     1      46.494   2.043   7.139  0.00  0.00    +0.000 A 
ATOM     14  N   UNL     1      45.948   1.498   8.245  0.00  0.00    +0.000 NA
ATOM     15  C   UNL     1      45.486   2.364   9.180  0.00  0.00    +0.000 A 
ENDBRANCH   8  10
ENDBRANCH   1   4
BRANCH   1  16
ATOM     16  O   UNL     1      45.615   8.676  12.966  0.00  0.00    +0.000 OA
BRANCH  16  23
ATOM     17  C   UNL     1      47.843  12.346  10.712  0.00  0.00    +0.000 C 
ATOM     18  C   UNL     1      46.611  11.535  10.972  0.00  0.00    +0.000 A 
ATOM     19  C   UNL     1      45.391  11.840  10.357  0.00  0.00    +0.000 A 
ATOM     20  C   UNL     1      44.275  11.056  10.643  0.00  0.00    +0.000 A 
ATOM     21  C   UNL     1      42.940  11.370  10.036  0.00  0.00    +0.000 C 
ATOM     22  N   UNL     1      44.317   9.992  11.478  0.00  0.00    +0.000 NA
ATOM     23  C   UNL     1      45.496   9.724  12.076  0.00  0.00    +0.000 A 
ATOM     24  C   UNL     1      46.658  10.451  11.844  0.00  0.00    +0.000 A 
ENDBRANCH  16  23
ENDBRANCH   1  16
TORSDOF 4
ENDMDL
MODEL 4
REMARK VINA RESULT:    -6.364      3.635      6.328
REMARK INTER + INTRA:          -8.789
REMARK INTER:                  -7.838
REMARK INTRA:                  -0.951
REMARK UNBOUND:                -0.937
REMARK  Name = 
REMARK  6 active torsions:
REMARK  status: ('A' for Active; 'I' for Inactive)
REMARK    1  A    between atoms: C_1  and  C_2
REMARK    2  A    between atoms: C_4  and  C_5
REMARK    3  A    between atoms: C_7  and  O_8
REMARK    4  A    between atoms: O_8  and  C_9
REMARK    5  A    between atoms: C_9  and  C_10
REMARK    6  A    between atoms: C_14  and  C_15
REMARK                            x       y       z     vdW  Elec       q    Type
REMARK                         _______ _______ _______ _____ _____    ______ ____
ROOT
ATOM      1  C   UNL     1      49.107   7.524  14.388  0.00  0.00    +0.000 C 
ATOM      2  C   UNL     1      50.314   8.062  13.615  0.00  0.00    +0.000 C 
ATOM      3  C   UNL     1      49.734   8.863  14.731  0.00  0.00    +0.000 C 
ENDROOT
BRANCH   1   4
ATOM      4  C   UNL     1      47.728   7.561  13.739  0.00  0.00    +0.000 A 
ATOM      5  C   UNL     1      46.978   8.746  13.697  0.00  0.00    +0.000 A 
ATOM      6  C   UNL     1      45.766   8.824  13.013  0.00  0.00    +0.000 A 
ATOM      7  C   UNL     1      45.289   7.712  12.324  0.00  0.00    +0.000 A 
ATOM      8  C   UNL     1      46.001   6.502  12.320  0.00  0.00    +0.000 A 
ATOM      9  C   UNL     1      47.193   6.445  13.071  0.00  0.00    +0.000 A 
BRANCH   8  10
ATOM     10  C   UNL     1      45.567   5.353  11.504  0.00  0.00    +0.000 A 
ATOM     11  C   UNL     1      45.513   5.399  10.105  0.00  0.00    +0.000 A 
ATOM     12  C   UNL     1      45.039   4.310   9.374  0.00  0.00    +0.000 A 
ATOM     13  C   UNL     1      44.638   3.181  10.064  0.00  0.00    +0.000 A 
ATOM     14  N   UNL     1      44.675   3.075  11.408  0.00  0.00    +0.000 NA
ATOM     15  C   UNL     1      45.127   4.158  12.086  0.00  0.00    +0.000 A 
ENDBRANCH   8  10
ENDBRANCH   1   4
BRANCH   1  16
ATOM     16  O   UNL     1      49.493   6.334  15.116  0.00  0.00    +0.000 OA
BRANCH  16  23
ATOM     17  C   UNL     1      47.134   2.915  17.616  0.00  0.00    +0.000 C 
ATOM     18  C   UNL     1      47.639   4.319  17.491  0.00  0.00    +0.000 A 
ATOM     19  C   UNL     1      47.405   5.272  18.488  0.00  0.00    +0.000 A 
ATOM     20  C   UNL     1      47.892   6.567  18.315  0.00  0.00    +0.000 A 
ATOM     21  C   UNL     1      47.631   7.628  19.341  0.00  0.00    +0.000 C 
ATOM     22  N   UNL     1      48.604   6.946  17.229  0.00  0.00    +0.000 NA
ATOM     23  C   UNL     1      48.804   6.019  16.269  0.00  0.00    +0.000 A 
ATOM     24  C   UNL     1      48.359   4.706  16.364  0.00  0.00    +0.000 A 
ENDBRANCH  16  23
ENDBRANCH   1  16
TORSDOF 4
ENDMDL
MODEL 5
REMARK VINA RESULT:    -6.080      4.563      7.825
REMARK INTER + INTRA:          -8.438
REMARK INTER:                  -7.842
REMARK INTRA:                  -0.597
REMARK UNBOUND:                -0.937
REMARK  Name = 
REMARK  6 active torsions:
REMARK  status: ('A' for Active; 'I' for Inactive)
REMARK    1  A    between atoms: C_1  and  C_2
REMARK    2  A    between atoms: C_4  and  C_5
REMARK    3  A    between atoms: C_7  and  O_8
REMARK    4  A    between atoms: O_8  and  C_9
REMARK    5  A    between atoms: C_9  and  C_10
REMARK    6  A    between atoms: C_14  and  C_15
REMARK                            x       y       z     vdW  Elec       q    Type
REMARK                         _______ _______ _______ _____ _____    ______ ____
ROOT
ATOM      1  C   UNL     1      49.680   7.358  15.468  0.00  0.00    +0.000 C 
ATOM      2  C   UNL     1      50.521   8.607  15.745  0.00  0.00    +0.000 C 
ATOM      3  C   UNL     1      49.223   8.418  16.453  0.00  0.00    +0.000 C 
ENDROOT
BRANCH   1   4
ATOM      4  C   UNL     1      48.901   7.256  14.162  0.00  0.00    +0.000 A 
ATOM      5  C   UNL     1      49.447   7.718  12.954  0.00  0.00    +0.000 A 
ATOM      6  C   UNL     1      48.795   7.533  11.736  0.00  0.00    +0.000 A 
ATOM      7  C   UNL     1      47.584   6.848  11.697  0.00  0.00    +0.000 A 
ATOM      8  C   UNL     1      46.993   6.354  12.872  0.00  0.00    +0.000 A 
ATOM      9  C   UNL     1      47.653   6.610  14.091  0.00  0.00    +0.000 A 
BRANCH   8  10
ATOM     10  C   UNL     1      45.770   5.531  12.834  0.00  0.00    +0.000 A 
ATOM     11  C   UNL     1      44.485   6.088  12.852  0.00  0.00    +0.000 A 
ATOM     12  C   UNL     1      43.355   5.272  12.877  0.00  0.00    +0.000 A 
ATOM     13  C   UNL     1      43.535   3.901  12.869  0.00  0.00    +0.000 A 
ATOM     14  N   UNL     1      44.745   3.308  12.844  0.00  0.00    +0.000 NA
ATOM     15  C   UNL     1      45.822   4.132  12.835  0.00  0.00    +0.000 A 
ENDBRANCH   8  10
ENDBRANCH   1   4
BRANCH   1  16
ATOM     16  O   UNL     1      50.389   6.187  15.938  0.00  0.00    +0.000 OA
BRANCH  16  23
ATOM     17  C   UNL     1      50.469   5.107  20.664  0.00  0.00    +0.000 C 
ATOM     18  C   UNL     1      49.882   4.925  19.299  0.00  0.00    +0.000 A 
ATOM     19  C   UNL     1      48.828   4.033  19.067  0.00  0.00    +0.000 A 
ATOM     20  C   UNL     1      48.327   3.899  17.774  0.00  0.00    +0.000 A 
ATOM     21  C   UNL     1      47.225   2.928  17.475  0.00  0.00    +0.000 C 
ATOM     22  N   UNL     1      48.800   4.609  16.723  0.00  0.00    +0.000 NA
ATOM     23  C   UNL     1      49.828   5.449  16.961  0.00  0.00    +0.000 A 
ATOM     24  C   UNL     1      50.383   5.648  18.220  0.00  0.00    +0.000 A 
ENDBRANCH  16  23
ENDBRANCH   1  16
TORSDOF 4
ENDMDL
MODEL 6
REMARK VINA RESULT:    -5.839      6.837      9.345
REMARK INTER + INTRA:          -8.141
REMARK INTER:                  -7.370
REMARK INTRA:                  -0.770
REMARK UNBOUND:                -0.937
REMARK  Name = 
REMARK  6 active torsions:
REMARK  status: ('A' for Active; 'I' for Inactive)
REMARK    1  A    between atoms: C_1  and  C_2
REMARK    2  A    between atoms: C_4  and  C_5
REMARK    3  A    between atoms: C_7  and  O_8
REMARK    4  A    between atoms: O_8  and  C_9
REMARK    5  A    between atoms: C_9  and  C_10
REMARK    6  A    between atoms: C_14  and  C_15
REMARK                            x       y       z     vdW  Elec       q    Type
REMARK                         _______ _______ _______ _____ _____    ______ ____
ROOT
ATOM      1  C   UNL     1      48.046   3.738  16.614  0.00  0.00    +0.000 C 
ATOM      2  C   UNL     1      47.248   2.814  17.536  0.00  0.00    +0.000 C 
ATOM      3  C   UNL     1      46.932   4.270  17.496  0.00  0.00    +0.000 C 
ENDROOT
BRANCH   1   4
ATOM      4  C   UNL     1      49.468   4.130  16.998  0.00  0.00    +0.000 A 
ATOM      5  C   UNL     1      49.816   5.472  17.219  0.00  0.00    +0.000 A 
ATOM      6  C   UNL     1      51.081   5.836  17.677  0.00  0.00    +0.000 A 
ATOM      7  C   UNL     1      52.025   4.852  17.955  0.00  0.00    +0.000 A 
ATOM      8  C   UNL     1      51.732   3.492  17.764  0.00  0.00    +0.000 A 
ATOM      9  C   UNL     1      50.462   3.166  17.246  0.00  0.00    +0.000 A 
BRANCH   8  10
ATOM     10  C   UNL     1      52.680   2.434  18.161  0.00  0.00    +0.000 A 
ATOM     11  C   UNL     1      53.872   2.707  18.845  0.00  0.00    +0.000 A 
ATOM     12  C   UNL     1      54.769   1.684  19.147  0.00  0.00    +0.000 A 
ATOM     13  C   UNL     1      54.446   0.394  18.769  0.00  0.00    +0.000 A 
ATOM     14  N   UNL     1      53.311   0.070  18.117  0.00  0.00    +0.000 NA
ATOM     15  C   UNL     1      52.469   1.092  17.826  0.00  0.00    +0.000 A 
ENDBRANCH   8  10
ENDBRANCH   1   4
BRANCH   1  16
ATOM     16  O   UNL     1      47.778   3.391  15.234  0.00  0.00    +0.000 OA
BRANCH  16  23
ATOM     17  C   UNL     1      47.747   7.736  13.083  0.00  0.00    +0.000 C 
ATOM     18  C   UNL     1      47.071   6.440  13.404  0.00  0.00    +0.000 A 
ATOM     19  C   UNL     1      45.774   6.160  12.957  0.00  0.00    +0.000 A 
ATOM     20  C   UNL     1      45.191   4.940  13.293  0.00  0.00    +0.000 A 
ATOM     21  C   UNL     1      43.791   4.616  12.867  0.00  0.00    +0.000 C 
ATOM     22  N   UNL     1      45.829   3.995  14.021  0.00  0.00    +0.000 NA
ATOM     23  C   UNL     1      47.071   4.288  14.460  0.00  0.00    +0.000 A 
ATOM     24  C   UNL     1      47.728   5.478  14.166  0.00  0.00    +0.000 A 
ENDBRANCH  16  23
ENDBRANCH   1  16
TORSDOF 4
ENDMDL
MODEL 7
REMARK VINA RESULT:    -5.828      5.257      9.383
REMARK INTER + INTRA:          -8.127
REMARK INTER:                  -7.216
REMARK INTRA:                  -0.911
REMARK UNBOUND:                -0.937
REMARK  Name = 
REMARK  6 active torsions:
REMARK  status: ('A' for Active; 'I' for Inactive)
REMARK    1  A    between atoms: C_1  and  C_2
REMARK    2  A    between atoms: C_4  and  C_5
REMARK    3  A    between atoms: C_7  and  O_8
REMARK    4  A    between atoms: O_8  and  C_9
REMARK    5  A    between atoms: C_9  and  C_10
REMARK    6  A    between atoms: C_14  and  C_15
REMARK                            x       y       z     vdW  Elec       q    Type
REMARK                         _______ _______ _______ _____ _____    ______ ____
ROOT
ATOM      1  C   UNL     1      48.009   4.320  16.360  0.00  0.00    +0.000 C 
ATOM      2  C   UNL     1      48.289   2.983  17.049  0.00  0.00    +0.000 C 
ATOM      3  C   UNL     1      46.960   3.635  17.216  0.00  0.00    +0.000 C 
ENDROOT
BRANCH   1   4
ATOM      4  C   UNL     1      48.626   5.595  16.924  0.00  0.00    +0.000 A 
ATOM      5  C   UNL     1      49.719   6.211  16.293  0.00  0.00    +0.000 A 
ATOM      6  C   UNL     1      50.224   7.434  16.732  0.00  0.00    +0.000 A 
ATOM      7  C   UNL     1      49.620   8.087  17.803  0.00  0.00    +0.000 A 
ATOM      8  C   UNL     1      48.518   7.525  18.466  0.00  0.00    +0.000 A 
ATOM      9  C   UNL     1      48.071   6.261  18.032  0.00  0.00    +0.000 A 
BRANCH   8  10
ATOM     10  C   UNL     1      47.799   8.256  19.527  0.00  0.00    +0.000 A 
ATOM     11  C   UNL     1      47.209   9.508  19.314  0.00  0.00    +0.000 A 
ATOM     12  C   UNL     1      46.592  10.192  20.360  0.00  0.00    +0.000 A 
ATOM     13  C   UNL     1      46.564   9.597  21.608  0.00  0.00    +0.000 A 
ATOM     14  N   UNL     1      47.107   8.391  21.871  0.00  0.00    +0.000 NA
ATOM     15  C   UNL     1      47.712   7.762  20.834  0.00  0.00    +0.000 A 
ENDBRANCH   8  10
ENDBRANCH   1   4
BRANCH   1  16
ATOM     16  O   UNL     1      48.011   4.131  14.925  0.00  0.00    +0.000 OA
BRANCH  16  23
ATOM     17  C   UNL     1      46.834   8.058  12.336  0.00  0.00    +0.000 C 
ATOM     18  C   UNL     1      46.475   6.720  12.905  0.00  0.00    +0.000 A 
ATOM     19  C   UNL     1      45.210   6.155  12.706  0.00  0.00    +0.000 A 
ATOM     20  C   UNL     1      44.929   4.910  13.266  0.00  0.00    +0.000 A 
ATOM     21  C   UNL     1      43.575   4.287  13.111  0.00  0.00    +0.000 C 
ATOM     22  N   UNL     1      45.834   4.204  13.983  0.00  0.00    +0.000 NA
ATOM     23  C   UNL     1      47.042   4.772  14.179  0.00  0.00    +0.000 A 
ATOM     24  C   UNL     1      47.407   6.005  13.653  0.00  0.00    +0.000 A 
ENDBRANCH  16  23
ENDBRANCH   1  16
TORSDOF 4
ENDMDL
MODEL 8
REMARK VINA RESULT:    -5.738      3.635      6.893
REMARK INTER + INTRA:          -8.016
REMARK INTER:                  -7.520
REMARK INTRA:                  -0.496
REMARK UNBOUND:                -0.937
REMARK  Name = 
REMARK  6 active torsions:
REMARK  status: ('A' for Active; 'I' for Inactive)
REMARK    1  A    between atoms: C_1  and  C_2
REMARK    2  A    between atoms: C_4  and  C_5
REMARK    3  A    between atoms: C_7  and  O_8
REMARK    4  A    between atoms: O_8  and  C_9
REMARK    5  A    between atoms: C_9  and  C_10
REMARK    6  A    between atoms: C_14  and  C_15
REMARK                            x       y       z     vdW  Elec       q    Type
REMARK                         _______ _______ _______ _____ _____    ______ ____
ROOT
ATOM      1  C   UNL     1      47.948   7.914  12.588  0.00  0.00    +0.000 C 
ATOM      2  C   UNL     1      48.840   8.786  11.701  0.00  0.00    +0.000 C 
ATOM      3  C   UNL     1      48.920   7.301  11.597  0.00  0.00    +0.000 C 
ENDROOT
BRANCH   1   4
ATOM      4  C   UNL     1      48.287   7.757  14.066  0.00  0.00    +0.000 A 
ATOM      5  C   UNL     1      48.484   8.879  14.887  0.00  0.00    +0.000 A 
ATOM      6  C   UNL     1      48.686   8.755  16.260  0.00  0.00    +0.000 A 
ATOM      7  C   UNL     1      48.665   7.495  16.852  0.00  0.00    +0.000 A 
ATOM      8  C   UNL     1      48.462   6.338  16.083  0.00  0.00    +0.000 A 
ATOM      9  C   UNL     1      48.318   6.497  14.690  0.00  0.00    +0.000 A 
BRANCH   8  10
ATOM     10  C   UNL     1      48.324   5.009  16.709  0.00  0.00    +0.000 A 
ATOM     11  C   UNL     1      49.417   4.304  17.230  0.00  0.00    +0.000 A 
ATOM     12  C   UNL     1      49.252   3.024  17.758  0.00  0.00    +0.000 A 
ATOM     13  C   UNL     1      47.983   2.476  17.767  0.00  0.00    +0.000 A 
ATOM     14  N   UNL     1      46.894   3.109  17.287  0.00  0.00    +0.000 NA
ATOM     15  C   UNL     1      47.093   4.345  16.768  0.00  0.00    +0.000 A 
ENDBRANCH   8  10
ENDBRANCH   1   4
BRANCH   1  16
ATOM     16  O   UNL     1      46.562   8.112  12.218  0.00  0.00    +0.000 OA
BRANCH  16  23
ATOM     17  C   UNL     1      45.628   4.691   8.911  0.00  0.00    +0.000 C 
ATOM     18  C   UNL     1      45.357   5.321  10.243  0.00  0.00    +0.000 A 
ATOM     19  C   UNL     1      44.372   4.822  11.102  0.00  0.00    +0.000 A 
ATOM     20  C   UNL     1      44.157   5.454  12.325  0.00  0.00    +0.000 A 
ATOM     21  C   UNL     1      43.087   4.976  13.259  0.00  0.00    +0.000 C 
ATOM     22  N   UNL     1      44.876   6.525  12.737  0.00  0.00    +0.000 NA
ATOM     23  C   UNL     1      45.808   7.004  11.888  0.00  0.00    +0.000 A 
ATOM     24  C   UNL     1      46.090   6.432  10.653  0.00  0.00    +0.000 A 
ENDBRANCH  16  23
ENDBRANCH   1  16
TORSDOF 4
ENDMDL
MODEL 9
REMARK VINA RESULT:    -5.669      5.299      7.755
REMARK INTER + INTRA:          -7.932
REMARK INTER:                  -7.203
REMARK INTRA:                  -0.729
REMARK UNBOUND:                -0.937
REMARK  Name = 
REMARK  6 active torsions:
REMARK  status: ('A' for Active; 'I' for Inactive)
REMARK    1  A    between atoms: C_1  and  C_2
REMARK    2  A    between atoms: C_4  and  C_5
REMARK    3  A    between atoms: C_7  and  O_8
REMARK    4  A    between atoms: O_8  and  C_9
REMARK    5  A    between atoms: C_9  and  C_10
REMARK    6  A    between atoms: C_14  and  C_15
REMARK                            x       y       z     vdW  Elec       q    Type
REMARK                         _______ _______ _______ _____ _____    ______ ____
ROOT
ATOM      1  C   UNL     1      48.177   4.019  16.988  0.00  0.00    +0.000 C 
ATOM      2  C   UNL     1      48.391   2.524  16.743  0.00  0.00    +0.000 C 
ATOM      3  C   UNL     1      49.558   3.394  17.062  0.00  0.00    +0.000 C 
ENDROOT
BRANCH   1   4
ATOM      4  C   UNL     1      47.905   4.939  15.804  0.00  0.00    +0.000 A 
ATOM      5  C   UNL     1      48.652   6.111  15.609  0.00  0.00    +0.000 A 
ATOM      6  C   UNL     1      48.491   6.904  14.474  0.00  0.00    +0.000 A 
ATOM      7  C   UNL     1      47.590   6.520  13.485  0.00  0.00    +0.000 A 
ATOM      8  C   UNL     1      46.822   5.352  13.618  0.00  0.00    +0.000 A 
ATOM      9  C   UNL     1      46.971   4.606  14.806  0.00  0.00    +0.000 A 
BRANCH   8  10
ATOM     10  C   UNL     1      45.949   4.872  12.530  0.00  0.00    +0.000 A 
ATOM     11  C   UNL     1      45.395   3.586  12.519  0.00  0.00    +0.000 A 
ATOM     12  C   UNL     1      44.624   3.152  11.442  0.00  0.00    +0.000 A 
ATOM     13  C   UNL     1      44.409   4.027  10.394  0.00  0.00    +0.000 A 
ATOM     14  N   UNL     1      44.909   5.279  10.353  0.00  0.00    +0.000 NA
ATOM     15  C   UNL     1      45.666   5.662  11.410  0.00  0.00    +0.000 A 
ENDBRANCH   8  10
ENDBRANCH   1   4
BRANCH   1  16
ATOM     16  O   UNL     1      47.398   4.203  18.195  0.00  0.00    +0.000 OA
BRANCH  16  23
ATOM     17  C   UNL     1      47.291   8.786  19.773  0.00  0.00    +0.000 C 
ATOM     18  C   UNL     1      47.786   7.378  19.899  0.00  0.00    +0.000 A 
ATOM     19  C   UNL     1      48.680   7.005  20.909  0.00  0.00    +0.000 A 
ATOM     20  C   UNL     1      49.115   5.683  20.973  0.00  0.00    +0.000 A 
ATOM     21  C   UNL     1      50.102   5.249  22.015  0.00  0.00    +0.000 C 
ATOM     22  N   UNL     1      48.696   4.727  20.111  0.00  0.00    +0.000 NA
ATOM     23  C   UNL     1      47.849   5.109  19.133  0.00  0.00    +0.000 A 
ATOM     24  C   UNL     1      47.362   6.404  19.000  0.00  0.00    +0.000 A 
ENDBRANCH  16  23
ENDBRANCH   1  16
TORSDOF 4
ENDMDL
