MODEL 1
REMARK VINA RESULT:    -8.023      0.000      0.000
REMARK INTER + INTRA:         -13.013
REMARK INTER:                 -12.010
REMARK INTRA:                  -1.003
REMARK UNBOUND:                -1.003
REMARK  Name = 
REMARK  9 active torsions:
REMARK  status: ('A' for Active; 'I' for Inactive)
REMARK    1  A    between atoms: C_2  and  C_3
REMARK    2  A    between atoms: C_2  and  C_20
REMARK    3  A    between atoms: C_3  and  C_4
REMARK    4  A    between atoms: C_4  and  C_5
REMARK    5  A    between atoms: C_8  and  C_9
REMARK    6  A    between atoms: C_9  and  N_10
REMARK    7  A    between atoms: N_10  and  C_11
REMARK    8  A    between atoms: C_11  and  C_12
REMARK    9  A    between atoms: C_24  and  O_25
REMARK                            x       y       z     vdW  Elec       q    Type
REMARK                         _______ _______ _______ _____ _____    ______ ____
ROOT
ATOM      1  C   UNL     1      47.106   4.755  14.587  0.00  0.00    +0.000 C 
ENDROOT
BRANCH   1   2
ATOM      2  C   UNL     1      46.171   4.641  13.411  0.00  0.00    +0.000 A 
ATOM      3  C   UNL     1      45.661   5.789  12.799  0.00  0.00    +0.000 A 
ATOM      4  C   UNL     1      44.852   5.685  11.673  0.00  0.00    +0.000 A 
ATOM      5  C   UNL     1      44.588   4.436  11.092  0.00  0.00    +0.000 A 
ATOM      6  C   UNL     1      45.072   3.286  11.726  0.00  0.00    +0.000 A 
ATOM      7  C   UNL     1      45.852   3.387  12.879  0.00  0.00    +0.000 A 
BRANCH   5   8
ATOM      8  C   UNL     1      43.798   4.296   9.811  0.00  0.00    +0.000 C 
BRANCH   8   9
ATOM      9  N   UNL     1      44.462   3.532   8.756  0.00  0.00    +0.000 NA
ATOM     10  H   UNL     1      43.789   3.285   8.035  0.00  0.00    +0.000 HD
BRANCH   9  11
ATOM     11  C   UNL     1      45.607   4.232   8.170  0.00  0.00    +0.000 C 
BRANCH  11  12
ATOM     12  C   UNL     1      46.607   3.213   7.602  0.00  0.00    +0.000 C 
ATOM     13  C   UNL     1      46.672   3.309   6.070  0.00  0.00    +0.000 C 
ATOM     14  C   UNL     1      47.588   2.252   5.474  0.00  0.00    +0.000 C 
ATOM     15  C   UNL     1      47.174   0.853   5.914  0.00  0.00    +0.000 C 
ATOM     16  C   UNL     1      47.142   0.736   7.434  0.00  0.00    +0.000 C 
ATOM     17  C   UNL     1      46.233   1.792   8.056  0.00  0.00    +0.000 C 
ENDBRANCH  11  12
ENDBRANCH   9  11
ENDBRANCH   8   9
ENDBRANCH   5   8
ENDBRANCH   1   2
BRANCH   1  18
ATOM     18  C   UNL     1      47.506   3.399  15.156  0.00  0.00    +0.000 C 
BRANCH  18  20
ATOM     19  O   UNL     1      46.608   3.153  17.369  0.00  0.00    +0.000 OA
ATOM     20  C   UNL     1      47.581   3.437  16.668  0.00  0.00    +0.000 C 
BRANCH  20  21
ATOM     21  C   UNL     1      48.850   3.808  17.282  0.00  0.00    +0.000 A 
ATOM     22  C   UNL     1      49.112   5.042  17.858  0.00  0.00    +0.000 A 
ATOM     23  N   UNL     1      50.399   5.041  18.324  0.00  0.00    +0.000 N 
ATOM     24  C   UNL     1      50.989   3.831  18.060  0.00  0.00    +0.000 A 
ATOM     25  C   UNL     1      52.242   3.306  18.301  0.00  0.00    +0.000 A 
ATOM     26  N   UNL     1      52.514   2.049  17.917  0.00  0.00    +0.000 NA
ATOM     27  C   UNL     1      51.535   1.362  17.307  0.00  0.00    +0.000 A 
ATOM     28  N   UNL     1      50.295   1.776  17.026  0.00  0.00    +0.000 NA
ATOM     29  C   UNL     1      50.039   3.043  17.419  0.00  0.00    +0.000 A 
ATOM     30  H   UNL     1      50.838   5.824  18.789  0.00  0.00    +0.000 HD
BRANCH  25  31
ATOM     31  O   UNL     1      53.266   3.979  18.911  0.00  0.00    +0.000 OA
ATOM     32  H   UNL     1      54.085   3.776  18.445  0.00  0.00    +0.000 HD
ENDBRANCH  25  31
ENDBRANCH  20  21
ENDBRANCH  18  20
ENDBRANCH   1  18
TORSDOF 9
ENDMDL
MODEL 2
REMARK VINA RESULT:    -8.002      2.143      2.894
REMARK INTER + INTRA:         -12.981
REMARK INTER:                 -11.827
REMARK INTRA:                  -1.153
REMARK UNBOUND:                -1.003
REMARK  Name = 
REMARK  9 active torsions:
REMARK  status: ('A' for Active; 'I' for Inactive)
REMARK    1  A    between atoms: C_2  and  C_3
REMARK    2  A    between atoms: C_2  and  C_20
REMARK    3  A    between atoms: C_3  and  C_4
REMARK    4  A    between atoms: C_4  and  C_5
REMARK    5  A    between atoms: C_8  and  C_9
REMARK    6  A    between atoms: C_9  and  N_10
REMARK    7  A    between atoms: N_10  and  C_11
REMARK    8  A    between atoms: C_11  and  C_12
REMARK    9  A    between atoms: C_24  and  O_25
REMARK                            x       y       z     vdW  Elec       q    Type
REMARK                         _______ _______ _______ _____ _____    ______ ____
ROOT
ATOM      1  C   UNL     1      48.695   6.888  13.290  0.00  0.00    +0.000 C 
ENDROOT
BRANCH   1   2
ATOM      2  C   UNL     1      47.475   6.182  12.760  0.00  0.00    +0.000 A 
ATOM      3  C   UNL     1      46.919   6.556  11.533  0.00  0.00    +0.000 A 
ATOM      4  C   UNL     1      45.833   5.860  11.012  0.00  0.00    +0.000 A 
ATOM      5  C   UNL     1      45.320   4.734  11.671  0.00  0.00    +0.000 A 
ATOM      6  C   UNL     1      45.857   4.381  12.914  0.00  0.00    +0.000 A 
ATOM      7  C   UNL     1      46.922   5.103  13.457  0.00  0.00    +0.000 A 
BRANCH   5   8
ATOM      8  C   UNL     1      44.209   3.895  11.082  0.00  0.00    +0.000 C 
BRANCH   8   9
ATOM      9  N   UNL     1      44.570   2.508  10.791  0.00  0.00    +0.000 NA
ATOM     10  H   UNL     1      44.018   1.880  11.370  0.00  0.00    +0.000 HD
BRANCH   9  11
ATOM     11  C   UNL     1      44.423   2.160   9.375  0.00  0.00    +0.000 C 
BRANCH  11  12
ATOM     12  C   UNL     1      45.748   2.410   8.637  0.00  0.00    +0.000 C 
ATOM     13  C   UNL     1      45.587   3.523   7.590  0.00  0.00    +0.000 C 
ATOM     14  C   UNL     1      46.858   3.731   6.782  0.00  0.00    +0.000 C 
ATOM     15  C   UNL     1      47.313   2.433   6.129  0.00  0.00    +0.000 C 
ATOM     16  C   UNL     1      47.512   1.330   7.164  0.00  0.00    +0.000 C 
ATOM     17  C   UNL     1      46.250   1.107   7.991  0.00  0.00    +0.000 C 
ENDBRANCH  11  12
ENDBRANCH   9  11
ENDBRANCH   8   9
ENDBRANCH   5   8
ENDBRANCH   1   2
BRANCH   1  18
ATOM     18  C   UNL     1      48.499   7.422  14.704  0.00  0.00    +0.000 C 
BRANCH  18  20
ATOM     19  O   UNL     1      50.840   7.381  15.234  0.00  0.00    +0.000 OA
ATOM     20  C   UNL     1      49.691   7.105  15.583  0.00  0.00    +0.000 C 
BRANCH  20  21
ATOM     21  C   UNL     1      49.442   6.469  16.871  0.00  0.00    +0.000 A 
ATOM     22  C   UNL     1      49.642   7.080  18.099  0.00  0.00    +0.000 A 
ATOM     23  N   UNL     1      49.315   6.190  19.087  0.00  0.00    +0.000 N 
ATOM     24  C   UNL     1      48.908   5.005  18.530  0.00  0.00    +0.000 A 
ATOM     25  C   UNL     1      48.484   3.800  19.051  0.00  0.00    +0.000 A 
ATOM     26  N   UNL     1      48.136   2.807  18.218  0.00  0.00    +0.000 NA
ATOM     27  C   UNL     1      48.225   3.046  16.899  0.00  0.00    +0.000 A 
ATOM     28  N   UNL     1      48.624   4.170  16.295  0.00  0.00    +0.000 NA
ATOM     29  C   UNL     1      48.970   5.158  17.148  0.00  0.00    +0.000 A 
ATOM     30  H   UNL     1      49.372   6.390  20.077  0.00  0.00    +0.000 HD
BRANCH  25  31
ATOM     31  O   UNL     1      48.388   3.517  20.388  0.00  0.00    +0.000 OA
ATOM     32  H   UNL     1      47.457   3.522  20.634  0.00  0.00    +0.000 HD
ENDBRANCH  25  31
ENDBRANCH  20  21
ENDBRANCH  18  20
ENDBRANCH   1  18
TORSDOF 9
ENDMDL
MODEL 3
REMARK VINA RESULT:    -7.670      2.091      2.801
REMARK INTER + INTRA:         -12.483
REMARK INTER:                 -11.210
REMARK INTRA:                  -1.274
REMARK UNBOUND:                -1.003
REMARK  Name = 
REMARK  9 active torsions:
REMARK  status: ('A' for Active; 'I' for Inactive)
REMARK    1  A    between atoms: C_2  and  C_3
REMARK    2  A    between atoms: C_2  and  C_20
REMARK    3  A    between atoms: C_3  and  C_4
REMARK    4  A    between atoms: C_4  and  C_5
REMARK    5  A    between atoms: C_8  and  C_9
REMARK    6  A    between atoms: C_9  and  N_10
REMARK    7  A    between atoms: N_10  and  C_11
REMARK    8  A    between atoms: C_11  and  C_12
REMARK    9  A    between atoms: C_24  and  O_25
REMARK                            x       y       z     vdW  Elec       q    Type
REMARK                         _______ _______ _______ _____ _____    ______ ____
ROOT
ATOM      1  C   UNL     1      47.606   7.585  12.854  0.00  0.00    +0.000 C 
ENDROOT
BRANCH   1   2
ATOM      2  C   UNL     1      46.734   6.441  12.409  0.00  0.00    +0.000 A 
ATOM      3  C   UNL     1      46.433   5.396  13.288  0.00  0.00    +0.000 A 
ATOM      4  C   UNL     1      45.575   4.374  12.899  0.00  0.00    +0.000 A 
ATOM      5  C   UNL     1      44.945   4.404  11.646  0.00  0.00    +0.000 A 
ATOM      6  C   UNL     1      45.274   5.433  10.755  0.00  0.00    +0.000 A 
ATOM      7  C   UNL     1      46.165   6.439  11.130  0.00  0.00    +0.000 A 
BRANCH   5   8
ATOM      8  C   UNL     1      43.929   3.365  11.231  0.00  0.00    +0.000 C 
BRANCH   8   9
ATOM      9  N   UNL     1      43.840   3.127   9.792  0.00  0.00    +0.000 NA
ATOM     10  H   UNL     1      44.208   3.929   9.287  0.00  0.00    +0.000 HD
BRANCH   9  11
ATOM     11  C   UNL     1      44.520   1.900   9.368  0.00  0.00    +0.000 C 
BRANCH  11  12
ATOM     12  C   UNL     1      45.806   2.253   8.606  0.00  0.00    +0.000 C 
ATOM     13  C   UNL     1      45.550   3.386   7.600  0.00  0.00    +0.000 C 
ATOM     14  C   UNL     1      46.785   3.696   6.768  0.00  0.00    +0.000 C 
ATOM     15  C   UNL     1      47.300   2.449   6.062  0.00  0.00    +0.000 C 
ATOM     16  C   UNL     1      47.593   1.329   7.055  0.00  0.00    +0.000 C 
ATOM     17  C   UNL     1      46.369   1.004   7.906  0.00  0.00    +0.000 C 
ENDBRANCH  11  12
ENDBRANCH   9  11
ENDBRANCH   8   9
ENDBRANCH   5   8
ENDBRANCH   1   2
BRANCH   1  18
ATOM     18  C   UNL     1      48.903   7.120  13.505  0.00  0.00    +0.000 C 
BRANCH  18  20
ATOM     19  O   UNL     1      48.410   8.582  15.344  0.00  0.00    +0.000 OA
ATOM     20  C   UNL     1      48.985   7.566  14.950  0.00  0.00    +0.000 C 
BRANCH  20  21
ATOM     21  C   UNL     1      49.759   6.749  15.876  0.00  0.00    +0.000 A 
ATOM     22  C   UNL     1      51.031   7.065  16.327  0.00  0.00    +0.000 A 
ATOM     23  N   UNL     1      51.453   6.073  17.172  0.00  0.00    +0.000 N 
ATOM     24  C   UNL     1      50.483   5.110  17.281  0.00  0.00    +0.000 A 
ATOM     25  C   UNL     1      50.389   3.923  17.977  0.00  0.00    +0.000 A 
ATOM     26  N   UNL     1      49.269   3.189  17.879  0.00  0.00    +0.000 NA
ATOM     27  C   UNL     1      48.287   3.658  17.092  0.00  0.00    +0.000 A 
ATOM     28  N   UNL     1      48.279   4.789  16.378  0.00  0.00    +0.000 NA
ATOM     29  C   UNL     1      49.413   5.514  16.488  0.00  0.00    +0.000 A 
ATOM     30  H   UNL     1      52.350   6.064  17.639  0.00  0.00    +0.000 HD
BRANCH  25  31
ATOM     31  O   UNL     1      51.371   3.409  18.781  0.00  0.00    +0.000 OA
ATOM     32  H   UNL     1      51.720   2.614  18.364  0.00  0.00    +0.000 HD
ENDBRANCH  25  31
ENDBRANCH  20  21
ENDBRANCH  18  20
ENDBRANCH   1  18
TORSDOF 9
ENDMDL
MODEL 4
REMARK VINA RESULT:    -7.376      3.880      9.064
REMARK INTER + INTRA:         -12.044
REMARK INTER:                 -10.056
REMARK INTRA:                  -1.988
REMARK UNBOUND:                -1.003
REMARK  Name = 
REMARK  9 active torsions:
REMARK  status: ('A' for Active; 'I' for Inactive)
REMARK    1  A    between atoms: C_2  and  C_3
REMARK    2  A    between atoms: C_2  and  C_20
REMARK    3  A    between atoms: C_3  and  C_4
REMARK    4  A    between atoms: C_4  and  C_5
REMARK    5  A    between atoms: C_8  and  C_9
REMARK    6  A    between atoms: C_9  and  N_10
REMARK    7  A    between atoms: N_10  and  C_11
REMARK    8  A    between atoms: C_11  and  C_12
REMARK    9  A    between atoms: C_24  and  O_25
REMARK                            x       y       z     vdW  Elec       q    Type
REMARK                         _______ _______ _______ _____ _____    ______ ____
ROOT
ATOM      1  C   UNL     1      48.951   8.341  12.601  0.00  0.00    +0.000 C 
ENDROOT
BRANCH   1   2
ATOM      2  C   UNL     1      48.887   8.164  14.095  0.00  0.00    +0.000 A 
ATOM      3  C   UNL     1      49.438   7.029  14.697  0.00  0.00    +0.000 A 
ATOM      4  C   UNL     1      49.439   6.897  16.082  0.00  0.00    +0.000 A 
ATOM      5  C   UNL     1      48.950   7.926  16.900  0.00  0.00    +0.000 A 
ATOM      6  C   UNL     1      48.369   9.046  16.295  0.00  0.00    +0.000 A 
ATOM      7  C   UNL     1      48.333   9.162  14.904  0.00  0.00    +0.000 A 
BRANCH   5   8
ATOM      8  C   UNL     1      49.030   7.860  18.408  0.00  0.00    +0.000 C 
BRANCH   8   9
ATOM      9  N   UNL     1      48.248   6.789  19.023  0.00  0.00    +0.000 NA
ATOM     10  H   UNL     1      47.617   6.385  18.335  0.00  0.00    +0.000 HD
BRANCH   9  11
ATOM     11  C   UNL     1      49.078   5.745  19.631  0.00  0.00    +0.000 C 
BRANCH  11  12
ATOM     12  C   UNL     1      48.778   4.390  18.973  0.00  0.00    +0.000 C 
ATOM     13  C   UNL     1      49.979   3.908  18.145  0.00  0.00    +0.000 C 
ATOM     14  C   UNL     1      49.679   2.611  17.410  0.00  0.00    +0.000 C 
ATOM     15  C   UNL     1      48.438   2.748  16.537  0.00  0.00    +0.000 C 
ATOM     16  C   UNL     1      47.230   3.191  17.355  0.00  0.00    +0.000 C 
ATOM     17  C   UNL     1      47.510   4.489  18.108  0.00  0.00    +0.000 C 
ENDBRANCH  11  12
ENDBRANCH   9  11
ENDBRANCH   8   9
ENDBRANCH   5   8
ENDBRANCH   1   2
BRANCH   1  18
ATOM     18  C   UNL     1      48.244   7.223  11.844  0.00  0.00    +0.000 C 
BRANCH  18  20
ATOM     19  O   UNL     1      46.099   8.293  11.966  0.00  0.00    +0.000 OA
ATOM     20  C   UNL     1      46.749   7.253  12.085  0.00  0.00    +0.000 C 
BRANCH  20  21
ATOM     21  C   UNL     1      46.089   6.007  12.453  0.00  0.00    +0.000 A 
ATOM     22  C   UNL     1      46.231   5.376  13.679  0.00  0.00    +0.000 A 
ATOM     23  N   UNL     1      45.478   4.232  13.671  0.00  0.00    +0.000 N 
ATOM     24  C   UNL     1      44.847   4.099  12.461  0.00  0.00    +0.000 A 
ATOM     25  C   UNL     1      43.995   3.155  11.926  0.00  0.00    +0.000 A 
ATOM     26  N   UNL     1      43.528   3.320  10.678  0.00  0.00    +0.000 NA
ATOM     27  C   UNL     1      43.926   4.413  10.008  0.00  0.00    +0.000 A 
ATOM     28  N   UNL     1      44.745   5.382  10.431  0.00  0.00    +0.000 NA
ATOM     29  C   UNL     1      45.206   5.199  11.687  0.00  0.00    +0.000 A 
ATOM     30  H   UNL     1      45.408   3.589  14.448  0.00  0.00    +0.000 HD
BRANCH  25  31
ATOM     31  O   UNL     1      43.575   2.025  12.575  0.00  0.00    +0.000 OA
ATOM     32  H   UNL     1      42.893   1.603  12.042  0.00  0.00    +0.000 HD
ENDBRANCH  25  31
ENDBRANCH  20  21
ENDBRANCH  18  20
ENDBRANCH   1  18
TORSDOF 9
ENDMDL
MODEL 5
REMARK VINA RESULT:    -6.731      3.365      9.385
REMARK INTER + INTRA:         -11.079
REMARK INTER:                  -9.609
REMARK INTRA:                  -1.470
REMARK UNBOUND:                -1.003
REMARK  Name = 
REMARK  9 active torsions:
REMARK  status: ('A' for Active; 'I' for Inactive)
REMARK    1  A    between atoms: C_2  and  C_3
REMARK    2  A    between atoms: C_2  and  C_20
REMARK    3  A    between atoms: C_3  and  C_4
REMARK    4  A    between atoms: C_4  and  C_5
REMARK    5  A    between atoms: C_8  and  C_9
REMARK    6  A    between atoms: C_9  and  N_10
REMARK    7  A    between atoms: N_10  and  C_11
REMARK    8  A    between atoms: C_11  and  C_12
REMARK    9  A    between atoms: C_24  and  O_25
REMARK                            x       y       z     vdW  Elec       q    Type
REMARK                         _______ _______ _______ _____ _____    ______ ____
ROOT
ATOM      1  C   UNL     1      47.535   8.269  12.474  0.00  0.00    +0.000 C 
ENDROOT
BRANCH   1   2
ATOM      2  C   UNL     1      48.103   8.123  13.861  0.00  0.00    +0.000 A 
ATOM      3  C   UNL     1      48.998   7.090  14.155  0.00  0.00    +0.000 A 
ATOM      4  C   UNL     1      49.573   6.996  15.418  0.00  0.00    +0.000 A 
ATOM      5  C   UNL     1      49.320   7.969  16.396  0.00  0.00    +0.000 A 
ATOM      6  C   UNL     1      48.398   8.983  16.111  0.00  0.00    +0.000 A 
ATOM      7  C   UNL     1      47.791   9.057  14.856  0.00  0.00    +0.000 A 
BRANCH   5   8
ATOM      8  C   UNL     1      50.008   7.954  17.742  0.00  0.00    +0.000 C 
BRANCH   8   9
ATOM      9  N   UNL     1      50.222   6.625  18.312  0.00  0.00    +0.000 NA
ATOM     10  H   UNL     1      51.039   6.638  18.917  0.00  0.00    +0.000 HD
BRANCH   9  11
ATOM     11  C   UNL     1      49.056   6.113  19.037  0.00  0.00    +0.000 C 
BRANCH  11  12
ATOM     12  C   UNL     1      48.809   4.645  18.658  0.00  0.00    +0.000 C 
ATOM     13  C   UNL     1      50.005   4.074  17.881  0.00  0.00    +0.000 C 
ATOM     14  C   UNL     1      49.753   2.649  17.416  0.00  0.00    +0.000 C 
ATOM     15  C   UNL     1      48.475   2.557  16.591  0.00  0.00    +0.000 C 
ATOM     16  C   UNL     1      47.274   3.088  17.367  0.00  0.00    +0.000 C 
ATOM     17  C   UNL     1      47.507   4.517  17.849  0.00  0.00    +0.000 C 
ENDBRANCH  11  12
ENDBRANCH   9  11
ENDBRANCH   8   9
ENDBRANCH   5   8
ENDBRANCH   1   2
BRANCH   1  18
ATOM     18  C   UNL     1      47.285   6.927  11.796  0.00  0.00    +0.000 C 
BRANCH  18  20
ATOM     19  O   UNL     1      44.954   7.478  11.945  0.00  0.00    +0.000 OA
ATOM     20  C   UNL     1      45.805   6.618  11.714  0.00  0.00    +0.000 C 
BRANCH  20  21
ATOM     21  C   UNL     1      45.407   5.267  11.339  0.00  0.00    +0.000 A 
ATOM     22  C   UNL     1      44.869   4.336  12.214  0.00  0.00    +0.000 A 
ATOM     23  N   UNL     1      44.624   3.179  11.524  0.00  0.00    +0.000 N 
ATOM     24  C   UNL     1      44.995   3.332  10.212  0.00  0.00    +0.000 A 
ATOM     25  C   UNL     1      44.971   2.503   9.110  0.00  0.00    +0.000 A 
ATOM     26  N   UNL     1      45.408   2.966   7.928  0.00  0.00    +0.000 NA
ATOM     27  C   UNL     1      45.854   4.233   7.886  0.00  0.00    +0.000 A 
ATOM     28  N   UNL     1      45.921   5.112   8.890  0.00  0.00    +0.000 NA
ATOM     29  C   UNL     1      45.478   4.629  10.071  0.00  0.00    +0.000 A 
ATOM     30  H   UNL     1      44.230   2.342  11.933  0.00  0.00    +0.000 HD
BRANCH  25  31
ATOM     31  O   UNL     1      44.532   1.206   9.117  0.00  0.00    +0.000 OA
ATOM     32  H   UNL     1      44.895   0.766   9.893  0.00  0.00    +0.000 HD
ENDBRANCH  25  31
ENDBRANCH  20  21
ENDBRANCH  18  20
ENDBRANCH   1  18
TORSDOF 9
ENDMDL
MODEL 6
REMARK VINA RESULT:    -6.717      3.911      9.212
REMARK INTER + INTRA:         -11.058
REMARK INTER:                  -9.405
REMARK INTRA:                  -1.653
REMARK UNBOUND:                -1.003
REMARK  Name = 
REMARK  9 active torsions:
REMARK  status: ('A' for Active; 'I' for Inactive)
REMARK    1  A    between atoms: C_2  and  C_3
REMARK    2  A    between atoms: C_2  and  C_20
REMARK    3  A    between atoms: C_3  and  C_4
REMARK    4  A    between atoms: C_4  and  C_5
REMARK    5  A    between atoms: C_8  and  C_9
REMARK    6  A    between atoms: C_9  and  N_10
REMARK    7  A    between atoms: N_10  and  C_11
REMARK    8  A    between atoms: C_11  and  C_12
REMARK    9  A    between atoms: C_24  and  O_25
REMARK                            x       y       z     vdW  Elec       q    Type
REMARK                         _______ _______ _______ _____ _____    ______ ____
ROOT
ATOM      1  C   UNL     1      48.674   8.540  13.800  0.00  0.00    +0.000 C 
ENDROOT
BRANCH   1   2
ATOM      2  C   UNL     1      49.497   8.187  15.011  0.00  0.00    +0.000 A 
ATOM      3  C   UNL     1      49.027   8.479  16.295  0.00  0.00    +0.000 A 
ATOM      4  C   UNL     1      49.756   8.094  17.415  0.00  0.00    +0.000 A 
ATOM      5  C   UNL     1      50.937   7.351  17.281  0.00  0.00    +0.000 A 
ATOM      6  C   UNL     1      51.423   7.089  15.995  0.00  0.00    +0.000 A 
ATOM      7  C   UNL     1      50.712   7.508  14.869  0.00  0.00    +0.000 A 
BRANCH   5   8
ATOM      8  C   UNL     1      51.698   6.828  18.478  0.00  0.00    +0.000 C 
BRANCH   8   9
ATOM      9  N   UNL     1      51.948   5.388  18.472  0.00  0.00    +0.000 NA
ATOM     10  H   UNL     1      52.832   5.190  18.934  0.00  0.00    +0.000 HD
BRANCH   9  11
ATOM     11  C   UNL     1      50.866   4.613  19.084  0.00  0.00    +0.000 C 
BRANCH  11  12
ATOM     12  C   UNL     1      49.755   4.363  18.052  0.00  0.00    +0.000 C 
ATOM     13  C   UNL     1      48.399   4.857  18.581  0.00  0.00    +0.000 C 
ATOM     14  C   UNL     1      47.266   4.543  17.618  0.00  0.00    +0.000 C 
ATOM     15  C   UNL     1      47.213   3.056  17.295  0.00  0.00    +0.000 C 
ATOM     16  C   UNL     1      48.543   2.562  16.735  0.00  0.00    +0.000 C 
ATOM     17  C   UNL     1      49.699   2.872  17.683  0.00  0.00    +0.000 C 
ENDBRANCH  11  12
ENDBRANCH   9  11
ENDBRANCH   8   9
ENDBRANCH   5   8
ENDBRANCH   1   2
BRANCH   1  18
ATOM     18  C   UNL     1      47.321   7.839  13.782  0.00  0.00    +0.000 C 
BRANCH  18  20
ATOM     19  O   UNL     1      47.701   7.180  11.506  0.00  0.00    +0.000 OA
ATOM     20  C   UNL     1      47.199   6.905  12.596  0.00  0.00    +0.000 C 
BRANCH  20  21
ATOM     21  C   UNL     1      46.477   5.653  12.783  0.00  0.00    +0.000 A 
ATOM     22  C   UNL     1      46.858   4.649  13.660  0.00  0.00    +0.000 A 
ATOM     23  N   UNL     1      45.958   3.622  13.567  0.00  0.00    +0.000 N 
ATOM     24  C   UNL     1      44.994   3.931  12.641  0.00  0.00    +0.000 A 
ATOM     25  C   UNL     1      43.882   3.270  12.163  0.00  0.00    +0.000 A 
ATOM     26  N   UNL     1      43.111   3.861  11.237  0.00  0.00    +0.000 NA
ATOM     27  C   UNL     1      43.474   5.085  10.818  0.00  0.00    +0.000 A 
ATOM     28  N   UNL     1      44.527   5.807  11.214  0.00  0.00    +0.000 NA
ATOM     29  C   UNL     1      45.292   5.196  12.145  0.00  0.00    +0.000 A 
ATOM     30  H   UNL     1      46.008   2.768  14.105  0.00  0.00    +0.000 HD
BRANCH  25  31
ATOM     31  O   UNL     1      43.486   2.020  12.559  0.00  0.00    +0.000 OA
ATOM     32  H   UNL     1      43.040   2.097  13.410  0.00  0.00    +0.000 HD
ENDBRANCH  25  31
ENDBRANCH  20  21
ENDBRANCH  18  20
ENDBRANCH   1  18
TORSDOF 9
ENDMDL
MODEL 7
REMARK VINA RESULT:    -6.233      2.876      4.896
REMARK INTER + INTRA:         -10.333
REMARK INTER:                  -9.199
REMARK INTRA:                  -1.134
REMARK UNBOUND:                -1.003
REMARK  Name = 
REMARK  9 active torsions:
REMARK  status: ('A' for Active; 'I' for Inactive)
REMARK    1  A    between atoms: C_2  and  C_3
REMARK    2  A    between atoms: C_2  and  C_20
REMARK    3  A    between atoms: C_3  and  C_4
REMARK    4  A    between atoms: C_4  and  C_5
REMARK    5  A    between atoms: C_8  and  C_9
REMARK    6  A    between atoms: C_9  and  N_10
REMARK    7  A    between atoms: N_10  and  C_11
REMARK    8  A    between atoms: C_11  and  C_12
REMARK    9  A    between atoms: C_24  and  O_25
REMARK                            x       y       z     vdW  Elec       q    Type
REMARK                         _______ _______ _______ _____ _____    ______ ____
ROOT
ATOM      1  C   UNL     1      51.216   8.417  14.516  0.00  0.00    +0.000 C 
ENDROOT
BRANCH   1   2
ATOM      2  C   UNL     1      49.807   8.273  14.004  0.00  0.00    +0.000 A 
ATOM      3  C   UNL     1      48.783   9.076  14.515  0.00  0.00    +0.000 A 
ATOM      4  C   UNL     1      47.496   8.989  13.995  0.00  0.00    +0.000 A 
ATOM      5  C   UNL     1      47.216   8.147  12.909  0.00  0.00    +0.000 A 
ATOM      6  C   UNL     1      48.235   7.321  12.421  0.00  0.00    +0.000 A 
ATOM      7  C   UNL     1      49.518   7.379  12.967  0.00  0.00    +0.000 A 
BRANCH   5   8
ATOM      8  C   UNL     1      45.855   8.105  12.255  0.00  0.00    +0.000 C 
BRANCH   8   9
ATOM      9  N   UNL     1      44.861   7.284  12.945  0.00  0.00    +0.000 NA
ATOM     10  H   UNL     1      43.955   7.390  12.495  0.00  0.00    +0.000 HD
BRANCH   9  11
ATOM     11  C   UNL     1      45.235   5.869  13.020  0.00  0.00    +0.000 C 
BRANCH  11  12
ATOM     12  C   UNL     1      44.416   5.059  12.003  0.00  0.00    +0.000 C 
ATOM     13  C   UNL     1      44.142   3.642  12.529  0.00  0.00    +0.000 C 
ATOM     14  C   UNL     1      43.409   2.788  11.506  0.00  0.00    +0.000 C 
ATOM     15  C   UNL     1      44.167   2.740  10.186  0.00  0.00    +0.000 C 
ATOM     16  C   UNL     1      44.412   4.141   9.635  0.00  0.00    +0.000 C 
ATOM     17  C   UNL     1      45.142   5.019  10.648  0.00  0.00    +0.000 C 
ENDBRANCH  11  12
ENDBRANCH   9  11
ENDBRANCH   8   9
ENDBRANCH   5   8
ENDBRANCH   1   2
BRANCH   1  18
ATOM     18  C   UNL     1      51.598   7.325  15.508  0.00  0.00    +0.000 C 
BRANCH  18  20
ATOM     19  O   UNL     1      51.257   8.395  17.629  0.00  0.00    +0.000 OA
ATOM     20  C   UNL     1      50.900   7.521  16.838  0.00  0.00    +0.000 C 
BRANCH  20  21
ATOM     21  C   UNL     1      49.776   6.649  17.156  0.00  0.00    +0.000 A 
ATOM     22  C   UNL     1      48.483   7.089  17.389  0.00  0.00    +0.000 A 
ATOM     23  N   UNL     1      47.695   6.003  17.664  0.00  0.00    +0.000 N 
ATOM     24  C   UNL     1      48.449   4.858  17.620  0.00  0.00    +0.000 A 
ATOM     25  C   UNL     1      48.169   3.522  17.818  0.00  0.00    +0.000 A 
ATOM     26  N   UNL     1      49.152   2.617  17.689  0.00  0.00    +0.000 NA
ATOM     27  C   UNL     1      50.375   3.072  17.371  0.00  0.00    +0.000 A 
ATOM     28  N   UNL     1      50.750   4.338  17.160  0.00  0.00    +0.000 NA
ATOM     29  C   UNL     1      49.749   5.235  17.295  0.00  0.00    +0.000 A 
ATOM     30  H   UNL     1      46.706   6.053  17.870  0.00  0.00    +0.000 HD
BRANCH  25  31
ATOM     31  O   UNL     1      46.939   3.023  18.151  0.00  0.00    +0.000 OA
ATOM     32  H   UNL     1      46.346   3.150  17.402  0.00  0.00    +0.000 HD
ENDBRANCH  25  31
ENDBRANCH  20  21
ENDBRANCH  18  20
ENDBRANCH   1  18
TORSDOF 9
ENDMDL
MODEL 8
REMARK VINA RESULT:    -6.075      4.440      9.509
REMARK INTER + INTRA:         -10.097
REMARK INTER:                  -8.320
REMARK INTRA:                  -1.777
REMARK UNBOUND:                -1.003
REMARK  Name = 
REMARK  9 active torsions:
REMARK  status: ('A' for Active; 'I' for Inactive)
REMARK    1  A    between atoms: C_2  and  C_3
REMARK    2  A    between atoms: C_2  and  C_20
REMARK    3  A    between atoms: C_3  and  C_4
REMARK    4  A    between atoms: C_4  and  C_5
REMARK    5  A    between atoms: C_8  and  C_9
REMARK    6  A    between atoms: C_9  and  N_10
REMARK    7  A    between atoms: N_10  and  C_11
REMARK    8  A    between atoms: C_11  and  C_12
REMARK    9  A    between atoms: C_24  and  O_25
REMARK                            x       y       z     vdW  Elec       q    Type
REMARK                         _______ _______ _______ _____ _____    ______ ____
ROOT
ATOM      1  C   UNL     1      48.584   8.803  11.877  0.00  0.00    +0.000 C 
ENDROOT
BRANCH   1   2
ATOM      2  C   UNL     1      49.711   8.921  12.869  0.00  0.00    +0.000 A 
ATOM      3  C   UNL     1      49.470   9.401  14.161  0.00  0.00    +0.000 A 
ATOM      4  C   UNL     1      50.497   9.447  15.096  0.00  0.00    +0.000 A 
ATOM      5  C   UNL     1      51.773   8.954  14.786  0.00  0.00    +0.000 A 
ATOM      6  C   UNL     1      52.021   8.506  13.483  0.00  0.00    +0.000 A 
ATOM      7  C   UNL     1      51.000   8.495  12.531  0.00  0.00    +0.000 A 
BRANCH   5   8
ATOM      8  C   UNL     1      52.883   8.895  15.811  0.00  0.00    +0.000 C 
BRANCH   8   9
ATOM      9  N   UNL     1      52.622   8.023  16.955  0.00  0.00    +0.000 NA
ATOM     10  H   UNL     1      51.867   8.409  17.516  0.00  0.00    +0.000 HD
BRANCH   9  11
ATOM     11  C   UNL     1      52.320   6.642  16.570  0.00  0.00    +0.000 C 
BRANCH  11  12
ATOM     12  C   UNL     1      51.057   6.162  17.301  0.00  0.00    +0.000 C 
ATOM     13  C   UNL     1      49.852   6.140  16.347  0.00  0.00    +0.000 C 
ATOM     14  C   UNL     1      48.568   5.753  17.064  0.00  0.00    +0.000 C 
ATOM     15  C   UNL     1      48.304   6.669  18.252  0.00  0.00    +0.000 C 
ATOM     16  C   UNL     1      49.479   6.669  19.224  0.00  0.00    +0.000 C 
ATOM     17  C   UNL     1      50.781   7.049  18.526  0.00  0.00    +0.000 C 
ENDBRANCH  11  12
ENDBRANCH   9  11
ENDBRANCH   8   9
ENDBRANCH   5   8
ENDBRANCH   1   2
BRANCH   1  18
ATOM     18  C   UNL     1      48.011   7.393  11.801  0.00  0.00    +0.000 C 
BRANCH  18  20
ATOM     19  O   UNL     1      46.210   8.249  13.135  0.00  0.00    +0.000 OA
ATOM     20  C   UNL     1      46.747   7.265  12.625  0.00  0.00    +0.000 C 
BRANCH  20  21
ATOM     21  C   UNL     1      46.170   5.938  12.792  0.00  0.00    +0.000 A 
ATOM     22  C   UNL     1      46.700   4.947  13.603  0.00  0.00    +0.000 A 
ATOM     23  N   UNL     1      45.906   3.835  13.509  0.00  0.00    +0.000 N 
ATOM     24  C   UNL     1      44.866   4.076  12.648  0.00  0.00    +0.000 A 
ATOM     25  C   UNL     1      43.803   3.321  12.198  0.00  0.00    +0.000 A 
ATOM     26  N   UNL     1      42.926   3.864  11.339  0.00  0.00    +0.000 NA
ATOM     27  C   UNL     1      43.138   5.134  10.958  0.00  0.00    +0.000 A 
ATOM     28  N   UNL     1      44.131   5.947  11.332  0.00  0.00    +0.000 NA
ATOM     29  C   UNL     1      45.004   5.385  12.195  0.00  0.00    +0.000 A 
ATOM     30  H   UNL     1      46.074   2.970  14.006  0.00  0.00    +0.000 HD
BRANCH  25  31
ATOM     31  O   UNL     1      43.561   2.022  12.557  0.00  0.00    +0.000 OA
ATOM     32  H   UNL     1      44.344   1.677  12.999  0.00  0.00    +0.000 HD
ENDBRANCH  25  31
ENDBRANCH  20  21
ENDBRANCH  18  20
ENDBRANCH   1  18
TORSDOF 9
ENDMDL
MODEL 9
REMARK VINA RESULT:    -5.974      4.139     10.054
REMARK INTER + INTRA:          -9.945
REMARK INTER:                  -8.275
REMARK INTRA:                  -1.670
REMARK UNBOUND:                -1.003
REMARK  Name = 
REMARK  9 active torsions:
REMARK  status: ('A' for Active; 'I' for Inactive)
REMARK    1  A    between atoms: C_2  and  C_3
REMARK    2  A    between atoms: C_2  and  C_20
REMARK    3  A    between atoms: C_3  and  C_4
REMARK    4  A    between atoms: C_4  and  C_5
REMARK    5  A    between atoms: C_8  and  C_9
REMARK    6  A    between atoms: C_9  and  N_10
REMARK    7  A    between atoms: N_10  and  C_11
REMARK    8  A    between atoms: C_11  and  C_12
REMARK    9  A    between atoms: C_24  and  O_25
REMARK                            x       y       z     vdW  Elec       q    Type
REMARK                         _______ _______ _______ _____ _____    ______ ____
ROOT
ATOM      1  C   UNL     1      46.309   7.801  12.979  0.00  0.00    +0.000 C 
ENDROOT
BRANCH   1   2
ATOM      2  C   UNL     1      47.655   7.921  13.642  0.00  0.00    +0.000 A 
ATOM      3  C   UNL     1      48.184   6.850  14.369  0.00  0.00    +0.000 A 
ATOM      4  C   UNL     1      49.456   6.937  14.924  0.00  0.00    +0.000 A 
ATOM      5  C   UNL     1      50.256   8.069  14.712  0.00  0.00    +0.000 A 
ATOM      6  C   UNL     1      49.712   9.153  14.013  0.00  0.00    +0.000 A 
ATOM      7  C   UNL     1      48.421   9.082  13.487  0.00  0.00    +0.000 A 
BRANCH   5   8
ATOM      8  C   UNL     1      51.679   8.154  15.214  0.00  0.00    +0.000 C 
BRANCH   8   9
ATOM      9  N   UNL     1      51.835   8.000  16.659  0.00  0.00    +0.000 NA
ATOM     10  H   UNL     1      52.815   7.846  16.885  0.00  0.00    +0.000 HD
BRANCH   9  11
ATOM     11  C   UNL     1      51.307   9.136  17.420  0.00  0.00    +0.000 C 
BRANCH  11  12
ATOM     12  C   UNL     1      50.193   8.658  18.364  0.00  0.00    +0.000 C 
ATOM     13  C   UNL     1      50.250   7.134  18.547  0.00  0.00    +0.000 C 
ATOM     14  C   UNL     1      49.105   6.621  19.406  0.00  0.00    +0.000 C 
ATOM     15  C   UNL     1      47.757   7.050  18.839  0.00  0.00    +0.000 C 
ATOM     16  C   UNL     1      47.676   8.566  18.688  0.00  0.00    +0.000 C 
ATOM     17  C   UNL     1      48.820   9.104  17.834  0.00  0.00    +0.000 C 
ENDBRANCH  11  12
ENDBRANCH   9  11
ENDBRANCH   8   9
ENDBRANCH   5   8
ENDBRANCH   1   2
BRANCH   1  18
ATOM     18  C   UNL     1      46.358   6.997  11.685  0.00  0.00    +0.000 C 
BRANCH  18  20
ATOM     19  O   UNL     1      43.975   7.065  11.408  0.00  0.00    +0.000 OA
ATOM     20  C   UNL     1      45.007   6.395  11.359  0.00  0.00    +0.000 C 
BRANCH  20  21
ATOM     21  C   UNL     1      44.960   4.991  10.969  0.00  0.00    +0.000 A 
ATOM     22  C   UNL     1      44.499   3.966  11.780  0.00  0.00    +0.000 A 
ATOM     23  N   UNL     1      44.608   2.785  11.095  0.00  0.00    +0.000 N 
ATOM     24  C   UNL     1      45.135   3.016   9.851  0.00  0.00    +0.000 A 
ATOM     25  C   UNL     1      45.453   2.203   8.782  0.00  0.00    +0.000 A 
ATOM     26  N   UNL     1      45.961   2.750   7.666  0.00  0.00    +0.000 NA
ATOM     27  C   UNL     1      46.136   4.082   7.654  0.00  0.00    +0.000 A 
ATOM     28  N   UNL     1      45.864   4.954   8.630  0.00  0.00    +0.000 NA
ATOM     29  C   UNL     1      45.355   4.386   9.745  0.00  0.00    +0.000 A 
ATOM     30  H   UNL     1      44.337   1.884  11.465  0.00  0.00    +0.000 HD
BRANCH  25  31
ATOM     31  O   UNL     1      45.296   0.843   8.761  0.00  0.00    +0.000 OA
ATOM     32  H   UNL     1      44.355   0.644   8.819  0.00  0.00    +0.000 HD
ENDBRANCH  25  31
ENDBRANCH  20  21
ENDBRANCH  18  20
ENDBRANCH   1  18
TORSDOF 9
ENDMDL
