MODEL 1
REMARK VINA RESULT:    -7.547      0.000      0.000
REMARK INTER + INTRA:         -10.496
REMARK INTER:                  -9.753
REMARK INTRA:                  -0.742
REMARK UNBOUND:                -0.742
REMARK  Name = 
REMARK  5 active torsions:
REMARK  status: ('A' for Active; 'I' for Inactive)
REMARK    1  A    between atoms: C_2  and  C_4
REMARK    2  A    between atoms: C_9  and  C_10
REMARK    3  A    between atoms: C_10  and  O_11
REMARK    4  A    between atoms: O_11  and  C_12
REMARK    5  A    between atoms: C_16  and  N_17
REMARK                            x       y       z     vdW  Elec       q    Type
REMARK                         _______ _______ _______ _____ _____    ______ ____
ROOT
ATOM      1  C   UNL     1      47.042   6.098  13.005  0.00  0.00    +0.000 C 
ENDROOT
BRANCH   1   7
ATOM      2  C   UNL     1      47.967   4.697  16.446  0.00  0.00    +0.000 A 
ATOM      3  C   UNL     1      48.894   5.642  16.893  0.00  0.00    +0.000 A 
ATOM      4  C   UNL     1      49.200   6.726  16.080  0.00  0.00    +0.000 A 
ATOM      5  F   UNL     1      50.093   7.629  16.505  0.00  0.00    +0.000 F 
ATOM      6  C   UNL     1      48.606   6.889  14.831  0.00  0.00    +0.000 A 
ATOM      7  C   UNL     1      47.683   5.944  14.365  0.00  0.00    +0.000 A 
ATOM      8  C   UNL     1      47.377   4.842  15.181  0.00  0.00    +0.000 A 
BRANCH   2  10
ATOM      9  N   UNL     1      48.579   2.984  18.063  0.00  0.00    +0.000 N 
ATOM     10  C   UNL     1      47.603   3.515  17.266  0.00  0.00    +0.000 C 
ATOM     11  O   UNL     1      46.467   3.059  17.261  0.00  0.00    +0.000 OA
ATOM     12  H   UNL     1      48.289   2.250  18.698  0.00  0.00    +0.000 HD
ATOM     13  H   UNL     1      49.433   3.476  18.278  0.00  0.00    +0.000 HD
ENDBRANCH   2  10
ENDBRANCH   1   7
BRANCH   1  14
ATOM     14  O   UNL     1      45.622   6.005  13.151  0.00  0.00    +0.000 OA
BRANCH  14  15
ATOM     15  C   UNL     1      45.026   4.971  12.483  0.00  0.00    +0.000 A 
ATOM     16  C   UNL     1      44.144   4.184  13.211  0.00  0.00    +0.000 A 
ATOM     17  N   UNL     1      43.484   3.120  12.704  0.00  0.00    +0.000 NA
ATOM     18  C   UNL     1      43.738   2.827  11.404  0.00  0.00    +0.000 A 
ATOM     19  C   UNL     1      44.615   3.522  10.563  0.00  0.00    +0.000 A 
ATOM     20  C   UNL     1      45.263   4.617  11.156  0.00  0.00    +0.000 A 
BRANCH  19  21
ATOM     21  N   UNL     1      44.834   3.171   9.243  0.00  0.00    +0.000 N 
ATOM     22  C   UNL     1      44.915   1.770   8.826  0.00  0.00    +0.000 C 
ATOM     23  C   UNL     1      46.278   1.497   8.195  0.00  0.00    +0.000 C 
ATOM     24  C   UNL     1      46.563   2.482   7.062  0.00  0.00    +0.000 C 
ATOM     25  C   UNL     1      46.416   3.925   7.539  0.00  0.00    +0.000 C 
ATOM     26  C   UNL     1      45.057   4.172   8.198  0.00  0.00    +0.000 C 
ENDBRANCH  19  21
ENDBRANCH  14  15
ENDBRANCH   1  14
TORSDOF 5
ENDMDL
MODEL 2
REMARK VINA RESULT:    -7.301      2.832      4.383
REMARK INTER + INTRA:         -10.178
REMARK INTER:                  -9.302
REMARK INTRA:                  -0.875
REMARK UNBOUND:                -0.742
REMARK  Name = 
REMARK  5 active torsions:
REMARK  status: ('A' for Active; 'I' for Inactive)
REMARK    1  A    between atoms: C_2  and  C_4
REMARK    2  A    between atoms: C_9  and  C_10
REMARK    3  A    between atoms: C_10  and  O_11
REMARK    4  A    between atoms: O_11  and  C_12
REMARK    5  A    between atoms: C_16  and  N_17
REMARK                            x       y       z     vdW  Elec       q    Type
REMARK                         _______ _______ _______ _____ _____    ______ ____
ROOT
ATOM      1  C   UNL     1      47.252   5.851  12.974  0.00  0.00    +0.000 C 
ENDROOT
BRANCH   1   7
ATOM      2  C   UNL     1      46.730   9.529  12.051  0.00  0.00    +0.000 A 
ATOM      3  C   UNL     1      48.018   9.908  11.669  0.00  0.00    +0.000 A 
ATOM      4  C   UNL     1      49.039   8.966  11.705  0.00  0.00    +0.000 A 
ATOM      5  F   UNL     1      50.276   9.330  11.345  0.00  0.00    +0.000 F 
ATOM      6  C   UNL     1      48.805   7.656  12.114  0.00  0.00    +0.000 A 
ATOM      7  C   UNL     1      47.520   7.264  12.510  0.00  0.00    +0.000 A 
ATOM      8  C   UNL     1      46.487   8.216  12.484  0.00  0.00    +0.000 A 
BRANCH   2  10
ATOM      9  N   UNL     1      44.396  10.044  12.510  0.00  0.00    +0.000 N 
ATOM     10  C   UNL     1      45.600  10.491  12.040  0.00  0.00    +0.000 C 
ATOM     11  O   UNL     1      45.747  11.647  11.665  0.00  0.00    +0.000 OA
ATOM     12  H   UNL     1      43.664  10.739  12.601  0.00  0.00    +0.000 HD
ATOM     13  H   UNL     1      44.303   9.197  13.050  0.00  0.00    +0.000 HD
ENDBRANCH   2  10
ENDBRANCH   1   7
BRANCH   1  14
ATOM     14  O   UNL     1      45.867   5.729  13.308  0.00  0.00    +0.000 OA
BRANCH  14  15
ATOM     15  C   UNL     1      45.171   4.784  12.607  0.00  0.00    +0.000 A 
ATOM     16  C   UNL     1      44.199   4.080  13.305  0.00  0.00    +0.000 A 
ATOM     17  N   UNL     1      43.434   3.107  12.763  0.00  0.00    +0.000 NA
ATOM     18  C   UNL     1      43.672   2.820  11.460  0.00  0.00    +0.000 A 
ATOM     19  C   UNL     1      44.631   3.436  10.646  0.00  0.00    +0.000 A 
ATOM     20  C   UNL     1      45.385   4.438  11.274  0.00  0.00    +0.000 A 
BRANCH  19  21
ATOM     21  N   UNL     1      44.827   3.095   9.320  0.00  0.00    +0.000 N 
ATOM     22  C   UNL     1      44.871   1.698   8.885  0.00  0.00    +0.000 C 
ATOM     23  C   UNL     1      46.221   1.401   8.237  0.00  0.00    +0.000 C 
ATOM     24  C   UNL     1      46.517   2.392   7.113  0.00  0.00    +0.000 C 
ATOM     25  C   UNL     1      46.410   3.832   7.608  0.00  0.00    +0.000 C 
ATOM     26  C   UNL     1      45.063   4.103   8.284  0.00  0.00    +0.000 C 
ENDBRANCH  19  21
ENDBRANCH  14  15
ENDBRANCH   1  14
TORSDOF 5
ENDMDL
MODEL 3
REMARK VINA RESULT:    -7.235      2.046      2.499
REMARK INTER + INTRA:         -10.092
REMARK INTER:                  -9.232
REMARK INTRA:                  -0.860
REMARK UNBOUND:                -0.742
REMARK  Name = 
REMARK  5 active torsions:
REMARK  status: ('A' for Active; 'I' for Inactive)
REMARK    1  A    between atoms: C_2  and  C_4
REMARK    2  A    between atoms: C_9  and  C_10
REMARK    3  A    between atoms: C_10  and  O_11
REMARK    4  A    between atoms: O_11  and  C_12
REMARK    5  A    between atoms: C_16  and  N_17
REMARK                            x       y       z     vdW  Elec       q    Type
REMARK                         _______ _______ _______ _____ _____    ______ ____
ROOT
ATOM      1  C   UNL     1      45.953   7.197  12.034  0.00  0.00    +0.000 C 
ENDROOT
BRANCH   1   7
ATOM      2  C   UNL     1      48.941   7.069  14.424  0.00  0.00    +0.000 A 
ATOM      3  C   UNL     1      49.974   7.531  13.606  0.00  0.00    +0.000 A 
ATOM      4  C   UNL     1      49.690   7.887  12.293  0.00  0.00    +0.000 A 
ATOM      5  F   UNL     1      50.681   8.324  11.506  0.00  0.00    +0.000 F 
ATOM      6  C   UNL     1      48.400   7.792  11.778  0.00  0.00    +0.000 A 
ATOM      7  C   UNL     1      47.355   7.321  12.583  0.00  0.00    +0.000 A 
ATOM      8  C   UNL     1      47.640   6.952  13.908  0.00  0.00    +0.000 A 
BRANCH   2  10
ATOM      9  N   UNL     1      48.206   6.964  16.742  0.00  0.00    +0.000 N 
ATOM     10  C   UNL     1      49.183   6.668  15.832  0.00  0.00    +0.000 C 
ATOM     11  O   UNL     1      50.194   6.061  16.159  0.00  0.00    +0.000 OA
ATOM     12  H   UNL     1      48.332   6.589  17.674  0.00  0.00    +0.000 HD
ATOM     13  H   UNL     1      47.271   7.230  16.469  0.00  0.00    +0.000 HD
ENDBRANCH   2  10
ENDBRANCH   1   7
BRANCH   1  14
ATOM     14  O   UNL     1      45.203   6.320  12.879  0.00  0.00    +0.000 OA
BRANCH  14  15
ATOM     15  C   UNL     1      44.775   5.159  12.295  0.00  0.00    +0.000 A 
ATOM     16  C   UNL     1      44.027   4.301  13.089  0.00  0.00    +0.000 A 
ATOM     17  N   UNL     1      43.540   3.113  12.668  0.00  0.00    +0.000 NA
ATOM     18  C   UNL     1      43.838   2.767  11.391  0.00  0.00    +0.000 A 
ATOM     19  C   UNL     1      44.597   3.526  10.492  0.00  0.00    +0.000 A 
ATOM     20  C   UNL     1      45.065   4.749  10.995  0.00  0.00    +0.000 A 
BRANCH  19  21
ATOM     21  N   UNL     1      44.868   3.115   9.199  0.00  0.00    +0.000 N 
ATOM     22  C   UNL     1      44.925   1.697   8.841  0.00  0.00    +0.000 C 
ATOM     23  C   UNL     1      46.307   1.358   8.290  0.00  0.00    +0.000 C 
ATOM     24  C   UNL     1      46.679   2.287   7.136  0.00  0.00    +0.000 C 
ATOM     25  C   UNL     1      46.556   3.752   7.549  0.00  0.00    +0.000 C 
ATOM     26  C   UNL     1      45.175   4.066   8.128  0.00  0.00    +0.000 C 
ENDBRANCH  19  21
ENDBRANCH  14  15
ENDBRANCH   1  14
TORSDOF 5
ENDMDL
MODEL 4
REMARK VINA RESULT:    -6.990      2.592      3.718
REMARK INTER + INTRA:          -9.776
REMARK INTER:                  -8.962
REMARK INTRA:                  -0.814
REMARK UNBOUND:                -0.742
REMARK  Name = 
REMARK  5 active torsions:
REMARK  status: ('A' for Active; 'I' for Inactive)
REMARK    1  A    between atoms: C_2  and  C_4
REMARK    2  A    between atoms: C_9  and  C_10
REMARK    3  A    between atoms: C_10  and  O_11
REMARK    4  A    between atoms: O_11  and  C_12
REMARK    5  A    between atoms: C_16  and  N_17
REMARK                            x       y       z     vdW  Elec       q    Type
REMARK                         _______ _______ _______ _____ _____    ______ ____
ROOT
ATOM      1  C   UNL     1      46.136   7.133  11.824  0.00  0.00    +0.000 C 
ENDROOT
BRANCH   1   7
ATOM      2  C   UNL     1      49.878   7.785  12.298  0.00  0.00    +0.000 A 
ATOM      3  C   UNL     1      50.035   7.541  13.664  0.00  0.00    +0.000 A 
ATOM      4  C   UNL     1      48.929   7.159  14.414  0.00  0.00    +0.000 A 
ATOM      5  F   UNL     1      49.077   6.931  15.725  0.00  0.00    +0.000 F 
ATOM      6  C   UNL     1      47.672   7.016  13.833  0.00  0.00    +0.000 A 
ATOM      7  C   UNL     1      47.497   7.267  12.466  0.00  0.00    +0.000 A 
ATOM      8  C   UNL     1      48.611   7.661  11.707  0.00  0.00    +0.000 A 
BRANCH   2  10
ATOM      9  N   UNL     1      51.654   7.222  10.731  0.00  0.00    +0.000 N 
ATOM     10  C   UNL     1      51.020   8.201  11.445  0.00  0.00    +0.000 C 
ATOM     11  O   UNL     1      51.353   9.375  11.352  0.00  0.00    +0.000 OA
ATOM     12  H   UNL     1      52.357   7.533  10.071  0.00  0.00    +0.000 HD
ATOM     13  H   UNL     1      51.256   6.306  10.591  0.00  0.00    +0.000 HD
ENDBRANCH   2  10
ENDBRANCH   1   7
BRANCH   1  14
ATOM     14  O   UNL     1      45.300   6.346  12.677  0.00  0.00    +0.000 OA
BRANCH  14  15
ATOM     15  C   UNL     1      44.829   5.183  12.132  0.00  0.00    +0.000 A 
ATOM     16  C   UNL     1      44.058   4.375  12.957  0.00  0.00    +0.000 A 
ATOM     17  N   UNL     1      43.529   3.192  12.577  0.00  0.00    +0.000 NA
ATOM     18  C   UNL     1      43.805   2.796  11.309  0.00  0.00    +0.000 A 
ATOM     19  C   UNL     1      44.582   3.501  10.381  0.00  0.00    +0.000 A 
ATOM     20  C   UNL     1      45.095   4.722  10.843  0.00  0.00    +0.000 A 
BRANCH  19  21
ATOM     21  N   UNL     1      44.829   3.042   9.101  0.00  0.00    +0.000 N 
ATOM     22  C   UNL     1      44.974   1.613   8.812  0.00  0.00    +0.000 C 
ATOM     23  C   UNL     1      46.354   1.343   8.219  0.00  0.00    +0.000 C 
ATOM     24  C   UNL     1      46.611   2.233   7.004  0.00  0.00    +0.000 C 
ATOM     25  C   UNL     1      46.398   3.706   7.347  0.00  0.00    +0.000 C 
ATOM     26  C   UNL     1      45.023   3.953   7.970  0.00  0.00    +0.000 C 
ENDBRANCH  19  21
ENDBRANCH  14  15
ENDBRANCH   1  14
TORSDOF 5
ENDMDL
MODEL 5
REMARK VINA RESULT:    -6.919      3.336      4.634
REMARK INTER + INTRA:          -9.684
REMARK INTER:                  -8.852
REMARK INTRA:                  -0.832
REMARK UNBOUND:                -0.742
REMARK  Name = 
REMARK  5 active torsions:
REMARK  status: ('A' for Active; 'I' for Inactive)
REMARK    1  A    between atoms: C_2  and  C_4
REMARK    2  A    between atoms: C_9  and  C_10
REMARK    3  A    between atoms: C_10  and  O_11
REMARK    4  A    between atoms: O_11  and  C_12
REMARK    5  A    between atoms: C_16  and  N_17
REMARK                            x       y       z     vdW  Elec       q    Type
REMARK                         _______ _______ _______ _____ _____    ______ ____
ROOT
ATOM      1  C   UNL     1      46.332   6.276  13.184  0.00  0.00    +0.000 C 
ENDROOT
BRANCH   1   7
ATOM      2  C   UNL     1      48.019   9.464  11.901  0.00  0.00    +0.000 A 
ATOM      3  C   UNL     1      46.938  10.345  11.831  0.00  0.00    +0.000 A 
ATOM      4  C   UNL     1      45.678   9.899  12.208  0.00  0.00    +0.000 A 
ATOM      5  F   UNL     1      44.639  10.741  12.135  0.00  0.00    +0.000 F 
ATOM      6  C   UNL     1      45.470   8.596  12.653  0.00  0.00    +0.000 A 
ATOM      7  C   UNL     1      46.543   7.699  12.720  0.00  0.00    +0.000 A 
ATOM      8  C   UNL     1      47.818   8.143  12.331  0.00  0.00    +0.000 A 
BRANCH   2  10
ATOM      9  N   UNL     1      49.496  10.931  10.640  0.00  0.00    +0.000 N 
ATOM     10  C   UNL     1      49.389   9.879  11.506  0.00  0.00    +0.000 C 
ATOM     11  O   UNL     1      50.381   9.330  11.967  0.00  0.00    +0.000 OA
ATOM     12  H   UNL     1      50.432  11.275  10.465  0.00  0.00    +0.000 HD
ATOM     13  H   UNL     1      48.727  11.554  10.442  0.00  0.00    +0.000 HD
ENDBRANCH   2  10
ENDBRANCH   1   7
BRANCH   1  14
ATOM     14  O   UNL     1      44.929   6.005  13.217  0.00  0.00    +0.000 OA
BRANCH  14  15
ATOM     15  C   UNL     1      44.526   4.895  12.528  0.00  0.00    +0.000 A 
ATOM     16  C   UNL     1      43.777   3.961  13.232  0.00  0.00    +0.000 A 
ATOM     17  N   UNL     1      43.313   2.808  12.703  0.00  0.00    +0.000 NA
ATOM     18  C   UNL     1      43.635   2.578  11.405  0.00  0.00    +0.000 A 
ATOM     19  C   UNL     1      44.395   3.422  10.587  0.00  0.00    +0.000 A 
ATOM     20  C   UNL     1      44.840   4.602  11.202  0.00  0.00    +0.000 A 
BRANCH  19  21
ATOM     21  N   UNL     1      44.691   3.129   9.268  0.00  0.00    +0.000 N 
ATOM     22  C   UNL     1      44.824   1.748   8.800  0.00  0.00    +0.000 C 
ATOM     23  C   UNL     1      46.224   1.527   8.233  0.00  0.00    +0.000 C 
ATOM     24  C   UNL     1      46.548   2.562   7.157  0.00  0.00    +0.000 C 
ATOM     25  C   UNL     1      46.345   3.982   7.682  0.00  0.00    +0.000 C 
ATOM     26  C   UNL     1      44.948   4.176   8.276  0.00  0.00    +0.000 C 
ENDBRANCH  19  21
ENDBRANCH  14  15
ENDBRANCH   1  14
TORSDOF 5
ENDMDL
MODEL 6
REMARK VINA RESULT:    -6.840      2.027      2.388
REMARK INTER + INTRA:          -9.581
REMARK INTER:                  -8.881
REMARK INTRA:                  -0.700
REMARK UNBOUND:                -0.742
REMARK  Name = 
REMARK  5 active torsions:
REMARK  status: ('A' for Active; 'I' for Inactive)
REMARK    1  A    between atoms: C_2  and  C_4
REMARK    2  A    between atoms: C_9  and  C_10
REMARK    3  A    between atoms: C_10  and  O_11
REMARK    4  A    between atoms: O_11  and  C_12
REMARK    5  A    between atoms: C_16  and  N_17
REMARK                            x       y       z     vdW  Elec       q    Type
REMARK                         _______ _______ _______ _____ _____    ______ ____
ROOT
ATOM      1  C   UNL     1      47.225   5.780  13.315  0.00  0.00    +0.000 C 
ENDROOT
BRANCH   1   7
ATOM      2  C   UNL     1      48.858   6.066  16.766  0.00  0.00    +0.000 A 
ATOM      3  C   UNL     1      48.406   4.901  17.388  0.00  0.00    +0.000 A 
ATOM      4  C   UNL     1      47.586   4.031  16.679  0.00  0.00    +0.000 A 
ATOM      5  F   UNL     1      47.147   2.916  17.277  0.00  0.00    +0.000 F 
ATOM      6  C   UNL     1      47.205   4.297  15.367  0.00  0.00    +0.000 A 
ATOM      7  C   UNL     1      47.643   5.468  14.733  0.00  0.00    +0.000 A 
ATOM      8  C   UNL     1      48.465   6.354  15.449  0.00  0.00    +0.000 A 
BRANCH   2  10
ATOM      9  N   UNL     1      49.822   8.294  16.941  0.00  0.00    +0.000 N 
ATOM     10  C   UNL     1      49.731   7.037  17.472  0.00  0.00    +0.000 C 
ATOM     11  O   UNL     1      50.312   6.739  18.507  0.00  0.00    +0.000 OA
ATOM     12  H   UNL     1      50.330   8.977  17.490  0.00  0.00    +0.000 HD
ATOM     13  H   UNL     1      49.175   8.641  16.249  0.00  0.00    +0.000 HD
ENDBRANCH   2  10
ENDBRANCH   1   7
BRANCH   1  14
ATOM     14  O   UNL     1      45.807   5.956  13.280  0.00  0.00    +0.000 OA
BRANCH  14  15
ATOM     15  C   UNL     1      45.109   4.999  12.596  0.00  0.00    +0.000 A 
ATOM     16  C   UNL     1      44.134   4.311  13.306  0.00  0.00    +0.000 A 
ATOM     17  N   UNL     1      43.367   3.331  12.782  0.00  0.00    +0.000 NA
ATOM     18  C   UNL     1      43.607   3.017  11.484  0.00  0.00    +0.000 A 
ATOM     19  C   UNL     1      44.569   3.615  10.660  0.00  0.00    +0.000 A 
ATOM     20  C   UNL     1      45.325   4.627  11.270  0.00  0.00    +0.000 A 
BRANCH  19  21
ATOM     21  N   UNL     1      44.767   3.248   9.342  0.00  0.00    +0.000 N 
ATOM     22  C   UNL     1      44.755   1.844   8.926  0.00  0.00    +0.000 C 
ATOM     23  C   UNL     1      46.098   1.480   8.300  0.00  0.00    +0.000 C 
ATOM     24  C   UNL     1      46.452   2.441   7.166  0.00  0.00    +0.000 C 
ATOM     25  C   UNL     1      46.401   3.892   7.641  0.00  0.00    +0.000 C 
ATOM     26  C   UNL     1      45.060   4.230   8.296  0.00  0.00    +0.000 C 
ENDBRANCH  19  21
ENDBRANCH  14  15
ENDBRANCH   1  14
TORSDOF 5
ENDMDL
MODEL 7
REMARK VINA RESULT:    -6.827      2.850      7.787
REMARK INTER + INTRA:          -9.565
REMARK INTER:                  -8.729
REMARK INTRA:                  -0.836
REMARK UNBOUND:                -0.742
REMARK  Name = 
REMARK  5 active torsions:
REMARK  status: ('A' for Active; 'I' for Inactive)
REMARK    1  A    between atoms: C_2  and  C_4
REMARK    2  A    between atoms: C_9  and  C_10
REMARK    3  A    between atoms: C_10  and  O_11
REMARK    4  A    between atoms: O_11  and  C_12
REMARK    5  A    between atoms: C_16  and  N_17
REMARK                            x       y       z     vdW  Elec       q    Type
REMARK                         _______ _______ _______ _____ _____    ______ ____
ROOT
ATOM      1  C   UNL     1      46.530   7.620  12.153  0.00  0.00    +0.000 C 
ENDROOT
BRANCH   1   7
ATOM      2  C   UNL     1      44.772   4.790  10.269  0.00  0.00    +0.000 A 
ATOM      3  C   UNL     1      43.797   4.403  11.190  0.00  0.00    +0.000 A 
ATOM      4  C   UNL     1      43.713   5.070  12.406  0.00  0.00    +0.000 A 
ATOM      5  F   UNL     1      42.782   4.696  13.293  0.00  0.00    +0.000 F 
ATOM      6  C   UNL     1      44.580   6.111  12.725  0.00  0.00    +0.000 A 
ATOM      7  C   UNL     1      45.571   6.503  11.815  0.00  0.00    +0.000 A 
ATOM      8  C   UNL     1      45.663   5.826  10.588  0.00  0.00    +0.000 A 
BRANCH   2  10
ATOM      9  N   UNL     1      44.261   2.922   8.794  0.00  0.00    +0.000 N 
ATOM     10  C   UNL     1      44.915   4.112   8.956  0.00  0.00    +0.000 C 
ATOM     11  O   UNL     1      45.556   4.616   8.043  0.00  0.00    +0.000 OA
ATOM     12  H   UNL     1      44.276   2.526   7.862  0.00  0.00    +0.000 HD
ATOM     13  H   UNL     1      43.536   2.610   9.422  0.00  0.00    +0.000 HD
ENDBRANCH   2  10
ENDBRANCH   1   7
BRANCH   1  14
ATOM     14  O   UNL     1      47.864   7.104  12.133  0.00  0.00    +0.000 OA
BRANCH  14  15
ATOM     15  C   UNL     1      48.469   6.985  13.354  0.00  0.00    +0.000 A 
ATOM     16  C   UNL     1      49.674   7.653  13.521  0.00  0.00    +0.000 A 
ATOM     17  N   UNL     1      50.402   7.627  14.659  0.00  0.00    +0.000 NA
ATOM     18  C   UNL     1      49.899   6.877  15.670  0.00  0.00    +0.000 A 
ATOM     19  C   UNL     1      48.709   6.139  15.631  0.00  0.00    +0.000 A 
ATOM     20  C   UNL     1      48.004   6.216  14.420  0.00  0.00    +0.000 A 
BRANCH  19  21
ATOM     21  N   UNL     1      48.249   5.390  16.698  0.00  0.00    +0.000 N 
ATOM     22  C   UNL     1      48.718   5.633  18.064  0.00  0.00    +0.000 C 
ATOM     23  C   UNL     1      49.381   4.374  18.615  0.00  0.00    +0.000 C 
ATOM     24  C   UNL     1      48.448   3.170  18.502  0.00  0.00    +0.000 C 
ATOM     25  C   UNL     1      47.951   2.992  17.069  0.00  0.00    +0.000 C 
ATOM     26  C   UNL     1      47.318   4.274  16.523  0.00  0.00    +0.000 C 
ENDBRANCH  19  21
ENDBRANCH  14  15
ENDBRANCH   1  14
TORSDOF 5
ENDMDL
MODEL 8
REMARK VINA RESULT:    -6.775      2.990      8.581
REMARK INTER + INTRA:          -9.498
REMARK INTER:                  -8.905
REMARK INTRA:                  -0.593
REMARK UNBOUND:                -0.742
REMARK  Name = 
REMARK  5 active torsions:
REMARK  status: ('A' for Active; 'I' for Inactive)
REMARK    1  A    between atoms: C_2  and  C_4
REMARK    2  A    between atoms: C_9  and  C_10
REMARK    3  A    between atoms: C_10  and  O_11
REMARK    4  A    between atoms: O_11  and  C_12
REMARK    5  A    between atoms: C_16  and  N_17
REMARK                            x       y       z     vdW  Elec       q    Type
REMARK                         _______ _______ _______ _____ _____    ______ ____
ROOT
ATOM      1  C   UNL     1      47.090   5.057  14.190  0.00  0.00    +0.000 C 
ENDROOT
BRANCH   1   7
ATOM      2  C   UNL     1      44.452   4.118  11.580  0.00  0.00    +0.000 A 
ATOM      3  C   UNL     1      44.049   5.374  11.123  0.00  0.00    +0.000 A 
ATOM      4  C   UNL     1      44.642   6.511  11.659  0.00  0.00    +0.000 A 
ATOM      5  F   UNL     1      44.252   7.716  11.227  0.00  0.00    +0.000 F 
ATOM      6  C   UNL     1      45.627   6.423  12.640  0.00  0.00    +0.000 A 
ATOM      7  C   UNL     1      46.035   5.169  13.114  0.00  0.00    +0.000 A 
ATOM      8  C   UNL     1      45.431   4.019  12.581  0.00  0.00    +0.000 A 
BRANCH   2  10
ATOM      9  N   UNL     1      44.491   2.263  10.004  0.00  0.00    +0.000 N 
ATOM     10  C   UNL     1      43.851   2.868  11.050  0.00  0.00    +0.000 C 
ATOM     11  O   UNL     1      42.850   2.376  11.554  0.00  0.00    +0.000 OA
ATOM     12  H   UNL     1      44.136   1.356   9.725  0.00  0.00    +0.000 HD
ATOM     13  H   UNL     1      45.435   2.497   9.735  0.00  0.00    +0.000 HD
ENDBRANCH   2  10
ENDBRANCH   1   7
BRANCH   1  14
ATOM     14  O   UNL     1      46.594   4.218  15.236  0.00  0.00    +0.000 OA
BRANCH  14  15
ATOM     15  C   UNL     1      47.440   4.032  16.295  0.00  0.00    +0.000 A 
ATOM     16  C   UNL     1      48.185   2.860  16.300  0.00  0.00    +0.000 A 
ATOM     17  N   UNL     1      49.055   2.521  17.276  0.00  0.00    +0.000 NA
ATOM     18  C   UNL     1      49.165   3.398  18.305  0.00  0.00    +0.000 A 
ATOM     19  C   UNL     1      48.463   4.602  18.435  0.00  0.00    +0.000 A 
ATOM     20  C   UNL     1      47.581   4.891  17.383  0.00  0.00    +0.000 A 
BRANCH  19  21
ATOM     21  N   UNL     1      48.619   5.454  19.513  0.00  0.00    +0.000 N 
ATOM     22  C   UNL     1      48.667   4.952  20.888  0.00  0.00    +0.000 C 
ATOM     23  C   UNL     1      47.533   5.568  21.703  0.00  0.00    +0.000 C 
ATOM     24  C   UNL     1      47.563   7.093  21.616  0.00  0.00    +0.000 C 
ATOM     25  C   UNL     1      47.561   7.561  20.162  0.00  0.00    +0.000 C 
ATOM     26  C   UNL     1      48.684   6.909  19.353  0.00  0.00    +0.000 C 
ENDBRANCH  19  21
ENDBRANCH  14  15
ENDBRANCH   1  14
TORSDOF 5
ENDMDL
MODEL 9
REMARK VINA RESULT:    -6.493      2.430      3.832
REMARK INTER + INTRA:          -9.133
REMARK INTER:                  -8.319
REMARK INTRA:                  -0.814
REMARK UNBOUND:                -0.742
REMARK  Name = 
REMARK  5 active torsions:
REMARK  status: ('A' for Active; 'I' for Inactive)
REMARK    1  A    between atoms: C_2  and  C_4
REMARK    2  A    between atoms: C_9  and  C_10
REMARK    3  A    between atoms: C_10  and  O_11
REMARK    4  A    between atoms: O_11  and  C_12
REMARK    5  A    between atoms: C_16  and  N_17
REMARK                            x       y       z     vdW  Elec       q    Type
REMARK                         _______ _______ _______ _____ _____    ______ ____
ROOT
ATOM      1  C   UNL     1      49.621   7.330  15.306  0.00  0.00    +0.000 C 
ENDROOT
BRANCH   1   7
ATOM      2  C   UNL     1      49.124   4.320  17.618  0.00  0.00    +0.000 A 
ATOM      3  C   UNL     1      50.427   4.091  18.065  0.00  0.00    +0.000 A 
ATOM      4  C   UNL     1      51.450   4.920  17.620  0.00  0.00    +0.000 A 
ATOM      5  F   UNL     1      52.701   4.698  18.043  0.00  0.00    +0.000 F 
ATOM      6  C   UNL     1      51.204   5.970  16.739  0.00  0.00    +0.000 A 
ATOM      7  C   UNL     1      49.903   6.206  16.275  0.00  0.00    +0.000 A 
ATOM      8  C   UNL     1      48.868   5.365  16.716  0.00  0.00    +0.000 A 
BRANCH   2  10
ATOM      9  N   UNL     1      48.087   2.883  19.286  0.00  0.00    +0.000 N 
ATOM     10  C   UNL     1      47.991   3.466  18.053  0.00  0.00    +0.000 C 
ATOM     11  O   UNL     1      46.995   3.323  17.357  0.00  0.00    +0.000 OA
ATOM     12  H   UNL     1      47.264   2.395  19.616  0.00  0.00    +0.000 HD
ATOM     13  H   UNL     1      48.763   3.176  19.975  0.00  0.00    +0.000 HD
ENDBRANCH   2  10
ENDBRANCH   1   7
BRANCH   1  14
ATOM     14  O   UNL     1      49.318   6.771  14.026  0.00  0.00    +0.000 OA
BRANCH  14  15
ATOM     15  C   UNL     1      48.015   6.883  13.625  0.00  0.00    +0.000 A 
ATOM     16  C   UNL     1      47.531   8.170  13.432  0.00  0.00    +0.000 A 
ATOM     17  N   UNL     1      46.266   8.452  13.049  0.00  0.00    +0.000 NA
ATOM     18  C   UNL     1      45.447   7.387  12.869  0.00  0.00    +0.000 A 
ATOM     19  C   UNL     1      45.798   6.043  13.047  0.00  0.00    +0.000 A 
ATOM     20  C   UNL     1      47.127   5.825  13.441  0.00  0.00    +0.000 A 
BRANCH  19  21
ATOM     21  N   UNL     1      44.914   4.999  12.849  0.00  0.00    +0.000 N 
ATOM     22  C   UNL     1      45.380   3.650  12.519  0.00  0.00    +0.000 C 
ATOM     23  C   UNL     1      44.804   3.220  11.173  0.00  0.00    +0.000 C 
ATOM     24  C   UNL     1      43.282   3.352  11.161  0.00  0.00    +0.000 C 
ATOM     25  C   UNL     1      42.850   4.761  11.560  0.00  0.00    +0.000 C 
ATOM     26  C   UNL     1      43.462   5.188  12.896  0.00  0.00    +0.000 C 
ENDBRANCH  19  21
ENDBRANCH  14  15
ENDBRANCH   1  14
TORSDOF 5
ENDMDL
