MODEL 1
REMARK VINA RESULT:    -8.127      0.000      0.000
REMARK INTER + INTRA:         -11.403
REMARK INTER:                 -10.503
REMARK INTRA:                  -0.900
REMARK UNBOUND:                -0.900
REMARK  Name = 
REMARK  6 active torsions:
REMARK  status: ('A' for Active; 'I' for Inactive)
REMARK    1  A    between atoms: C_1  and  C_2
REMARK    2  A    between atoms: C_2  and  C_3
REMARK    3  A    between atoms: C_2  and  N_16
REMARK    4  A    between atoms: C_3  and  C_4
REMARK    5  A    between atoms: C_8  and  C_9
REMARK    6  A    between atoms: C_20  and  C_21
REMARK                            x       y       z     vdW  Elec       q    Type
REMARK                         _______ _______ _______ _____ _____    ______ ____
ROOT
ATOM      1  C   UNL     1      48.696   7.647  11.394  0.00  0.00    +0.000 C 
ATOM      2  C   UNL     1      47.775   7.003  12.438  0.00  0.00    +0.000 C 
ENDROOT
BRANCH   2   3
ATOM      3  N   UNL     1      48.312   7.287  13.783  0.00  0.00    +0.000 N 
ATOM      4  C   UNL     1      48.118   6.282  14.745  0.00  0.00    +0.000 A 
ATOM      5  C   UNL     1      48.660   6.467  16.014  0.00  0.00    +0.000 A 
ATOM      6  C   UNL     1      48.480   5.486  16.992  0.00  0.00    +0.000 A 
ATOM      7  C   UNL     1      47.758   4.331  16.691  0.00  0.00    +0.000 A 
ATOM      8  C   UNL     1      47.267   4.223  15.402  0.00  0.00    +0.000 A 
ATOM      9  N   UNL     1      47.437   5.162  14.436  0.00  0.00    +0.000 NA
ATOM     10  H   UNL     1      47.977   8.165  14.168  0.00  0.00    +0.000 HD
BRANCH   7  11
ATOM     11  C   UNL     1      47.554   3.299  17.732  0.00  0.00    +0.000 C 
ATOM     12  N   UNL     1      48.422   3.223  18.783  0.00  0.00    +0.000 N 
ATOM     13  O   UNL     1      46.620   2.508  17.656  0.00  0.00    +0.000 OA
ATOM     14  H   UNL     1      49.222   3.815  18.938  0.00  0.00    +0.000 HD
ATOM     15  H   UNL     1      48.240   2.497  19.463  0.00  0.00    +0.000 HD
ENDBRANCH   7  11
ENDBRANCH   2   3
BRANCH   2  16
ATOM     16  C   UNL     1      46.330   7.549  12.333  0.00  0.00    +0.000 C 
BRANCH  16  17
ATOM     17  C   UNL     1      45.357   6.598  11.667  0.00  0.00    +0.000 A 
ATOM     18  C   UNL     1      43.976   6.727  11.858  0.00  0.00    +0.000 A 
ATOM     19  C   UNL     1      43.098   5.814  11.284  0.00  0.00    +0.000 A 
ATOM     20  C   UNL     1      43.588   4.799  10.464  0.00  0.00    +0.000 A 
ATOM     21  C   UNL     1      44.958   4.693  10.167  0.00  0.00    +0.000 A 
ATOM     22  C   UNL     1      45.833   5.584  10.818  0.00  0.00    +0.000 A 
BRANCH  21  23
ATOM     23  C   UNL     1      45.442   3.762   9.122  0.00  0.00    +0.000 A 
ATOM     24  C   UNL     1      46.102   4.267   7.982  0.00  0.00    +0.000 A 
ATOM     25  C   UNL     1      46.662   3.423   7.020  0.00  0.00    +0.000 A 
ATOM     26  C   UNL     1      46.581   2.046   7.180  0.00  0.00    +0.000 A 
ATOM     27  C   UNL     1      45.922   1.517   8.288  0.00  0.00    +0.000 A 
ATOM     28  C   UNL     1      45.351   2.365   9.245  0.00  0.00    +0.000 A 
ENDBRANCH  21  23
ENDBRANCH  16  17
ENDBRANCH   2  16
TORSDOF 5
ENDMDL
MODEL 2
REMARK VINA RESULT:    -7.542      3.816      7.635
REMARK INTER + INTRA:         -10.647
REMARK INTER:                  -9.892
REMARK INTRA:                  -0.755
REMARK UNBOUND:                -0.900
REMARK  Name = 
REMARK  6 active torsions:
REMARK  status: ('A' for Active; 'I' for Inactive)
REMARK    1  A    between atoms: C_1  and  C_2
REMARK    2  A    between atoms: C_2  and  C_3
REMARK    3  A    between atoms: C_2  and  N_16
REMARK    4  A    between atoms: C_3  and  C_4
REMARK    5  A    between atoms: C_8  and  C_9
REMARK    6  A    between atoms: C_20  and  C_21
REMARK                            x       y       z     vdW  Elec       q    Type
REMARK                         _______ _______ _______ _____ _____    ______ ____
ROOT
ATOM      1  C   UNL     1      42.302   5.613  11.561  0.00  0.00    +0.000 C 
ATOM      2  C   UNL     1      43.563   4.743  11.490  0.00  0.00    +0.000 C 
ENDROOT
BRANCH   2   3
ATOM      3  N   UNL     1      44.381   5.186  10.345  0.00  0.00    +0.000 N 
ATOM      4  C   UNL     1      44.971   4.165   9.583  0.00  0.00    +0.000 A 
ATOM      5  C   UNL     1      45.702   4.522   8.451  0.00  0.00    +0.000 A 
ATOM      6  C   UNL     1      46.303   3.528   7.676  0.00  0.00    +0.000 A 
ATOM      7  C   UNL     1      46.169   2.188   8.040  0.00  0.00    +0.000 A 
ATOM      8  C   UNL     1      45.415   1.923   9.170  0.00  0.00    +0.000 A 
ATOM      9  N   UNL     1      44.818   2.874   9.932  0.00  0.00    +0.000 NA
ATOM     10  H   UNL     1      45.107   5.848  10.607  0.00  0.00    +0.000 HD
BRANCH   7  11
ATOM     11  C   UNL     1      46.819   1.136   7.226  0.00  0.00    +0.000 C 
ATOM     12  N   UNL     1      47.373   1.463   6.023  0.00  0.00    +0.000 N 
ATOM     13  O   UNL     1      46.858  -0.025   7.619  0.00  0.00    +0.000 OA
ATOM     14  H   UNL     1      47.390   2.379   5.605  0.00  0.00    +0.000 HD
ATOM     15  H   UNL     1      47.800   0.707   5.505  0.00  0.00    +0.000 HD
ENDBRANCH   7  11
ENDBRANCH   2   3
BRANCH   2  16
ATOM     16  C   UNL     1      44.396   4.847  12.792  0.00  0.00    +0.000 C 
BRANCH  16  17
ATOM     17  C   UNL     1      45.514   5.867  12.729  0.00  0.00    +0.000 A 
ATOM     18  C   UNL     1      46.857   5.471  12.762  0.00  0.00    +0.000 A 
ATOM     19  C   UNL     1      47.872   6.421  12.758  0.00  0.00    +0.000 A 
ATOM     20  C   UNL     1      47.556   7.776  12.659  0.00  0.00    +0.000 A 
ATOM     21  C   UNL     1      46.226   8.211  12.525  0.00  0.00    +0.000 A 
ATOM     22  C   UNL     1      45.214   7.235  12.605  0.00  0.00    +0.000 A 
BRANCH  21  23
ATOM     23  C   UNL     1      45.915   9.620  12.192  0.00  0.00    +0.000 A 
ATOM     24  C   UNL     1      46.953  10.572  12.126  0.00  0.00    +0.000 A 
ATOM     25  C   UNL     1      46.721  11.889  11.720  0.00  0.00    +0.000 A 
ATOM     26  C   UNL     1      45.438  12.284  11.362  0.00  0.00    +0.000 A 
ATOM     27  C   UNL     1      44.389  11.370  11.432  0.00  0.00    +0.000 A 
ATOM     28  C   UNL     1      44.623  10.054  11.851  0.00  0.00    +0.000 A 
ENDBRANCH  21  23
ENDBRANCH  16  17
ENDBRANCH   2  16
TORSDOF 5
ENDMDL
MODEL 3
REMARK VINA RESULT:    -7.195      1.162      2.053
REMARK INTER + INTRA:         -10.198
REMARK INTER:                  -9.088
REMARK INTRA:                  -1.110
REMARK UNBOUND:                -0.900
REMARK  Name = 
REMARK  6 active torsions:
REMARK  status: ('A' for Active; 'I' for Inactive)
REMARK    1  A    between atoms: C_1  and  C_2
REMARK    2  A    between atoms: C_2  and  C_3
REMARK    3  A    between atoms: C_2  and  N_16
REMARK    4  A    between atoms: C_3  and  C_4
REMARK    5  A    between atoms: C_8  and  C_9
REMARK    6  A    between atoms: C_20  and  C_21
REMARK                            x       y       z     vdW  Elec       q    Type
REMARK                         _______ _______ _______ _____ _____    ______ ____
ROOT
ATOM      1  C   UNL     1      50.262   7.662  12.045  0.00  0.00    +0.000 C 
ATOM      2  C   UNL     1      49.054   7.519  12.979  0.00  0.00    +0.000 C 
ENDROOT
BRANCH   2   3
ATOM      3  N   UNL     1      49.530   7.530  14.375  0.00  0.00    +0.000 N 
ATOM      4  C   UNL     1      49.032   6.509  15.200  0.00  0.00    +0.000 A 
ATOM      5  C   UNL     1      49.496   6.431  16.511  0.00  0.00    +0.000 A 
ATOM      6  C   UNL     1      49.016   5.427  17.356  0.00  0.00    +0.000 A 
ATOM      7  C   UNL     1      48.075   4.513  16.881  0.00  0.00    +0.000 A 
ATOM      8  C   UNL     1      47.679   4.655  15.563  0.00  0.00    +0.000 A 
ATOM      9  N   UNL     1      48.139   5.619  14.726  0.00  0.00    +0.000 NA
ATOM     10  H   UNL     1      49.375   8.420  14.842  0.00  0.00    +0.000 HD
BRANCH   7  11
ATOM     11  C   UNL     1      47.555   3.459  17.782  0.00  0.00    +0.000 C 
ATOM     12  N   UNL     1      48.218   3.177  18.941  0.00  0.00    +0.000 N 
ATOM     13  O   UNL     1      46.541   2.833  17.493  0.00  0.00    +0.000 OA
ATOM     14  H   UNL     1      49.059   3.623  19.268  0.00  0.00    +0.000 HD
ATOM     15  H   UNL     1      47.823   2.446  19.516  0.00  0.00    +0.000 HD
ENDBRANCH   7  11
ENDBRANCH   2   3
BRANCH   2  16
ATOM     16  C   UNL     1      48.038   8.669  12.770  0.00  0.00    +0.000 C 
BRANCH  16  17
ATOM     17  C   UNL     1      46.707   8.222  12.202  0.00  0.00    +0.000 A 
ATOM     18  C   UNL     1      45.619   9.101  12.133  0.00  0.00    +0.000 A 
ATOM     19  C   UNL     1      44.388   8.661  11.659  0.00  0.00    +0.000 A 
ATOM     20  C   UNL     1      44.249   7.355  11.191  0.00  0.00    +0.000 A 
ATOM     21  C   UNL     1      45.341   6.471  11.152  0.00  0.00    +0.000 A 
ATOM     22  C   UNL     1      46.556   6.916  11.705  0.00  0.00    +0.000 A 
BRANCH  21  23
ATOM     23  C   UNL     1      45.244   5.171  10.448  0.00  0.00    +0.000 A 
ATOM     24  C   UNL     1      44.651   4.065  11.092  0.00  0.00    +0.000 A 
ATOM     25  C   UNL     1      44.449   2.850  10.434  0.00  0.00    +0.000 A 
ATOM     26  C   UNL     1      44.830   2.713   9.106  0.00  0.00    +0.000 A 
ATOM     27  C   UNL     1      45.432   3.783   8.446  0.00  0.00    +0.000 A 
ATOM     28  C   UNL     1      45.644   4.997   9.112  0.00  0.00    +0.000 A 
ENDBRANCH  21  23
ENDBRANCH  16  17
ENDBRANCH   2  16
TORSDOF 5
ENDMDL
MODEL 4
REMARK VINA RESULT:    -7.004      4.120      7.834
REMARK INTER + INTRA:          -9.951
REMARK INTER:                  -9.199
REMARK INTRA:                  -0.753
REMARK UNBOUND:                -0.900
REMARK  Name = 
REMARK  6 active torsions:
REMARK  status: ('A' for Active; 'I' for Inactive)
REMARK    1  A    between atoms: C_1  and  C_2
REMARK    2  A    between atoms: C_2  and  C_3
REMARK    3  A    between atoms: C_2  and  N_16
REMARK    4  A    between atoms: C_3  and  C_4
REMARK    5  A    between atoms: C_8  and  C_9
REMARK    6  A    between atoms: C_20  and  C_21
REMARK                            x       y       z     vdW  Elec       q    Type
REMARK                         _______ _______ _______ _____ _____    ______ ____
ROOT
ATOM      1  C   UNL     1      43.186   2.922  11.443  0.00  0.00    +0.000 C 
ATOM      2  C   UNL     1      44.708   2.964  11.255  0.00  0.00    +0.000 C 
ENDROOT
BRANCH   2   3
ATOM      3  N   UNL     1      45.021   3.855  10.121  0.00  0.00    +0.000 N 
ATOM      4  C   UNL     1      45.598   3.239   8.999  0.00  0.00    +0.000 A 
ATOM      5  C   UNL     1      45.856   4.019   7.874  0.00  0.00    +0.000 A 
ATOM      6  C   UNL     1      46.434   3.433   6.745  0.00  0.00    +0.000 A 
ATOM      7  C   UNL     1      46.749   2.074   6.753  0.00  0.00    +0.000 A 
ATOM      8  C   UNL     1      46.447   1.372   7.906  0.00  0.00    +0.000 A 
ATOM      9  N   UNL     1      45.880   1.922   9.011  0.00  0.00    +0.000 NA
ATOM     10  H   UNL     1      45.602   4.645  10.384  0.00  0.00    +0.000 HD
BRANCH   7  11
ATOM     11  C   UNL     1      47.376   1.458   5.561  0.00  0.00    +0.000 C 
ATOM     12  N   UNL     1      47.105   0.155   5.257  0.00  0.00    +0.000 N 
ATOM     13  O   UNL     1      48.139   2.103   4.851  0.00  0.00    +0.000 OA
ATOM     14  H   UNL     1      46.503  -0.463   5.775  0.00  0.00    +0.000 HD
ATOM     15  H   UNL     1      47.563  -0.217   4.437  0.00  0.00    +0.000 HD
ENDBRANCH   7  11
ENDBRANCH   2   3
BRANCH   2  16
ATOM     16  C   UNL     1      45.422   3.479  12.528  0.00  0.00    +0.000 C 
BRANCH  16  17
ATOM     17  C   UNL     1      45.671   4.973  12.536  0.00  0.00    +0.000 A 
ATOM     18  C   UNL     1      44.612   5.882  12.660  0.00  0.00    +0.000 A 
ATOM     19  C   UNL     1      44.851   7.250  12.611  0.00  0.00    +0.000 A 
ATOM     20  C   UNL     1      46.157   7.726  12.499  0.00  0.00    +0.000 A 
ATOM     21  C   UNL     1      47.256   6.850  12.470  0.00  0.00    +0.000 A 
ATOM     22  C   UNL     1      46.983   5.469  12.447  0.00  0.00    +0.000 A 
BRANCH  21  23
ATOM     23  C   UNL     1      48.641   7.361  12.581  0.00  0.00    +0.000 A 
ATOM     24  C   UNL     1      49.297   7.867  11.439  0.00  0.00    +0.000 A 
ATOM     25  C   UNL     1      50.565   8.449  11.515  0.00  0.00    +0.000 A 
ATOM     26  C   UNL     1      51.207   8.547  12.743  0.00  0.00    +0.000 A 
ATOM     27  C   UNL     1      50.590   8.043  13.886  0.00  0.00    +0.000 A 
ATOM     28  C   UNL     1      49.325   7.448  13.805  0.00  0.00    +0.000 A 
ENDBRANCH  21  23
ENDBRANCH  16  17
ENDBRANCH   2  16
TORSDOF 5
ENDMDL
MODEL 5
REMARK VINA RESULT:    -6.997      1.670      2.409
REMARK INTER + INTRA:          -9.941
REMARK INTER:                  -9.882
REMARK INTRA:                  -0.060
REMARK UNBOUND:                -0.900
REMARK  Name = 
REMARK  6 active torsions:
REMARK  status: ('A' for Active; 'I' for Inactive)
REMARK    1  A    between atoms: C_1  and  C_2
REMARK    2  A    between atoms: C_2  and  C_3
REMARK    3  A    between atoms: C_2  and  N_16
REMARK    4  A    between atoms: C_3  and  C_4
REMARK    5  A    between atoms: C_8  and  C_9
REMARK    6  A    between atoms: C_20  and  C_21
REMARK                            x       y       z     vdW  Elec       q    Type
REMARK                         _______ _______ _______ _____ _____    ______ ____
ROOT
ATOM      1  C   UNL     1      45.753   8.051  12.901  0.00  0.00    +0.000 C 
ATOM      2  C   UNL     1      45.999   6.751  12.123  0.00  0.00    +0.000 C 
ENDROOT
BRANCH   2   3
ATOM      3  N   UNL     1      45.931   5.616  13.063  0.00  0.00    +0.000 N 
ATOM      4  C   UNL     1      46.896   5.605  14.083  0.00  0.00    +0.000 A 
ATOM      5  C   UNL     1      46.840   4.592  15.037  0.00  0.00    +0.000 A 
ATOM      6  C   UNL     1      47.790   4.555  16.061  0.00  0.00    +0.000 A 
ATOM      7  C   UNL     1      48.786   5.530  16.119  0.00  0.00    +0.000 A 
ATOM      8  C   UNL     1      48.758   6.507  15.139  0.00  0.00    +0.000 A 
ATOM      9  N   UNL     1      47.841   6.564  14.141  0.00  0.00    +0.000 NA
ATOM     10  H   UNL     1      45.950   4.713  12.597  0.00  0.00    +0.000 HD
BRANCH   7  11
ATOM     11  C   UNL     1      49.801   5.480  17.196  0.00  0.00    +0.000 C 
ATOM     12  N   UNL     1      49.515   6.024  18.414  0.00  0.00    +0.000 N 
ATOM     13  O   UNL     1      50.896   4.963  17.001  0.00  0.00    +0.000 OA
ATOM     14  H   UNL     1      48.655   6.477  18.677  0.00  0.00    +0.000 HD
ATOM     15  H   UNL     1      50.245   5.968  19.112  0.00  0.00    +0.000 HD
ENDBRANCH   7  11
ENDBRANCH   2   3
BRANCH   2  16
ATOM     16  C   UNL     1      44.950   6.557  11.000  0.00  0.00    +0.000 C 
BRANCH  16  17
ATOM     17  C   UNL     1      44.719   5.111  10.615  0.00  0.00    +0.000 A 
ATOM     18  C   UNL     1      43.721   4.348  11.235  0.00  0.00    +0.000 A 
ATOM     19  C   UNL     1      43.556   3.007  10.910  0.00  0.00    +0.000 A 
ATOM     20  C   UNL     1      44.346   2.429   9.917  0.00  0.00    +0.000 A 
ATOM     21  C   UNL     1      45.292   3.184   9.202  0.00  0.00    +0.000 A 
ATOM     22  C   UNL     1      45.491   4.519   9.600  0.00  0.00    +0.000 A 
BRANCH  21  23
ATOM     23  C   UNL     1      45.962   2.629   8.003  0.00  0.00    +0.000 A 
ATOM     24  C   UNL     1      46.182   3.449   6.877  0.00  0.00    +0.000 A 
ATOM     25  C   UNL     1      46.896   2.998   5.764  0.00  0.00    +0.000 A 
ATOM     26  C   UNL     1      47.415   1.710   5.754  0.00  0.00    +0.000 A 
ATOM     27  C   UNL     1      47.201   0.871   6.845  0.00  0.00    +0.000 A 
ATOM     28  C   UNL     1      46.475   1.321   7.954  0.00  0.00    +0.000 A 
ENDBRANCH  21  23
ENDBRANCH  16  17
ENDBRANCH   2  16
TORSDOF 5
ENDMDL
MODEL 6
REMARK VINA RESULT:    -6.872      3.466      7.791
REMARK INTER + INTRA:          -9.780
REMARK INTER:                  -8.995
REMARK INTRA:                  -0.786
REMARK UNBOUND:                -0.900
REMARK  Name = 
REMARK  6 active torsions:
REMARK  status: ('A' for Active; 'I' for Inactive)
REMARK    1  A    between atoms: C_1  and  C_2
REMARK    2  A    between atoms: C_2  and  C_3
REMARK    3  A    between atoms: C_2  and  N_16
REMARK    4  A    between atoms: C_3  and  C_4
REMARK    5  A    between atoms: C_8  and  C_9
REMARK    6  A    between atoms: C_20  and  C_21
REMARK                            x       y       z     vdW  Elec       q    Type
REMARK                         _______ _______ _______ _____ _____    ______ ____
ROOT
ATOM      1  C   UNL     1      42.825   5.123  10.968  0.00  0.00    +0.000 C 
ATOM      2  C   UNL     1      44.330   5.289  11.218  0.00  0.00    +0.000 C 
ENDROOT
BRANCH   2   3
ATOM      3  N   UNL     1      45.002   5.527   9.927  0.00  0.00    +0.000 N 
ATOM      4  C   UNL     1      45.444   4.381   9.246  0.00  0.00    +0.000 A 
ATOM      5  C   UNL     1      46.028   4.541   7.991  0.00  0.00    +0.000 A 
ATOM      6  C   UNL     1      46.481   3.419   7.292  0.00  0.00    +0.000 A 
ATOM      7  C   UNL     1      46.346   2.150   7.856  0.00  0.00    +0.000 A 
ATOM      8  C   UNL     1      45.742   2.082   9.099  0.00  0.00    +0.000 A 
ATOM      9  N   UNL     1      45.290   3.159   9.790  0.00  0.00    +0.000 NA
ATOM     10  H   UNL     1      45.781   6.176   9.997  0.00  0.00    +0.000 HD
BRANCH   7  11
ATOM     11  C   UNL     1      46.840   0.963   7.121  0.00  0.00    +0.000 C 
ATOM     12  N   UNL     1      46.776  -0.267   7.709  0.00  0.00    +0.000 N 
ATOM     13  O   UNL     1      47.312   1.076   5.995  0.00  0.00    +0.000 OA
ATOM     14  H   UNL     1      46.416  -0.469   8.627  0.00  0.00    +0.000 HD
ATOM     15  H   UNL     1      47.131  -1.042   7.165  0.00  0.00    +0.000 HD
ENDBRANCH   7  11
ENDBRANCH   2   3
BRANCH   2  16
ATOM     16  C   UNL     1      44.617   6.471  12.176  0.00  0.00    +0.000 C 
BRANCH  16  17
ATOM     17  C   UNL     1      46.024   6.484  12.735  0.00  0.00    +0.000 A 
ATOM     18  C   UNL     1      47.018   7.294  12.170  0.00  0.00    +0.000 A 
ATOM     19  C   UNL     1      48.319   7.256  12.660  0.00  0.00    +0.000 A 
ATOM     20  C   UNL     1      48.626   6.455  13.758  0.00  0.00    +0.000 A 
ATOM     21  C   UNL     1      47.637   5.702  14.416  0.00  0.00    +0.000 A 
ATOM     22  C   UNL     1      46.345   5.700  13.857  0.00  0.00    +0.000 A 
BRANCH  21  23
ATOM     23  C   UNL     1      47.919   5.038  15.709  0.00  0.00    +0.000 A 
ATOM     24  C   UNL     1      47.345   3.782  15.994  0.00  0.00    +0.000 A 
ATOM     25  C   UNL     1      47.660   3.074  17.157  0.00  0.00    +0.000 A 
ATOM     26  C   UNL     1      48.567   3.606  18.064  0.00  0.00    +0.000 A 
ATOM     27  C   UNL     1      49.140   4.852  17.817  0.00  0.00    +0.000 A 
ATOM     28  C   UNL     1      48.813   5.565  16.657  0.00  0.00    +0.000 A 
ENDBRANCH  21  23
ENDBRANCH  16  17
ENDBRANCH   2  16
TORSDOF 5
ENDMDL
MODEL 7
REMARK VINA RESULT:    -6.398      2.835      5.130
REMARK INTER + INTRA:          -9.168
REMARK INTER:                  -7.989
REMARK INTRA:                  -1.179
REMARK UNBOUND:                -0.900
REMARK  Name = 
REMARK  6 active torsions:
REMARK  status: ('A' for Active; 'I' for Inactive)
REMARK    1  A    between atoms: C_1  and  C_2
REMARK    2  A    between atoms: C_2  and  C_3
REMARK    3  A    between atoms: C_2  and  N_16
REMARK    4  A    between atoms: C_3  and  C_4
REMARK    5  A    between atoms: C_8  and  C_9
REMARK    6  A    between atoms: C_20  and  C_21
REMARK                            x       y       z     vdW  Elec       q    Type
REMARK                         _______ _______ _______ _____ _____    ______ ____
ROOT
ATOM      1  C   UNL     1      48.310   9.026  19.391  0.00  0.00    +0.000 C 
ATOM      2  C   UNL     1      48.621   8.292  18.080  0.00  0.00    +0.000 C 
ENDROOT
BRANCH   2   3
ATOM      3  N   UNL     1      47.738   7.115  17.975  0.00  0.00    +0.000 N 
ATOM      4  C   UNL     1      48.378   5.887  17.745  0.00  0.00    +0.000 A 
ATOM      5  C   UNL     1      47.599   4.732  17.700  0.00  0.00    +0.000 A 
ATOM      6  C   UNL     1      48.209   3.497  17.469  0.00  0.00    +0.000 A 
ATOM      7  C   UNL     1      49.590   3.428  17.284  0.00  0.00    +0.000 A 
ATOM      8  C   UNL     1      50.287   4.621  17.358  0.00  0.00    +0.000 A 
ATOM      9  N   UNL     1      49.714   5.830  17.587  0.00  0.00    +0.000 NA
ATOM     10  H   UNL     1      47.006   7.228  17.278  0.00  0.00    +0.000 HD
BRANCH   7  11
ATOM     11  C   UNL     1      50.233   2.120  17.024  0.00  0.00    +0.000 C 
ATOM     12  N   UNL     1      51.070   1.585  17.959  0.00  0.00    +0.000 N 
ATOM     13  O   UNL     1      50.027   1.518  15.976  0.00  0.00    +0.000 OA
ATOM     14  H   UNL     1      51.313   1.997  18.845  0.00  0.00    +0.000 HD
ATOM     15  H   UNL     1      51.486   0.693  17.730  0.00  0.00    +0.000 HD
ENDBRANCH   7  11
ENDBRANCH   2   3
BRANCH   2  16
ATOM     16  C   UNL     1      48.408   9.210  16.852  0.00  0.00    +0.000 C 
BRANCH  16  17
ATOM     17  C   UNL     1      48.806   8.581  15.533  0.00  0.00    +0.000 A 
ATOM     18  C   UNL     1      50.123   8.661  15.063  0.00  0.00    +0.000 A 
ATOM     19  C   UNL     1      50.463   8.125  13.826  0.00  0.00    +0.000 A 
ATOM     20  C   UNL     1      49.503   7.449  13.074  0.00  0.00    +0.000 A 
ATOM     21  C   UNL     1      48.195   7.261  13.553  0.00  0.00    +0.000 A 
ATOM     22  C   UNL     1      47.857   7.875  14.773  0.00  0.00    +0.000 A 
BRANCH  21  23
ATOM     23  C   UNL     1      47.253   6.353  12.859  0.00  0.00    +0.000 A 
ATOM     24  C   UNL     1      46.815   5.174  13.497  0.00  0.00    +0.000 A 
ATOM     25  C   UNL     1      45.852   4.339  12.924  0.00  0.00    +0.000 A 
ATOM     26  C   UNL     1      45.297   4.670  11.695  0.00  0.00    +0.000 A 
ATOM     27  C   UNL     1      45.720   5.820  11.033  0.00  0.00    +0.000 A 
ATOM     28  C   UNL     1      46.694   6.649  11.604  0.00  0.00    +0.000 A 
ENDBRANCH  21  23
ENDBRANCH  16  17
ENDBRANCH   2  16
TORSDOF 5
ENDMDL
MODEL 8
REMARK VINA RESULT:    -6.384      3.434      7.951
REMARK INTER + INTRA:          -9.150
REMARK INTER:                  -8.511
REMARK INTRA:                  -0.639
REMARK UNBOUND:                -0.900
REMARK  Name = 
REMARK  6 active torsions:
REMARK  status: ('A' for Active; 'I' for Inactive)
REMARK    1  A    between atoms: C_1  and  C_2
REMARK    2  A    between atoms: C_2  and  C_3
REMARK    3  A    between atoms: C_2  and  N_16
REMARK    4  A    between atoms: C_3  and  C_4
REMARK    5  A    between atoms: C_8  and  C_9
REMARK    6  A    between atoms: C_20  and  C_21
REMARK                            x       y       z     vdW  Elec       q    Type
REMARK                         _______ _______ _______ _____ _____    ______ ____
ROOT
ATOM      1  C   UNL     1      49.633   7.428  13.714  0.00  0.00    +0.000 C 
ATOM      2  C   UNL     1      48.475   7.310  14.714  0.00  0.00    +0.000 C 
ENDROOT
BRANCH   2   3
ATOM      3  N   UNL     1      47.870   5.971  14.584  0.00  0.00    +0.000 N 
ATOM      4  C   UNL     1      46.731   5.890  13.768  0.00  0.00    +0.000 A 
ATOM      5  C   UNL     1      46.155   4.639  13.557  0.00  0.00    +0.000 A 
ATOM      6  C   UNL     1      45.018   4.529  12.752  0.00  0.00    +0.000 A 
ATOM      7  C   UNL     1      44.468   5.670  12.169  0.00  0.00    +0.000 A 
ATOM      8  C   UNL     1      45.111   6.869  12.420  0.00  0.00    +0.000 A 
ATOM      9  N   UNL     1      46.220   6.996  13.193  0.00  0.00    +0.000 NA
ATOM     10  H   UNL     1      47.651   5.545  15.480  0.00  0.00    +0.000 HD
BRANCH   7  11
ATOM     11  C   UNL     1      43.254   5.554  11.329  0.00  0.00    +0.000 C 
ATOM     12  N   UNL     1      42.089   6.129  11.747  0.00  0.00    +0.000 N 
ATOM     13  O   UNL     1      43.284   4.941  10.267  0.00  0.00    +0.000 OA
ATOM     14  H   UNL     1      41.954   6.645  12.600  0.00  0.00    +0.000 HD
ATOM     15  H   UNL     1      41.290   6.015  11.138  0.00  0.00    +0.000 HD
ENDBRANCH   7  11
ENDBRANCH   2   3
BRANCH   2  16
ATOM     16  C   UNL     1      48.960   7.519  16.169  0.00  0.00    +0.000 C 
BRANCH  16  17
ATOM     17  C   UNL     1      48.914   6.268  17.021  0.00  0.00    +0.000 A 
ATOM     18  C   UNL     1      47.758   5.918  17.730  0.00  0.00    +0.000 A 
ATOM     19  C   UNL     1      47.748   4.796  18.550  0.00  0.00    +0.000 A 
ATOM     20  C   UNL     1      48.874   3.977  18.623  0.00  0.00    +0.000 A 
ATOM     21  C   UNL     1      50.021   4.238  17.853  0.00  0.00    +0.000 A 
ATOM     22  C   UNL     1      50.033   5.419  17.088  0.00  0.00    +0.000 A 
BRANCH  21  23
ATOM     23  C   UNL     1      51.118   3.247  17.761  0.00  0.00    +0.000 A 
ATOM     24  C   UNL     1      52.424   3.607  18.151  0.00  0.00    +0.000 A 
ATOM     25  C   UNL     1      53.469   2.679  18.175  0.00  0.00    +0.000 A 
ATOM     26  C   UNL     1      53.228   1.360  17.813  0.00  0.00    +0.000 A 
ATOM     27  C   UNL     1      51.951   0.978  17.408  0.00  0.00    +0.000 A 
ATOM     28  C   UNL     1      50.908   1.912  17.373  0.00  0.00    +0.000 A 
ENDBRANCH  21  23
ENDBRANCH  16  17
ENDBRANCH   2  16
TORSDOF 5
ENDMDL
MODEL 9
REMARK VINA RESULT:    -6.276      3.962      9.531
REMARK INTER + INTRA:          -9.010
REMARK INTER:                  -8.541
REMARK INTRA:                  -0.469
REMARK UNBOUND:                -0.900
REMARK  Name = 
REMARK  6 active torsions:
REMARK  status: ('A' for Active; 'I' for Inactive)
REMARK    1  A    between atoms: C_1  and  C_2
REMARK    2  A    between atoms: C_2  and  C_3
REMARK    3  A    between atoms: C_2  and  N_16
REMARK    4  A    between atoms: C_3  and  C_4
REMARK    5  A    between atoms: C_8  and  C_9
REMARK    6  A    between atoms: C_20  and  C_21
REMARK                            x       y       z     vdW  Elec       q    Type
REMARK                         _______ _______ _______ _____ _____    ______ ____
ROOT
ATOM      1  C   UNL     1      46.974   3.748  17.150  0.00  0.00    +0.000 C 
ATOM      2  C   UNL     1      48.027   4.367  16.221  0.00  0.00    +0.000 C 
ENDROOT
BRANCH   2   3
ATOM      3  N   UNL     1      47.377   5.396  15.387  0.00  0.00    +0.000 N 
ATOM      4  C   UNL     1      46.684   4.924  14.261  0.00  0.00    +0.000 A 
ATOM      5  C   UNL     1      45.997   5.844  13.472  0.00  0.00    +0.000 A 
ATOM      6  C   UNL     1      45.302   5.403  12.343  0.00  0.00    +0.000 A 
ATOM      7  C   UNL     1      45.302   4.048  12.014  0.00  0.00    +0.000 A 
ATOM      8  C   UNL     1      45.999   3.202  12.859  0.00  0.00    +0.000 A 
ATOM      9  N   UNL     1      46.674   3.610  13.964  0.00  0.00    +0.000 NA
ATOM     10  H   UNL     1      48.016   6.125  15.085  0.00  0.00    +0.000 HD
BRANCH   7  11
ATOM     11  C   UNL     1      44.578   3.584  10.809  0.00  0.00    +0.000 C 
ATOM     12  N   UNL     1      44.892   2.375  10.259  0.00  0.00    +0.000 N 
ATOM     13  O   UNL     1      43.706   4.277  10.297  0.00  0.00    +0.000 OA
ATOM     14  H   UNL     1      45.593   1.734  10.593  0.00  0.00    +0.000 HD
ATOM     15  H   UNL     1      44.371   2.109   9.435  0.00  0.00    +0.000 HD
ENDBRANCH   7  11
ENDBRANCH   2   3
BRANCH   2  16
ATOM     16  C   UNL     1      49.184   5.009  17.025  0.00  0.00    +0.000 C 
BRANCH  16  17
ATOM     17  C   UNL     1      48.849   5.286  18.476  0.00  0.00    +0.000 A 
ATOM     18  C   UNL     1      49.192   4.376  19.483  0.00  0.00    +0.000 A 
ATOM     19  C   UNL     1      48.831   4.619  20.803  0.00  0.00    +0.000 A 
ATOM     20  C   UNL     1      48.176   5.803  21.140  0.00  0.00    +0.000 A 
ATOM     21  C   UNL     1      47.901   6.787  20.174  0.00  0.00    +0.000 A 
ATOM     22  C   UNL     1      48.211   6.486  18.835  0.00  0.00    +0.000 A 
BRANCH  21  23
ATOM     23  C   UNL     1      47.416   8.130  20.571  0.00  0.00    +0.000 A 
ATOM     24  C   UNL     1      47.201   9.118  19.589  0.00  0.00    +0.000 A 
ATOM     25  C   UNL     1      46.652  10.363  19.903  0.00  0.00    +0.000 A 
ATOM     26  C   UNL     1      46.298  10.649  21.215  0.00  0.00    +0.000 A 
ATOM     27  C   UNL     1      46.513   9.698  22.211  0.00  0.00    +0.000 A 
ATOM     28  C   UNL     1      47.074   8.455  21.895  0.00  0.00    +0.000 A 
ENDBRANCH  21  23
ENDBRANCH  16  17
ENDBRANCH   2  16
TORSDOF 5
ENDMDL
