MODEL 1
REMARK VINA RESULT:    -7.230      0.000      0.000
REMARK INTER + INTRA:          -9.115
REMARK INTER:                  -8.498
REMARK INTRA:                  -0.617
REMARK UNBOUND:                -0.617
REMARK  Name = 
REMARK  3 active torsions:
REMARK  status: ('A' for Active; 'I' for Inactive)
REMARK    1  A    between atoms: N_5  and  C_6
REMARK    2  A    between atoms: C_6  and  C_7
REMARK    3  A    between atoms: C_11  and  N_12
REMARK                            x       y       z     vdW  Elec       q    Type
REMARK                         _______ _______ _______ _____ _____    ______ ____
ROOT
ATOM      1  C   UNL     1      45.361   4.330  11.927  0.00  0.00    +0.000 A 
ATOM      2  C   UNL     1      45.772   3.338  12.815  0.00  0.00    +0.000 A 
ATOM      3  N   UNL     1      46.735   3.487  13.752  0.00  0.00    +0.000 NA
ATOM      4  C   UNL     1      47.312   4.709  13.820  0.00  0.00    +0.000 A 
ATOM      5  C   UNL     1      47.020   5.799  12.992  0.00  0.00    +0.000 A 
ATOM      6  C   UNL     1      46.046   5.554  12.019  0.00  0.00    +0.000 A 
ENDROOT
BRANCH   5   7
ATOM      7  N   UNL     1      47.621   7.031  13.153  0.00  0.00    +0.000 N 
ATOM      8  C   UNL     1      46.851   8.269  13.346  0.00  0.00    +0.000 C 
ATOM      9  C   UNL     1      47.129   9.283  12.217  0.00  0.00    +0.000 C 
ATOM     10  N   UNL     1      48.569   9.533  11.986  0.00  0.00    +0.000 NA
ATOM     11  C   UNL     1      49.230   8.239  11.713  0.00  0.00    +0.000 C 
ATOM     12  C   UNL     1      49.048   7.201  12.845  0.00  0.00    +0.000 C 
ATOM     13  H   UNL     1      48.963   9.906  12.850  0.00  0.00    +0.000 HD
ENDBRANCH   5   7
BRANCH   1  14
ATOM     14  C   UNL     1      44.196   4.140  10.964  0.00  0.00    +0.000 C 
ATOM     15  C   UNL     1      42.782   4.299  11.519  0.00  0.00    +0.000 C 
ATOM     16  C   UNL     1      43.365   5.378  10.673  0.00  0.00    +0.000 C 
BRANCH  14  21
ATOM     17  C   UNL     1      47.021   2.571   6.952  0.00  0.00    +0.000 A 
ATOM     18  C   UNL     1      46.588   1.538   7.742  0.00  0.00    +0.000 A 
ATOM     19  N   UNL     1      45.731   1.697   8.766  0.00  0.00    +0.000 NA
ATOM     20  C   UNL     1      45.312   2.948   9.034  0.00  0.00    +0.000 A 
ATOM     21  N   UNL     1      44.340   3.021  10.033  0.00  0.00    +0.000 N 
ATOM     22  N   UNL     1      45.702   4.025   8.347  0.00  0.00    +0.000 NA
ATOM     23  C   UNL     1      46.537   3.811   7.304  0.00  0.00    +0.000 A 
ATOM     24  H   UNL     1      44.272   2.080  10.411  0.00  0.00    +0.000 HD
ENDBRANCH  14  21
ENDBRANCH   1  14
TORSDOF 3
ENDMDL
MODEL 2
REMARK VINA RESULT:    -6.120      2.580      7.324
REMARK INTER + INTRA:          -7.811
REMARK INTER:                  -7.234
REMARK INTRA:                  -0.577
REMARK UNBOUND:                -0.617
REMARK  Name = 
REMARK  3 active torsions:
REMARK  status: ('A' for Active; 'I' for Inactive)
REMARK    1  A    between atoms: N_5  and  C_6
REMARK    2  A    between atoms: C_6  and  C_7
REMARK    3  A    between atoms: C_11  and  N_12
REMARK                            x       y       z     vdW  Elec       q    Type
REMARK                         _______ _______ _______ _____ _____    ______ ____
ROOT
ATOM      1  C   UNL     1      47.945   8.013  12.329  0.00  0.00    +0.000 A 
ATOM      2  C   UNL     1      47.100   9.121  12.311  0.00  0.00    +0.000 A 
ATOM      3  N   UNL     1      45.759   9.072  12.148  0.00  0.00    +0.000 NA
ATOM      4  C   UNL     1      45.224   7.836  12.013  0.00  0.00    +0.000 A 
ATOM      5  C   UNL     1      45.938   6.633  11.997  0.00  0.00    +0.000 A 
ATOM      6  C   UNL     1      47.323   6.769  12.125  0.00  0.00    +0.000 A 
ENDROOT
BRANCH   5   7
ATOM      7  N   UNL     1      45.314   5.405  11.901  0.00  0.00    +0.000 N 
ATOM      8  C   UNL     1      45.134   4.705  10.621  0.00  0.00    +0.000 C 
ATOM      9  C   UNL     1      43.640   4.483  10.308  0.00  0.00    +0.000 C 
ATOM     10  N   UNL     1      42.891   3.852  11.417  0.00  0.00    +0.000 NA
ATOM     11  C   UNL     1      43.062   4.681  12.629  0.00  0.00    +0.000 C 
ATOM     12  C   UNL     1      44.541   4.880  13.036  0.00  0.00    +0.000 C 
ATOM     13  H   UNL     1      43.314   2.942  11.601  0.00  0.00    +0.000 HD
ENDBRANCH   5   7
BRANCH   1  14
ATOM     14  C   UNL     1      49.435   8.121  12.625  0.00  0.00    +0.000 C 
ATOM     15  C   UNL     1      50.393   8.179  11.438  0.00  0.00    +0.000 C 
ATOM     16  C   UNL     1      50.104   9.420  12.208  0.00  0.00    +0.000 C 
BRANCH  14  21
ATOM     17  C   UNL     1      48.709   7.264  17.653  0.00  0.00    +0.000 A 
ATOM     18  C   UNL     1      49.064   6.135  16.960  0.00  0.00    +0.000 A 
ATOM     19  N   UNL     1      49.430   6.145  15.667  0.00  0.00    +0.000 NA
ATOM     20  C   UNL     1      49.409   7.328  15.026  0.00  0.00    +0.000 A 
ATOM     21  N   UNL     1      49.909   7.278  13.724  0.00  0.00    +0.000 N 
ATOM     22  N   UNL     1      49.047   8.478  15.601  0.00  0.00    +0.000 NA
ATOM     23  C   UNL     1      48.720   8.425  16.912  0.00  0.00    +0.000 A 
ATOM     24  H   UNL     1      50.061   6.292  13.531  0.00  0.00    +0.000 HD
ENDBRANCH  14  21
ENDBRANCH   1  14
TORSDOF 3
ENDMDL
MODEL 3
REMARK VINA RESULT:    -5.575      3.559      5.573
REMARK INTER + INTRA:          -7.170
REMARK INTER:                  -6.955
REMARK INTRA:                  -0.214
REMARK UNBOUND:                -0.617
REMARK  Name = 
REMARK  3 active torsions:
REMARK  status: ('A' for Active; 'I' for Inactive)
REMARK    1  A    between atoms: N_5  and  C_6
REMARK    2  A    between atoms: C_6  and  C_7
REMARK    3  A    between atoms: C_11  and  N_12
REMARK                            x       y       z     vdW  Elec       q    Type
REMARK                         _______ _______ _______ _____ _____    ______ ____
ROOT
ATOM      1  C   UNL     1      47.618   5.237  14.597  0.00  0.00    +0.000 A 
ATOM      2  C   UNL     1      47.517   3.878  14.304  0.00  0.00    +0.000 A 
ATOM      3  N   UNL     1      47.681   2.877  15.197  0.00  0.00    +0.000 NA
ATOM      4  C   UNL     1      47.945   3.257  16.470  0.00  0.00    +0.000 A 
ATOM      5  C   UNL     1      48.090   4.574  16.917  0.00  0.00    +0.000 A 
ATOM      6  C   UNL     1      47.951   5.551  15.926  0.00  0.00    +0.000 A 
ENDROOT
BRANCH   5   7
ATOM      7  N   UNL     1      48.314   4.884  18.244  0.00  0.00    +0.000 N 
ATOM      8  C   UNL     1      47.388   5.708  19.032  0.00  0.00    +0.000 C 
ATOM      9  C   UNL     1      48.076   6.989  19.548  0.00  0.00    +0.000 C 
ATOM     10  N   UNL     1      49.354   6.733  20.248  0.00  0.00    +0.000 NA
ATOM     11  C   UNL     1      50.244   5.981  19.338  0.00  0.00    +0.000 C 
ATOM     12  C   UNL     1      49.636   4.648  18.842  0.00  0.00    +0.000 C 
ATOM     13  H   UNL     1      49.155   6.135  21.051  0.00  0.00    +0.000 HD
ENDBRANCH   5   7
BRANCH   1  14
ATOM     14  C   UNL     1      47.316   6.323  13.573  0.00  0.00    +0.000 C 
ATOM     15  C   UNL     1      48.191   7.574  13.585  0.00  0.00    +0.000 C 
ATOM     16  C   UNL     1      48.382   6.555  12.515  0.00  0.00    +0.000 C 
BRANCH  14  21
ATOM     17  C   UNL     1      43.097   4.351  11.372  0.00  0.00    +0.000 A 
ATOM     18  C   UNL     1      42.824   5.077  12.502  0.00  0.00    +0.000 A 
ATOM     19  N   UNL     1      43.752   5.790  13.166  0.00  0.00    +0.000 NA
ATOM     20  C   UNL     1      45.014   5.750  12.700  0.00  0.00    +0.000 A 
ATOM     21  N   UNL     1      45.894   6.601  13.369  0.00  0.00    +0.000 N 
ATOM     22  N   UNL     1      45.388   5.046  11.628  0.00  0.00    +0.000 NA
ATOM     23  C   UNL     1      44.415   4.373  10.973  0.00  0.00    +0.000 A 
ATOM     24  H   UNL     1      45.367   6.969  14.156  0.00  0.00    +0.000 HD
ENDBRANCH  14  21
ENDBRANCH   1  14
TORSDOF 3
ENDMDL
MODEL 4
REMARK VINA RESULT:    -5.533      2.538      6.562
REMARK INTER + INTRA:          -7.120
REMARK INTER:                  -6.807
REMARK INTRA:                  -0.312
REMARK UNBOUND:                -0.617
REMARK  Name = 
REMARK  3 active torsions:
REMARK  status: ('A' for Active; 'I' for Inactive)
REMARK    1  A    between atoms: N_5  and  C_6
REMARK    2  A    between atoms: C_6  and  C_7
REMARK    3  A    between atoms: C_11  and  N_12
REMARK                            x       y       z     vdW  Elec       q    Type
REMARK                         _______ _______ _______ _____ _____    ______ ____
ROOT
ATOM      1  C   UNL     1      47.823   7.428  12.949  0.00  0.00    +0.000 A 
ATOM      2  C   UNL     1      48.276   6.783  14.099  0.00  0.00    +0.000 A 
ATOM      3  N   UNL     1      47.859   5.570  14.523  0.00  0.00    +0.000 NA
ATOM      4  C   UNL     1      46.942   4.952  13.741  0.00  0.00    +0.000 A 
ATOM      5  C   UNL     1      46.381   5.473  12.570  0.00  0.00    +0.000 A 
ATOM      6  C   UNL     1      46.830   6.750  12.221  0.00  0.00    +0.000 A 
ENDROOT
BRANCH   5   7
ATOM      7  N   UNL     1      45.484   4.760  11.800  0.00  0.00    +0.000 N 
ATOM      8  C   UNL     1      44.592   5.403  10.825  0.00  0.00    +0.000 C 
ATOM      9  C   UNL     1      43.109   5.159  11.175  0.00  0.00    +0.000 C 
ATOM     10  N   UNL     1      42.781   3.734  11.400  0.00  0.00    +0.000 NA
ATOM     11  C   UNL     1      43.670   3.211  12.460  0.00  0.00    +0.000 C 
ATOM     12  C   UNL     1      45.175   3.363  12.133  0.00  0.00    +0.000 C 
ATOM     13  H   UNL     1      42.991   3.226  10.541  0.00  0.00    +0.000 HD
ENDBRANCH   5   7
BRANCH   1  14
ATOM     14  C   UNL     1      48.409   8.746  12.462  0.00  0.00    +0.000 C 
ATOM     15  C   UNL     1      47.459   9.930  12.297  0.00  0.00    +0.000 C 
ATOM     16  C   UNL     1      48.390   9.892  13.459  0.00  0.00    +0.000 C 
BRANCH  14  21
ATOM     17  C   UNL     1      53.441   7.994  11.650  0.00  0.00    +0.000 A 
ATOM     18  C   UNL     1      52.652   7.468  10.660  0.00  0.00    +0.000 A 
ATOM     19  N   UNL     1      51.322   7.657  10.595  0.00  0.00    +0.000 NA
ATOM     20  C   UNL     1      50.749   8.375  11.578  0.00  0.00    +0.000 A 
ATOM     21  N   UNL     1      49.390   8.625  11.382  0.00  0.00    +0.000 N 
ATOM     22  N   UNL     1      51.424   8.901  12.603  0.00  0.00    +0.000 NA
ATOM     23  C   UNL     1      52.764   8.714  12.609  0.00  0.00    +0.000 A 
ATOM     24  H   UNL     1      49.130   8.075  10.568  0.00  0.00    +0.000 HD
ENDBRANCH  14  21
ENDBRANCH   1  14
TORSDOF 3
ENDMDL
MODEL 5
REMARK VINA RESULT:    -5.514      3.489      7.694
REMARK INTER + INTRA:          -7.098
REMARK INTER:                  -7.079
REMARK INTRA:                  -0.019
REMARK UNBOUND:                -0.617
REMARK  Name = 
REMARK  3 active torsions:
REMARK  status: ('A' for Active; 'I' for Inactive)
REMARK    1  A    between atoms: N_5  and  C_6
REMARK    2  A    between atoms: C_6  and  C_7
REMARK    3  A    between atoms: C_11  and  N_12
REMARK                            x       y       z     vdW  Elec       q    Type
REMARK                         _______ _______ _______ _____ _____    ______ ____
ROOT
ATOM      1  C   UNL     1      47.685   5.264  15.039  0.00  0.00    +0.000 A 
ATOM      2  C   UNL     1      48.100   6.543  14.673  0.00  0.00    +0.000 A 
ATOM      3  N   UNL     1      47.757   7.172  13.528  0.00  0.00    +0.000 NA
ATOM      4  C   UNL     1      46.931   6.489  12.701  0.00  0.00    +0.000 A 
ATOM      5  C   UNL     1      46.442   5.196  12.919  0.00  0.00    +0.000 A 
ATOM      6  C   UNL     1      46.876   4.595  14.104  0.00  0.00    +0.000 A 
ENDROOT
BRANCH   5   7
ATOM      7  N   UNL     1      45.564   4.582  12.048  0.00  0.00    +0.000 N 
ATOM      8  C   UNL     1      44.794   5.327  11.042  0.00  0.00    +0.000 C 
ATOM      9  C   UNL     1      43.276   5.168  11.266  0.00  0.00    +0.000 C 
ATOM     10  N   UNL     1      42.841   3.759  11.394  0.00  0.00    +0.000 NA
ATOM     11  C   UNL     1      43.609   3.130  12.490  0.00  0.00    +0.000 C 
ATOM     12  C   UNL     1      45.141   3.194  12.286  0.00  0.00    +0.000 C 
ATOM     13  H   UNL     1      43.085   3.278  10.528  0.00  0.00    +0.000 HD
ENDBRANCH   5   7
BRANCH   1  14
ATOM     14  C   UNL     1      48.015   4.649  16.392  0.00  0.00    +0.000 C 
ATOM     15  C   UNL     1      46.919   3.854  17.099  0.00  0.00    +0.000 C 
ATOM     16  C   UNL     1      48.044   3.130  16.443  0.00  0.00    +0.000 C 
BRANCH  14  21
ATOM     17  C   UNL     1      52.866   5.708  17.765  0.00  0.00    +0.000 A 
ATOM     18  C   UNL     1      52.035   6.796  17.842  0.00  0.00    +0.000 A 
ATOM     19  N   UNL     1      50.705   6.726  17.658  0.00  0.00    +0.000 NA
ATOM     20  C   UNL     1      50.184   5.524  17.352  0.00  0.00    +0.000 A 
ATOM     21  N   UNL     1      48.790   5.507  17.289  0.00  0.00    +0.000 N 
ATOM     22  N   UNL     1      50.912   4.411  17.220  0.00  0.00    +0.000 NA
ATOM     23  C   UNL     1      52.240   4.523  17.447  0.00  0.00    +0.000 A 
ATOM     24  H   UNL     1      48.505   6.478  17.377  0.00  0.00    +0.000 HD
ENDBRANCH  14  21
ENDBRANCH   1  14
TORSDOF 3
ENDMDL
MODEL 6
REMARK VINA RESULT:    -5.501      3.954      7.508
REMARK INTER + INTRA:          -7.083
REMARK INTER:                  -6.711
REMARK INTRA:                  -0.372
REMARK UNBOUND:                -0.617
REMARK  Name = 
REMARK  3 active torsions:
REMARK  status: ('A' for Active; 'I' for Inactive)
REMARK    1  A    between atoms: N_5  and  C_6
REMARK    2  A    between atoms: C_6  and  C_7
REMARK    3  A    between atoms: C_11  and  N_12
REMARK                            x       y       z     vdW  Elec       q    Type
REMARK                         _______ _______ _______ _____ _____    ______ ____
ROOT
ATOM      1  C   UNL     1      48.231   5.392  15.876  0.00  0.00    +0.000 A 
ATOM      2  C   UNL     1      49.047   6.482  15.577  0.00  0.00    +0.000 A 
ATOM      3  N   UNL     1      49.035   7.163  14.410  0.00  0.00    +0.000 NA
ATOM      4  C   UNL     1      48.139   6.742  13.487  0.00  0.00    +0.000 A 
ATOM      5  C   UNL     1      47.265   5.659  13.630  0.00  0.00    +0.000 A 
ATOM      6  C   UNL     1      47.368   4.977  14.847  0.00  0.00    +0.000 A 
ENDROOT
BRANCH   5   7
ATOM      7  N   UNL     1      46.345   5.318  12.659  0.00  0.00    +0.000 N 
ATOM      8  C   UNL     1      46.063   6.175  11.499  0.00  0.00    +0.000 C 
ATOM      9  C   UNL     1      44.584   6.615  11.474  0.00  0.00    +0.000 C 
ATOM     10  N   UNL     1      43.630   5.491  11.602  0.00  0.00    +0.000 NA
ATOM     11  C   UNL     1      43.943   4.751  12.844  0.00  0.00    +0.000 C 
ATOM     12  C   UNL     1      45.395   4.221  12.897  0.00  0.00    +0.000 C 
ATOM     13  H   UNL     1      43.786   4.859  10.817  0.00  0.00    +0.000 HD
ENDBRANCH   5   7
BRANCH   1  14
ATOM     14  C   UNL     1      48.212   4.731  17.247  0.00  0.00    +0.000 C 
ATOM     15  C   UNL     1      47.045   5.057  18.177  0.00  0.00    +0.000 C 
ATOM     16  C   UNL     1      47.090   3.736  17.490  0.00  0.00    +0.000 C 
BRANCH  14  21
ATOM     17  C   UNL     1      52.470   1.852  17.584  0.00  0.00    +0.000 A 
ATOM     18  C   UNL     1      52.710   3.190  17.761  0.00  0.00    +0.000 A 
ATOM     19  N   UNL     1      51.736   4.112  17.845  0.00  0.00    +0.000 NA
ATOM     20  C   UNL     1      50.466   3.686  17.714  0.00  0.00    +0.000 A 
ATOM     21  N   UNL     1      49.507   4.677  17.926  0.00  0.00    +0.000 N 
ATOM     22  N   UNL     1      50.129   2.410  17.505  0.00  0.00    +0.000 NA
ATOM     23  C   UNL     1      51.141   1.513  17.463  0.00  0.00    +0.000 A 
ATOM     24  H   UNL     1      50.031   5.544  18.012  0.00  0.00    +0.000 HD
ENDBRANCH  14  21
ENDBRANCH   1  14
TORSDOF 3
ENDMDL
MODEL 7
REMARK VINA RESULT:    -5.476      3.816      8.122
REMARK INTER + INTRA:          -7.054
REMARK INTER:                  -6.937
REMARK INTRA:                  -0.117
REMARK UNBOUND:                -0.617
REMARK  Name = 
REMARK  3 active torsions:
REMARK  status: ('A' for Active; 'I' for Inactive)
REMARK    1  A    between atoms: N_5  and  C_6
REMARK    2  A    between atoms: C_6  and  C_7
REMARK    3  A    between atoms: C_11  and  N_12
REMARK                            x       y       z     vdW  Elec       q    Type
REMARK                         _______ _______ _______ _____ _____    ______ ____
ROOT
ATOM      1  C   UNL     1      47.578   4.883  15.645  0.00  0.00    +0.000 A 
ATOM      2  C   UNL     1      48.464   5.779  15.049  0.00  0.00    +0.000 A 
ATOM      3  N   UNL     1      48.325   6.300  13.810  0.00  0.00    +0.000 NA
ATOM      4  C   UNL     1      47.221   5.916  13.127  0.00  0.00    +0.000 A 
ATOM      5  C   UNL     1      46.249   5.017  13.581  0.00  0.00    +0.000 A 
ATOM      6  C   UNL     1      46.486   4.487  14.853  0.00  0.00    +0.000 A 
ENDROOT
BRANCH   5   7
ATOM      7  N   UNL     1      45.124   4.710  12.842  0.00  0.00    +0.000 N 
ATOM      8  C   UNL     1      45.117   3.667  11.806  0.00  0.00    +0.000 C 
ATOM      9  C   UNL     1      44.768   4.254  10.422  0.00  0.00    +0.000 C 
ATOM     10  N   UNL     1      43.536   5.073  10.420  0.00  0.00    +0.000 NA
ATOM     11  C   UNL     1      43.685   6.145  11.429  0.00  0.00    +0.000 C 
ATOM     12  C   UNL     1      43.965   5.614  12.855  0.00  0.00    +0.000 C 
ATOM     13  H   UNL     1      42.764   4.476  10.714  0.00  0.00    +0.000 HD
ENDBRANCH   5   7
BRANCH   1  14
ATOM     14  C   UNL     1      47.728   4.414  17.086  0.00  0.00    +0.000 C 
ATOM     15  C   UNL     1      47.363   2.966  17.404  0.00  0.00    +0.000 C 
ATOM     16  C   UNL     1      48.797   3.363  17.335  0.00  0.00    +0.000 C 
BRANCH  14  21
ATOM     17  C   UNL     1      49.345   8.499  19.777  0.00  0.00    +0.000 A 
ATOM     18  C   UNL     1      48.003   8.534  19.501  0.00  0.00    +0.000 A 
ATOM     19  N   UNL     1      47.339   7.516  18.926  0.00  0.00    +0.000 NA
ATOM     20  C   UNL     1      48.051   6.427  18.582  0.00  0.00    +0.000 A 
ATOM     21  N   UNL     1      47.278   5.371  18.098  0.00  0.00    +0.000 N 
ATOM     22  N   UNL     1      49.367   6.308  18.777  0.00  0.00    +0.000 NA
ATOM     23  C   UNL     1      49.986   7.343  19.390  0.00  0.00    +0.000 A 
ATOM     24  H   UNL     1      46.337   5.745  18.008  0.00  0.00    +0.000 HD
ENDBRANCH  14  21
ENDBRANCH   1  14
TORSDOF 3
ENDMDL
MODEL 8
REMARK VINA RESULT:    -5.376      2.429      7.031
REMARK INTER + INTRA:          -6.935
REMARK INTER:                  -7.401
REMARK INTRA:                   0.466
REMARK UNBOUND:                -0.617
REMARK  Name = 
REMARK  3 active torsions:
REMARK  status: ('A' for Active; 'I' for Inactive)
REMARK    1  A    between atoms: N_5  and  C_6
REMARK    2  A    between atoms: C_6  and  C_7
REMARK    3  A    between atoms: C_11  and  N_12
REMARK                            x       y       z     vdW  Elec       q    Type
REMARK                         _______ _______ _______ _____ _____    ______ ____
ROOT
ATOM      1  C   UNL     1      47.381   7.594  13.625  0.00  0.00    +0.000 A 
ATOM      2  C   UNL     1      46.527   8.665  13.364  0.00  0.00    +0.000 A 
ATOM      3  N   UNL     1      45.424   8.605  12.586  0.00  0.00    +0.000 NA
ATOM      4  C   UNL     1      45.144   7.396  12.046  0.00  0.00    +0.000 A 
ATOM      5  C   UNL     1      45.908   6.234  12.201  0.00  0.00    +0.000 A 
ATOM      6  C   UNL     1      47.057   6.386  12.983  0.00  0.00    +0.000 A 
ENDROOT
BRANCH   5   7
ATOM      7  N   UNL     1      45.531   5.024  11.655  0.00  0.00    +0.000 N 
ATOM      8  C   UNL     1      45.099   4.885  10.257  0.00  0.00    +0.000 C 
ATOM      9  C   UNL     1      43.652   4.356  10.167  0.00  0.00    +0.000 C 
ATOM     10  N   UNL     1      43.419   3.131  10.964  0.00  0.00    +0.000 NA
ATOM     11  C   UNL     1      43.798   3.406  12.367  0.00  0.00    +0.000 C 
ATOM     12  C   UNL     1      45.264   3.872  12.530  0.00  0.00    +0.000 C 
ATOM     13  H   UNL     1      44.044   2.406  10.610  0.00  0.00    +0.000 HD
ENDBRANCH   5   7
BRANCH   1  14
ATOM     14  C   UNL     1      48.549   7.692  14.597  0.00  0.00    +0.000 C 
ATOM     15  C   UNL     1      49.940   7.343  14.075  0.00  0.00    +0.000 C 
ATOM     16  C   UNL     1      49.576   8.770  14.296  0.00  0.00    +0.000 C 
BRANCH  14  21
ATOM     17  C   UNL     1      48.135   3.279  17.222  0.00  0.00    +0.000 A 
ATOM     18  C   UNL     1      48.620   4.313  17.981  0.00  0.00    +0.000 A 
ATOM     19  N   UNL     1      48.688   5.583  17.544  0.00  0.00    +0.000 NA
ATOM     20  C   UNL     1      48.286   5.827  16.284  0.00  0.00    +0.000 A 
ATOM     21  N   UNL     1      48.278   7.180  15.941  0.00  0.00    +0.000 N 
ATOM     22  N   UNL     1      47.830   4.884  15.453  0.00  0.00    +0.000 NA
ATOM     23  C   UNL     1      47.747   3.628  15.948  0.00  0.00    +0.000 A 
ATOM     24  H   UNL     1      48.712   7.658  16.725  0.00  0.00    +0.000 HD
ENDBRANCH  14  21
ENDBRANCH   1  14
TORSDOF 3
ENDMDL
MODEL 9
REMARK VINA RESULT:    -5.324      3.142      5.684
REMARK INTER + INTRA:          -6.875
REMARK INTER:                  -6.920
REMARK INTRA:                   0.045
REMARK UNBOUND:                -0.617
REMARK  Name = 
REMARK  3 active torsions:
REMARK  status: ('A' for Active; 'I' for Inactive)
REMARK    1  A    between atoms: N_5  and  C_6
REMARK    2  A    between atoms: C_6  and  C_7
REMARK    3  A    between atoms: C_11  and  N_12
REMARK                            x       y       z     vdW  Elec       q    Type
REMARK                         _______ _______ _______ _____ _____    ______ ____
ROOT
ATOM      1  C   UNL     1      48.420   7.217  14.310  0.00  0.00    +0.000 A 
ATOM      2  C   UNL     1      49.597   7.878  13.963  0.00  0.00    +0.000 A 
ATOM      3  N   UNL     1      50.760   7.804  14.647  0.00  0.00    +0.000 NA
ATOM      4  C   UNL     1      50.754   7.003  15.739  0.00  0.00    +0.000 A 
ATOM      5  C   UNL     1      49.654   6.288  16.223  0.00  0.00    +0.000 A 
ATOM      6  C   UNL     1      48.476   6.451  15.488  0.00  0.00    +0.000 A 
ENDROOT
BRANCH   5   7
ATOM      7  N   UNL     1      49.740   5.454  17.320  0.00  0.00    +0.000 N 
ATOM      8  C   UNL     1      50.877   4.550  17.541  0.00  0.00    +0.000 C 
ATOM      9  C   UNL     1      50.423   3.076  17.581  0.00  0.00    +0.000 C 
ATOM     10  N   UNL     1      49.303   2.827  18.516  0.00  0.00    +0.000 NA
ATOM     11  C   UNL     1      48.182   3.719  18.150  0.00  0.00    +0.000 C 
ATOM     12  C   UNL     1      48.558   5.219  18.161  0.00  0.00    +0.000 C 
ATOM     13  H   UNL     1      49.614   3.088  19.452  0.00  0.00    +0.000 HD
ENDBRANCH   5   7
BRANCH   1  14
ATOM     14  C   UNL     1      47.170   7.252  13.441  0.00  0.00    +0.000 C 
ATOM     15  C   UNL     1      46.479   8.598  13.243  0.00  0.00    +0.000 C 
ATOM     16  C   UNL     1      47.289   8.019  12.135  0.00  0.00    +0.000 C 
BRANCH  14  21
ATOM     17  C   UNL     1      44.847   3.414  10.908  0.00  0.00    +0.000 A 
ATOM     18  C   UNL     1      45.120   3.108  12.216  0.00  0.00    +0.000 A 
ATOM     19  N   UNL     1      45.602   3.999  13.100  0.00  0.00    +0.000 NA
ATOM     20  C   UNL     1      45.854   5.242  12.652  0.00  0.00    +0.000 A 
ATOM     21  N   UNL     1      46.243   6.139  13.648  0.00  0.00    +0.000 N 
ATOM     22  N   UNL     1      45.655   5.631  11.389  0.00  0.00    +0.000 NA
ATOM     23  C   UNL     1      45.136   4.710  10.545  0.00  0.00    +0.000 A 
ATOM     24  H   UNL     1      46.360   5.575  14.486  0.00  0.00    +0.000 HD
ENDBRANCH  14  21
ENDBRANCH   1  14
TORSDOF 3
ENDMDL
