MODEL 1
REMARK VINA RESULT:    -8.158      0.000      0.000
REMARK INTER + INTRA:         -12.376
REMARK INTER:                 -11.496
REMARK INTRA:                  -0.881
REMARK UNBOUND:                -0.881
REMARK  Name = 
REMARK  8 active torsions:
REMARK  status: ('A' for Active; 'I' for Inactive)
REMARK    1  A    between atoms: C_1  and  O_2
REMARK    2  A    between atoms: O_2  and  C_3
REMARK    3  A    between atoms: C_8  and  C_9
REMARK    4  A    between atoms: N_11  and  C_12
REMARK    5  A    between atoms: C_12  and  C_13
REMARK    6  A    between atoms: C_16  and  C_17
REMARK    7  A    between atoms: C_17  and  N_18
REMARK    8  A    between atoms: C_19  and  C_21
REMARK                            x       y       z     vdW  Elec       q    Type
REMARK                         _______ _______ _______ _____ _____    ______ ____
ROOT
ATOM      1  C   UNL     1      44.753   5.306  10.746  0.00  0.00    +0.000 A 
ATOM      2  C   UNL     1      44.240   5.657  12.002  0.00  0.00    +0.000 A 
ATOM      3  C   UNL     1      44.924   6.557  12.828  0.00  0.00    +0.000 A 
ATOM      4  C   UNL     1      46.124   7.143  12.404  0.00  0.00    +0.000 A 
ATOM      5  C   UNL     1      46.632   6.798  11.146  0.00  0.00    +0.000 A 
ATOM      6  C   UNL     1      45.949   5.898  10.320  0.00  0.00    +0.000 A 
ENDROOT
BRANCH   1   7
ATOM      7  C   UNL     1      44.038   4.306   9.873  0.00  0.00    +0.000 C 
BRANCH   7  10
ATOM      8  C   UNL     1      45.542   2.774   8.679  0.00  0.00    +0.000 C 
ATOM      9  O   UNL     1      45.598   2.019   9.648  0.00  0.00    +0.000 OA
ATOM     10  N   UNL     1      44.809   3.939   8.711  0.00  0.00    +0.000 N 
ATOM     11  H   UNL     1      44.835   4.557   7.908  0.00  0.00    +0.000 HD
BRANCH   8  17
ATOM     12  C   UNL     1      46.856   1.171   7.138  0.00  0.00    +0.000 A 
ATOM     13  C   UNL     1      47.544   0.988   5.926  0.00  0.00    +0.000 A 
ATOM     14  C   UNL     1      47.646   2.023   4.993  0.00  0.00    +0.000 A 
ATOM     15  C   UNL     1      47.052   3.253   5.248  0.00  0.00    +0.000 A 
ATOM     16  C   UNL     1      46.365   3.449   6.449  0.00  0.00    +0.000 A 
ATOM     17  C   UNL     1      46.259   2.422   7.407  0.00  0.00    +0.000 A 
BRANCH  12  19
ATOM     18  C   UNL     1      46.726  -1.172   7.551  0.00  0.00    +0.000 C 
ATOM     19  O   UNL     1      46.685   0.161   8.049  0.00  0.00    +0.000 OA
ENDBRANCH  12  19
ENDBRANCH   8  17
ENDBRANCH   7  10
ENDBRANCH   1   7
BRANCH   4  20
ATOM     20  C   UNL     1      46.880   8.095  13.295  0.00  0.00    +0.000 C 
BRANCH  20  21
ATOM     21  N   UNL     1      47.370   7.437  14.481  0.00  0.00    +0.000 N 
ATOM     22  C   UNL     1      48.584   6.797  14.482  0.00  0.00    +0.000 C 
ATOM     23  O   UNL     1      49.313   6.788  13.491  0.00  0.00    +0.000 OA
ATOM     24  H   UNL     1      46.701   7.246  15.219  0.00  0.00    +0.000 HD
BRANCH  22  25
ATOM     25  C   UNL     1      49.003   6.170  15.743  0.00  0.00    +0.000 A 
ATOM     26  C   UNL     1      50.109   6.668  16.421  0.00  0.00    +0.000 A 
ATOM     27  S   UNL     1      50.429   5.868  17.892  0.00  0.00    +0.000 S 
ATOM     28  C   UNL     1      49.135   4.791  17.651  0.00  0.00    +0.000 A 
ATOM     29  N   UNL     1      48.864   3.811  18.554  0.00  0.00    +0.000 NA
ATOM     30  C   UNL     1      47.878   3.044  18.228  0.00  0.00    +0.000 A 
ATOM     31  N   UNL     1      47.131   3.174  17.086  0.00  0.00    +0.000 N 
ATOM     32  C   UNL     1      47.349   4.167  16.160  0.00  0.00    +0.000 A 
ATOM     33  O   UNL     1      46.639   4.279  15.167  0.00  0.00    +0.000 OA
ATOM     34  C   UNL     1      48.456   5.050  16.472  0.00  0.00    +0.000 A 
ATOM     35  H   UNL     1      46.368   2.543  16.892  0.00  0.00    +0.000 HD
ENDBRANCH  22  25
ENDBRANCH  20  21
ENDBRANCH   4  20
TORSDOF 7
ENDMDL
MODEL 2
REMARK VINA RESULT:    -7.442      3.305      8.997
REMARK INTER + INTRA:         -11.368
REMARK INTER:                 -10.197
REMARK INTRA:                  -1.171
REMARK UNBOUND:                -0.881
REMARK  Name = 
REMARK  8 active torsions:
REMARK  status: ('A' for Active; 'I' for Inactive)
REMARK    1  A    between atoms: C_1  and  O_2
REMARK    2  A    between atoms: O_2  and  C_3
REMARK    3  A    between atoms: C_8  and  C_9
REMARK    4  A    between atoms: N_11  and  C_12
REMARK    5  A    between atoms: C_12  and  C_13
REMARK    6  A    between atoms: C_16  and  C_17
REMARK    7  A    between atoms: C_17  and  N_18
REMARK    8  A    between atoms: C_19  and  C_21
REMARK                            x       y       z     vdW  Elec       q    Type
REMARK                         _______ _______ _______ _____ _____    ______ ____
ROOT
ATOM      1  C   UNL     1      50.416   7.471  15.313  0.00  0.00    +0.000 A 
ATOM      2  C   UNL     1      50.807   8.144  14.148  0.00  0.00    +0.000 A 
ATOM      3  C   UNL     1      49.935   8.256  13.059  0.00  0.00    +0.000 A 
ATOM      4  C   UNL     1      48.644   7.715  13.121  0.00  0.00    +0.000 A 
ATOM      5  C   UNL     1      48.251   7.049  14.288  0.00  0.00    +0.000 A 
ATOM      6  C   UNL     1      49.122   6.937  15.377  0.00  0.00    +0.000 A 
ENDROOT
BRANCH   1   7
ATOM      7  C   UNL     1      51.368   7.315  16.471  0.00  0.00    +0.000 C 
BRANCH   7  10
ATOM      8  C   UNL     1      51.215   5.134  17.590  0.00  0.00    +0.000 C 
ATOM      9  O   UNL     1      50.329   5.541  18.339  0.00  0.00    +0.000 OA
ATOM     10  N   UNL     1      51.800   5.951  16.649  0.00  0.00    +0.000 N 
ATOM     11  H   UNL     1      52.563   5.587  16.089  0.00  0.00    +0.000 HD
BRANCH   8  17
ATOM     12  C   UNL     1      50.909   2.594  17.230  0.00  0.00    +0.000 A 
ATOM     13  C   UNL     1      51.427   1.300  17.406  0.00  0.00    +0.000 A 
ATOM     14  C   UNL     1      52.672   1.099  18.006  0.00  0.00    +0.000 A 
ATOM     15  C   UNL     1      53.427   2.186  18.428  0.00  0.00    +0.000 A 
ATOM     16  C   UNL     1      52.925   3.479  18.258  0.00  0.00    +0.000 A 
ATOM     17  C   UNL     1      51.667   3.703  17.666  0.00  0.00    +0.000 A 
BRANCH  12  19
ATOM     18  C   UNL     1      48.534   2.717  17.373  0.00  0.00    +0.000 C 
ATOM     19  O   UNL     1      49.719   2.832  16.592  0.00  0.00    +0.000 OA
ENDBRANCH  12  19
ENDBRANCH   8  17
ENDBRANCH   7  10
ENDBRANCH   1   7
BRANCH   4  20
ATOM     20  C   UNL     1      47.706   7.810  11.944  0.00  0.00    +0.000 C 
BRANCH  20  21
ATOM     21  N   UNL     1      47.003   6.570  11.725  0.00  0.00    +0.000 N 
ATOM     22  C   UNL     1      45.634   6.512  11.801  0.00  0.00    +0.000 C 
ATOM     23  O   UNL     1      44.954   7.512  12.022  0.00  0.00    +0.000 OA
ATOM     24  H   UNL     1      47.546   5.714  11.763  0.00  0.00    +0.000 HD
BRANCH  22  25
ATOM     25  C   UNL     1      45.010   5.206  11.546  0.00  0.00    +0.000 A 
ATOM     26  C   UNL     1      44.315   4.568  12.565  0.00  0.00    +0.000 A 
ATOM     27  S   UNL     1      43.605   3.092  12.093  0.00  0.00    +0.000 S 
ATOM     28  C   UNL     1      44.245   3.225  10.523  0.00  0.00    +0.000 A 
ATOM     29  N   UNL     1      44.025   2.255   9.595  0.00  0.00    +0.000 NA
ATOM     30  C   UNL     1      44.598   2.466   8.457  0.00  0.00    +0.000 A 
ATOM     31  N   UNL     1      45.363   3.564   8.160  0.00  0.00    +0.000 N 
ATOM     32  C   UNL     1      45.588   4.583   9.055  0.00  0.00    +0.000 A 
ATOM     33  O   UNL     1      46.246   5.569   8.746  0.00  0.00    +0.000 OA
ATOM     34  C   UNL     1      44.976   4.389  10.356  0.00  0.00    +0.000 A 
ATOM     35  H   UNL     1      45.780   3.672   7.247  0.00  0.00    +0.000 HD
ENDBRANCH  22  25
ENDBRANCH  20  21
ENDBRANCH   4  20
TORSDOF 7
ENDMDL
MODEL 3
REMARK VINA RESULT:    -7.329      2.246      2.596
REMARK INTER + INTRA:         -11.208
REMARK INTER:                 -10.435
REMARK INTRA:                  -0.774
REMARK UNBOUND:                -0.881
REMARK  Name = 
REMARK  8 active torsions:
REMARK  status: ('A' for Active; 'I' for Inactive)
REMARK    1  A    between atoms: C_1  and  O_2
REMARK    2  A    between atoms: O_2  and  C_3
REMARK    3  A    between atoms: C_8  and  C_9
REMARK    4  A    between atoms: N_11  and  C_12
REMARK    5  A    between atoms: C_12  and  C_13
REMARK    6  A    between atoms: C_16  and  C_17
REMARK    7  A    between atoms: C_17  and  N_18
REMARK    8  A    between atoms: C_19  and  C_21
REMARK                            x       y       z     vdW  Elec       q    Type
REMARK                         _______ _______ _______ _____ _____    ______ ____
ROOT
ATOM      1  C   UNL     1      45.714   5.167  11.542  0.00  0.00    +0.000 A 
ATOM      2  C   UNL     1      46.036   4.603  12.784  0.00  0.00    +0.000 A 
ATOM      3  C   UNL     1      46.869   5.282  13.682  0.00  0.00    +0.000 A 
ATOM      4  C   UNL     1      47.378   6.548  13.366  0.00  0.00    +0.000 A 
ATOM      5  C   UNL     1      47.049   7.113  12.128  0.00  0.00    +0.000 A 
ATOM      6  C   UNL     1      46.217   6.436  11.229  0.00  0.00    +0.000 A 
ENDROOT
BRANCH   1   7
ATOM      7  C   UNL     1      44.851   4.420  10.556  0.00  0.00    +0.000 C 
BRANCH   7  10
ATOM      8  C   UNL     1      45.423   2.790   8.811  0.00  0.00    +0.000 C 
ATOM      9  O   UNL     1      44.696   1.938   9.321  0.00  0.00    +0.000 OA
ATOM     10  N   UNL     1      45.573   4.040   9.369  0.00  0.00    +0.000 N 
ATOM     11  H   UNL     1      46.224   4.691   8.944  0.00  0.00    +0.000 HD
BRANCH   8  17
ATOM     12  C   UNL     1      46.710   1.240   7.196  0.00  0.00    +0.000 A 
ATOM     13  C   UNL     1      47.414   1.107   5.986  0.00  0.00    +0.000 A 
ATOM     14  C   UNL     1      47.568   2.192   5.121  0.00  0.00    +0.000 A 
ATOM     15  C   UNL     1      47.011   3.424   5.441  0.00  0.00    +0.000 A 
ATOM     16  C   UNL     1      46.308   3.570   6.640  0.00  0.00    +0.000 A 
ATOM     17  C   UNL     1      46.151   2.491   7.531  0.00  0.00    +0.000 A 
BRANCH  12  19
ATOM     18  C   UNL     1      46.816  -1.114   7.551  0.00  0.00    +0.000 C 
ATOM     19  O   UNL     1      46.489   0.183   8.040  0.00  0.00    +0.000 OA
ENDBRANCH  12  19
ENDBRANCH   8  17
ENDBRANCH   7  10
ENDBRANCH   1   7
BRANCH   4  20
ATOM     20  C   UNL     1      48.294   7.276  14.317  0.00  0.00    +0.000 C 
BRANCH  20  21
ATOM     21  N   UNL     1      48.101   6.840  15.678  0.00  0.00    +0.000 N 
ATOM     22  C   UNL     1      49.150   6.359  16.421  0.00  0.00    +0.000 C 
ATOM     23  O   UNL     1      50.294   6.313  15.973  0.00  0.00    +0.000 OA
ATOM     24  H   UNL     1      47.148   6.664  15.980  0.00  0.00    +0.000 HD
BRANCH  22  25
ATOM     25  C   UNL     1      48.855   5.956  17.802  0.00  0.00    +0.000 A 
ATOM     26  C   UNL     1      49.093   4.645  18.198  0.00  0.00    +0.000 A 
ATOM     27  S   UNL     1      48.752   4.353  19.843  0.00  0.00    +0.000 S 
ATOM     28  C   UNL     1      48.223   5.953  20.074  0.00  0.00    +0.000 A 
ATOM     29  N   UNL     1      47.764   6.369  21.284  0.00  0.00    +0.000 NA
ATOM     30  C   UNL     1      47.362   7.596  21.309  0.00  0.00    +0.000 A 
ATOM     31  N   UNL     1      47.386   8.447  20.235  0.00  0.00    +0.000 N 
ATOM     32  C   UNL     1      47.869   8.080  19.001  0.00  0.00    +0.000 A 
ATOM     33  O   UNL     1      47.911   8.877  18.070  0.00  0.00    +0.000 OA
ATOM     34  C   UNL     1      48.322   6.705  18.915  0.00  0.00    +0.000 A 
ATOM     35  H   UNL     1      47.061   9.399  20.322  0.00  0.00    +0.000 HD
ENDBRANCH  22  25
ENDBRANCH  20  21
ENDBRANCH   4  20
TORSDOF 7
ENDMDL
MODEL 4
REMARK VINA RESULT:    -7.052      3.177      4.981
REMARK INTER + INTRA:         -10.818
REMARK INTER:                  -9.693
REMARK INTRA:                  -1.125
REMARK UNBOUND:                -0.881
REMARK  Name = 
REMARK  8 active torsions:
REMARK  status: ('A' for Active; 'I' for Inactive)
REMARK    1  A    between atoms: C_1  and  O_2
REMARK    2  A    between atoms: O_2  and  C_3
REMARK    3  A    between atoms: C_8  and  C_9
REMARK    4  A    between atoms: N_11  and  C_12
REMARK    5  A    between atoms: C_12  and  C_13
REMARK    6  A    between atoms: C_16  and  C_17
REMARK    7  A    between atoms: C_17  and  N_18
REMARK    8  A    between atoms: C_19  and  C_21
REMARK                            x       y       z     vdW  Elec       q    Type
REMARK                         _______ _______ _______ _____ _____    ______ ____
ROOT
ATOM      1  C   UNL     1      47.990   8.000  13.505  0.00  0.00    +0.000 A 
ATOM      2  C   UNL     1      48.732   6.903  13.965  0.00  0.00    +0.000 A 
ATOM      3  C   UNL     1      49.220   6.870  15.277  0.00  0.00    +0.000 A 
ATOM      4  C   UNL     1      48.957   7.922  16.163  0.00  0.00    +0.000 A 
ATOM      5  C   UNL     1      48.209   9.014  15.705  0.00  0.00    +0.000 A 
ATOM      6  C   UNL     1      47.721   9.048  14.394  0.00  0.00    +0.000 A 
ENDROOT
BRANCH   1   7
ATOM      7  C   UNL     1      47.499   8.056  12.081  0.00  0.00    +0.000 C 
BRANCH   7  10
ATOM      8  C   UNL     1      45.723   6.616  11.183  0.00  0.00    +0.000 C 
ATOM      9  O   UNL     1      44.910   7.539  11.217  0.00  0.00    +0.000 OA
ATOM     10  N   UNL     1      47.022   6.780  11.612  0.00  0.00    +0.000 N 
ATOM     11  H   UNL     1      47.641   5.977  11.615  0.00  0.00    +0.000 HD
BRANCH   8  17
ATOM     12  C   UNL     1      44.768   4.227  11.404  0.00  0.00    +0.000 A 
ATOM     13  C   UNL     1      44.481   3.001  10.780  0.00  0.00    +0.000 A 
ATOM     14  C   UNL     1      44.738   2.809   9.421  0.00  0.00    +0.000 A 
ATOM     15  C   UNL     1      45.272   3.841   8.659  0.00  0.00    +0.000 A 
ATOM     16  C   UNL     1      45.561   5.065   9.266  0.00  0.00    +0.000 A 
ATOM     17  C   UNL     1      45.320   5.276  10.638  0.00  0.00    +0.000 A 
BRANCH  12  19
ATOM     18  C   UNL     1      43.112   4.730  13.041  0.00  0.00    +0.000 C 
ATOM     19  O   UNL     1      44.474   4.470  12.721  0.00  0.00    +0.000 OA
ENDBRANCH  12  19
ENDBRANCH   8  17
ENDBRANCH   7  10
ENDBRANCH   1   7
BRANCH   4  20
ATOM     20  C   UNL     1      49.498   7.906  17.570  0.00  0.00    +0.000 C 
BRANCH  20  21
ATOM     21  N   UNL     1      50.468   6.856  17.753  0.00  0.00    +0.000 N 
ATOM     22  C   UNL     1      50.222   5.807  18.603  0.00  0.00    +0.000 C 
ATOM     23  O   UNL     1      49.159   5.703  19.213  0.00  0.00    +0.000 OA
ATOM     24  H   UNL     1      51.417   7.037  17.440  0.00  0.00    +0.000 HD
BRANCH  22  25
ATOM     25  C   UNL     1      51.265   4.778  18.709  0.00  0.00    +0.000 A 
ATOM     26  C   UNL     1      52.430   5.055  19.414  0.00  0.00    +0.000 A 
ATOM     27  S   UNL     1      53.514   3.741  19.490  0.00  0.00    +0.000 S 
ATOM     28  C   UNL     1      52.491   2.771  18.539  0.00  0.00    +0.000 A 
ATOM     29  N   UNL     1      52.845   1.501  18.203  0.00  0.00    +0.000 NA
ATOM     30  C   UNL     1      51.992   0.892  17.449  0.00  0.00    +0.000 A 
ATOM     31  N   UNL     1      50.813   1.434  17.008  0.00  0.00    +0.000 N 
ATOM     32  C   UNL     1      50.400   2.701  17.345  0.00  0.00    +0.000 A 
ATOM     33  O   UNL     1      49.322   3.143  16.964  0.00  0.00    +0.000 OA
ATOM     34  C   UNL     1      51.329   3.435  18.182  0.00  0.00    +0.000 A 
ATOM     35  H   UNL     1      50.186   0.902  16.423  0.00  0.00    +0.000 HD
ENDBRANCH  22  25
ENDBRANCH  20  21
ENDBRANCH   4  20
TORSDOF 7
ENDMDL
MODEL 5
REMARK VINA RESULT:    -6.888      5.780      8.011
REMARK INTER + INTRA:         -10.587
REMARK INTER:                  -9.317
REMARK INTRA:                  -1.270
REMARK UNBOUND:                -0.881
REMARK  Name = 
REMARK  8 active torsions:
REMARK  status: ('A' for Active; 'I' for Inactive)
REMARK    1  A    between atoms: C_1  and  O_2
REMARK    2  A    between atoms: O_2  and  C_3
REMARK    3  A    between atoms: C_8  and  C_9
REMARK    4  A    between atoms: N_11  and  C_12
REMARK    5  A    between atoms: C_12  and  C_13
REMARK    6  A    between atoms: C_16  and  C_17
REMARK    7  A    between atoms: C_17  and  N_18
REMARK    8  A    between atoms: C_19  and  C_21
REMARK                            x       y       z     vdW  Elec       q    Type
REMARK                         _______ _______ _______ _____ _____    ______ ____
ROOT
ATOM      1  C   UNL     1      48.237   8.013  12.469  0.00  0.00    +0.000 A 
ATOM      2  C   UNL     1      49.345   7.175  12.288  0.00  0.00    +0.000 A 
ATOM      3  C   UNL     1      50.529   7.666  11.724  0.00  0.00    +0.000 A 
ATOM      4  C   UNL     1      50.636   9.012  11.351  0.00  0.00    +0.000 A 
ATOM      5  C   UNL     1      49.530   9.851  11.539  0.00  0.00    +0.000 A 
ATOM      6  C   UNL     1      48.347   9.361  12.103  0.00  0.00    +0.000 A 
ENDROOT
BRANCH   1   7
ATOM      7  C   UNL     1      46.948   7.477  13.038  0.00  0.00    +0.000 C 
BRANCH   7  10
ATOM      8  C   UNL     1      45.529   6.364  11.370  0.00  0.00    +0.000 C 
ATOM      9  O   UNL     1      44.993   7.429  11.066  0.00  0.00    +0.000 OA
ATOM     10  N   UNL     1      46.493   6.294  12.352  0.00  0.00    +0.000 N 
ATOM     11  H   UNL     1      46.868   5.387  12.606  0.00  0.00    +0.000 HD
BRANCH   8  17
ATOM     12  C   UNL     1      44.587   3.962  11.255  0.00  0.00    +0.000 A 
ATOM     13  C   UNL     1      44.337   2.822  10.472  0.00  0.00    +0.000 A 
ATOM     14  C   UNL     1      44.649   2.802   9.111  0.00  0.00    +0.000 A 
ATOM     15  C   UNL     1      45.203   3.922   8.505  0.00  0.00    +0.000 A 
ATOM     16  C   UNL     1      45.457   5.063   9.271  0.00  0.00    +0.000 A 
ATOM     17  C   UNL     1      45.159   5.101  10.647  0.00  0.00    +0.000 A 
BRANCH  12  19
ATOM     18  C   UNL     1      43.005   4.677  12.886  0.00  0.00    +0.000 C 
ATOM     19  O   UNL     1      44.240   4.039  12.578  0.00  0.00    +0.000 OA
ENDBRANCH  12  19
ENDBRANCH   8  17
ENDBRANCH   7  10
ENDBRANCH   1   7
BRANCH   4  20
ATOM     20  C   UNL     1      51.898   9.545  10.721  0.00  0.00    +0.000 C 
BRANCH  20  21
ATOM     21  N   UNL     1      52.225   8.838   9.508  0.00  0.00    +0.000 N 
ATOM     22  C   UNL     1      53.406   9.073   8.850  0.00  0.00    +0.000 C 
ATOM     23  O   UNL     1      54.243   9.863   9.283  0.00  0.00    +0.000 OA
ATOM     24  H   UNL     1      51.468   8.361   9.028  0.00  0.00    +0.000 HD
BRANCH  22  25
ATOM     25  C   UNL     1      53.655   8.291   7.632  0.00  0.00    +0.000 A 
ATOM     26  C   UNL     1      53.855   8.949   6.425  0.00  0.00    +0.000 A 
ATOM     27  S   UNL     1      54.185   7.903   5.119  0.00  0.00    +0.000 S 
ATOM     28  C   UNL     1      54.021   6.530   6.108  0.00  0.00    +0.000 A 
ATOM     29  N   UNL     1      54.162   5.278   5.594  0.00  0.00    +0.000 NA
ATOM     30  C   UNL     1      53.976   4.327   6.448  0.00  0.00    +0.000 A 
ATOM     31  N   UNL     1      53.671   4.514   7.770  0.00  0.00    +0.000 N 
ATOM     32  C   UNL     1      53.548   5.759   8.341  0.00  0.00    +0.000 A 
ATOM     33  O   UNL     1      53.311   5.893   9.536  0.00  0.00    +0.000 OA
ATOM     34  C   UNL     1      53.735   6.865   7.421  0.00  0.00    +0.000 A 
ATOM     35  H   UNL     1      53.543   3.726   8.388  0.00  0.00    +0.000 HD
ENDBRANCH  22  25
ENDBRANCH  20  21
ENDBRANCH   4  20
TORSDOF 7
ENDMDL
MODEL 6
REMARK VINA RESULT:    -6.863      3.846      8.562
REMARK INTER + INTRA:         -10.552
REMARK INTER:                  -9.520
REMARK INTRA:                  -1.032
REMARK UNBOUND:                -0.881
REMARK  Name = 
REMARK  8 active torsions:
REMARK  status: ('A' for Active; 'I' for Inactive)
REMARK    1  A    between atoms: C_1  and  O_2
REMARK    2  A    between atoms: O_2  and  C_3
REMARK    3  A    between atoms: C_8  and  C_9
REMARK    4  A    between atoms: N_11  and  C_12
REMARK    5  A    between atoms: C_12  and  C_13
REMARK    6  A    between atoms: C_16  and  C_17
REMARK    7  A    between atoms: C_17  and  N_18
REMARK    8  A    between atoms: C_19  and  C_21
REMARK                            x       y       z     vdW  Elec       q    Type
REMARK                         _______ _______ _______ _____ _____    ______ ____
ROOT
ATOM      1  C   UNL     1      49.350   7.701  16.016  0.00  0.00    +0.000 A 
ATOM      2  C   UNL     1      49.010   9.042  15.794  0.00  0.00    +0.000 A 
ATOM      3  C   UNL     1      48.156   9.399  14.744  0.00  0.00    +0.000 A 
ATOM      4  C   UNL     1      47.607   8.420  13.906  0.00  0.00    +0.000 A 
ATOM      5  C   UNL     1      47.941   7.079  14.133  0.00  0.00    +0.000 A 
ATOM      6  C   UNL     1      48.794   6.721  15.183  0.00  0.00    +0.000 A 
ENDROOT
BRANCH   1   7
ATOM      7  C   UNL     1      50.301   7.318  17.121  0.00  0.00    +0.000 C 
BRANCH   7  10
ATOM      8  C   UNL     1      50.813   5.113  18.075  0.00  0.00    +0.000 C 
ATOM      9  O   UNL     1      50.474   5.483  19.198  0.00  0.00    +0.000 OA
ATOM     10  N   UNL     1      50.779   5.964  16.993  0.00  0.00    +0.000 N 
ATOM     11  H   UNL     1      51.118   5.631  16.097  0.00  0.00    +0.000 HD
BRANCH   8  17
ATOM     12  C   UNL     1      50.466   2.696  17.235  0.00  0.00    +0.000 A 
ATOM     13  C   UNL     1      50.977   1.391  17.131  0.00  0.00    +0.000 A 
ATOM     14  C   UNL     1      52.243   1.072  17.628  0.00  0.00    +0.000 A 
ATOM     15  C   UNL     1      53.025   2.053  18.224  0.00  0.00    +0.000 A 
ATOM     16  C   UNL     1      52.530   3.355  18.334  0.00  0.00    +0.000 A 
ATOM     17  C   UNL     1      51.253   3.694  17.849  0.00  0.00    +0.000 A 
BRANCH  12  19
ATOM     18  C   UNL     1      48.108   2.867  17.529  0.00  0.00    +0.000 C 
ATOM     19  O   UNL     1      49.254   3.058  16.707  0.00  0.00    +0.000 OA
ENDBRANCH  12  19
ENDBRANCH   8  17
ENDBRANCH   7  10
ENDBRANCH   1   7
BRANCH   4  20
ATOM     20  C   UNL     1      46.706   8.797  12.758  0.00  0.00    +0.000 C 
BRANCH  20  21
ATOM     21  N   UNL     1      46.025   7.646  12.218  0.00  0.00    +0.000 N 
ATOM     22  C   UNL     1      46.594   6.891  11.224  0.00  0.00    +0.000 C 
ATOM     23  O   UNL     1      47.713   7.142  10.779  0.00  0.00    +0.000 OA
ATOM     24  H   UNL     1      45.032   7.559  12.409  0.00  0.00    +0.000 HD
BRANCH  22  25
ATOM     25  C   UNL     1      45.829   5.729  10.752  0.00  0.00    +0.000 A 
ATOM     26  C   UNL     1      45.824   5.416   9.398  0.00  0.00    +0.000 A 
ATOM     27  S   UNL     1      44.937   4.010   9.022  0.00  0.00    +0.000 S 
ATOM     28  C   UNL     1      44.482   3.797  10.647  0.00  0.00    +0.000 A 
ATOM     29  N   UNL     1      43.680   2.763  11.018  0.00  0.00    +0.000 NA
ATOM     30  C   UNL     1      43.385   2.742  12.275  0.00  0.00    +0.000 A 
ATOM     31  N   UNL     1      43.827   3.655  13.196  0.00  0.00    +0.000 N 
ATOM     32  C   UNL     1      44.662   4.698  12.873  0.00  0.00    +0.000 A 
ATOM     33  O   UNL     1      45.070   5.477  13.728  0.00  0.00    +0.000 OA
ATOM     34  C   UNL     1      45.014   4.776  11.469  0.00  0.00    +0.000 A 
ATOM     35  H   UNL     1      43.563   3.579  14.168  0.00  0.00    +0.000 HD
ENDBRANCH  22  25
ENDBRANCH  20  21
ENDBRANCH   4  20
TORSDOF 7
ENDMDL
MODEL 7
REMARK VINA RESULT:    -6.785      3.938      9.115
REMARK INTER + INTRA:         -10.442
REMARK INTER:                  -9.246
REMARK INTRA:                  -1.197
REMARK UNBOUND:                -0.881
REMARK  Name = 
REMARK  8 active torsions:
REMARK  status: ('A' for Active; 'I' for Inactive)
REMARK    1  A    between atoms: C_1  and  O_2
REMARK    2  A    between atoms: O_2  and  C_3
REMARK    3  A    between atoms: C_8  and  C_9
REMARK    4  A    between atoms: N_11  and  C_12
REMARK    5  A    between atoms: C_12  and  C_13
REMARK    6  A    between atoms: C_16  and  C_17
REMARK    7  A    between atoms: C_17  and  N_18
REMARK    8  A    between atoms: C_19  and  C_21
REMARK                            x       y       z     vdW  Elec       q    Type
REMARK                         _______ _______ _______ _____ _____    ______ ____
ROOT
ATOM      1  C   UNL     1      49.291   7.412  16.372  0.00  0.00    +0.000 A 
ATOM      2  C   UNL     1      48.875   6.380  15.520  0.00  0.00    +0.000 A 
ATOM      3  C   UNL     1      48.401   6.662  14.233  0.00  0.00    +0.000 A 
ATOM      4  C   UNL     1      48.356   7.981  13.764  0.00  0.00    +0.000 A 
ATOM      5  C   UNL     1      48.779   9.011  14.612  0.00  0.00    +0.000 A 
ATOM      6  C   UNL     1      49.253   8.730  15.899  0.00  0.00    +0.000 A 
ENDROOT
BRANCH   1   7
ATOM      7  C   UNL     1      49.763   7.114  17.773  0.00  0.00    +0.000 C 
BRANCH   7  10
ATOM      8  C   UNL     1      50.177   4.726  18.168  0.00  0.00    +0.000 C 
ATOM      9  O   UNL     1      49.001   4.537  18.475  0.00  0.00    +0.000 OA
ATOM     10  N   UNL     1      50.645   5.975  17.826  0.00  0.00    +0.000 N 
ATOM     11  H   UNL     1      51.633   6.093  17.632  0.00  0.00    +0.000 HD
BRANCH   8  17
ATOM     12  C   UNL     1      52.438   3.588  18.685  0.00  0.00    +0.000 A 
ATOM     13  C   UNL     1      53.259   2.458  18.534  0.00  0.00    +0.000 A 
ATOM     14  C   UNL     1      52.812   1.330  17.842  0.00  0.00    +0.000 A 
ATOM     15  C   UNL     1      51.532   1.306  17.302  0.00  0.00    +0.000 A 
ATOM     16  C   UNL     1      50.704   2.422  17.445  0.00  0.00    +0.000 A 
ATOM     17  C   UNL     1      51.140   3.573  18.129  0.00  0.00    +0.000 A 
BRANCH  12  19
ATOM     18  C   UNL     1      52.872   4.545  20.823  0.00  0.00    +0.000 C 
ATOM     19  O   UNL     1      52.821   4.688  19.407  0.00  0.00    +0.000 OA
ENDBRANCH  12  19
ENDBRANCH   8  17
ENDBRANCH   7  10
ENDBRANCH   1   7
BRANCH   4  20
ATOM     20  C   UNL     1      47.826   8.297  12.388  0.00  0.00    +0.000 C 
BRANCH  20  21
ATOM     21  N   UNL     1      47.272   7.128  11.751  0.00  0.00    +0.000 N 
ATOM     22  C   UNL     1      45.927   7.032  11.496  0.00  0.00    +0.000 C 
ATOM     23  O   UNL     1      45.150   7.946  11.766  0.00  0.00    +0.000 OA
ATOM     24  H   UNL     1      47.849   6.293  11.727  0.00  0.00    +0.000 HD
BRANCH  22  25
ATOM     25  C   UNL     1      45.463   5.809  10.829  0.00  0.00    +0.000 A 
ATOM     26  C   UNL     1      45.739   5.616   9.481  0.00  0.00    +0.000 A 
ATOM     27  S   UNL     1      45.181   4.125   8.873  0.00  0.00    +0.000 S 
ATOM     28  C   UNL     1      44.503   3.704  10.374  0.00  0.00    +0.000 A 
ATOM     29  N   UNL     1      43.839   2.527  10.537  0.00  0.00    +0.000 NA
ATOM     30  C   UNL     1      43.346   2.352  11.717  0.00  0.00    +0.000 A 
ATOM     31  N   UNL     1      43.464   3.242  12.752  0.00  0.00    +0.000 N 
ATOM     32  C   UNL     1      44.151   4.428  12.644  0.00  0.00    +0.000 A 
ATOM     33  O   UNL     1      44.270   5.185  13.601  0.00  0.00    +0.000 OA
ATOM     34  C   UNL     1      44.715   4.681  11.333  0.00  0.00    +0.000 A 
ATOM     35  H   UNL     1      43.058   3.042  13.655  0.00  0.00    +0.000 HD
ENDBRANCH  22  25
ENDBRANCH  20  21
ENDBRANCH   4  20
TORSDOF 7
ENDMDL
MODEL 8
REMARK VINA RESULT:    -6.714      3.253      9.750
REMARK INTER + INTRA:         -10.342
REMARK INTER:                  -8.919
REMARK INTRA:                  -1.423
REMARK UNBOUND:                -0.881
REMARK  Name = 
REMARK  8 active torsions:
REMARK  status: ('A' for Active; 'I' for Inactive)
REMARK    1  A    between atoms: C_1  and  O_2
REMARK    2  A    between atoms: O_2  and  C_3
REMARK    3  A    between atoms: C_8  and  C_9
REMARK    4  A    between atoms: N_11  and  C_12
REMARK    5  A    between atoms: C_12  and  C_13
REMARK    6  A    between atoms: C_16  and  C_17
REMARK    7  A    between atoms: C_17  and  N_18
REMARK    8  A    between atoms: C_19  and  C_21
REMARK                            x       y       z     vdW  Elec       q    Type
REMARK                         _______ _______ _______ _____ _____    ______ ____
ROOT
ATOM      1  C   UNL     1      50.543   7.577  14.993  0.00  0.00    +0.000 A 
ATOM      2  C   UNL     1      50.806   8.360  13.861  0.00  0.00    +0.000 A 
ATOM      3  C   UNL     1      49.875   8.446  12.819  0.00  0.00    +0.000 A 
ATOM      4  C   UNL     1      48.651   7.768  12.899  0.00  0.00    +0.000 A 
ATOM      5  C   UNL     1      48.386   6.992  14.033  0.00  0.00    +0.000 A 
ATOM      6  C   UNL     1      49.316   6.906  15.075  0.00  0.00    +0.000 A 
ENDROOT
BRANCH   1   7
ATOM      7  C   UNL     1      51.562   7.450  16.098  0.00  0.00    +0.000 C 
BRANCH   7  10
ATOM      8  C   UNL     1      50.448   7.221  18.274  0.00  0.00    +0.000 C 
ATOM      9  O   UNL     1      50.290   8.437  18.360  0.00  0.00    +0.000 OA
ATOM     10  N   UNL     1      51.086   6.648  17.196  0.00  0.00    +0.000 N 
ATOM     11  H   UNL     1      51.241   5.646  17.194  0.00  0.00    +0.000 HD
BRANCH   8  17
ATOM     12  C   UNL     1      49.127   5.165  19.111  0.00  0.00    +0.000 A 
ATOM     13  C   UNL     1      48.646   4.429  20.207  0.00  0.00    +0.000 A 
ATOM     14  C   UNL     1      48.930   4.822  21.517  0.00  0.00    +0.000 A 
ATOM     15  C   UNL     1      49.712   5.946  21.755  0.00  0.00    +0.000 A 
ATOM     16  C   UNL     1      50.198   6.686  20.674  0.00  0.00    +0.000 A 
ATOM     17  C   UNL     1      49.913   6.313  19.346  0.00  0.00    +0.000 A 
BRANCH  12  19
ATOM     18  C   UNL     1      47.566   4.595  17.404  0.00  0.00    +0.000 C 
ATOM     19  O   UNL     1      48.918   4.776  17.813  0.00  0.00    +0.000 OA
ENDBRANCH  12  19
ENDBRANCH   8  17
ENDBRANCH   7  10
ENDBRANCH   1   7
BRANCH   4  20
ATOM     20  C   UNL     1      47.652   7.836  11.772  0.00  0.00    +0.000 C 
BRANCH  20  21
ATOM     21  N   UNL     1      46.959   6.583  11.602  0.00  0.00    +0.000 N 
ATOM     22  C   UNL     1      45.590   6.516  11.683  0.00  0.00    +0.000 C 
ATOM     23  O   UNL     1      44.903   7.519  11.869  0.00  0.00    +0.000 OA
ATOM     24  H   UNL     1      47.508   5.733  11.670  0.00  0.00    +0.000 HD
BRANCH  22  25
ATOM     25  C   UNL     1      44.976   5.198  11.479  0.00  0.00    +0.000 A 
ATOM     26  C   UNL     1      44.282   4.597  12.522  0.00  0.00    +0.000 A 
ATOM     27  S   UNL     1      43.583   3.098  12.108  0.00  0.00    +0.000 S 
ATOM     28  C   UNL     1      44.228   3.171  10.536  0.00  0.00    +0.000 A 
ATOM     29  N   UNL     1      44.018   2.162   9.647  0.00  0.00    +0.000 NA
ATOM     30  C   UNL     1      44.594   2.331   8.504  0.00  0.00    +0.000 A 
ATOM     31  N   UNL     1      45.352   3.421   8.165  0.00  0.00    +0.000 N 
ATOM     32  C   UNL     1      45.567   4.477   9.019  0.00  0.00    +0.000 A 
ATOM     33  O   UNL     1      46.220   5.455   8.672  0.00  0.00    +0.000 OA
ATOM     34  C   UNL     1      44.952   4.332  10.324  0.00  0.00    +0.000 A 
ATOM     35  H   UNL     1      45.772   3.495   7.250  0.00  0.00    +0.000 HD
ENDBRANCH  22  25
ENDBRANCH  20  21
ENDBRANCH   4  20
TORSDOF 7
ENDMDL
MODEL 9
REMARK VINA RESULT:    -6.538      3.003      4.029
REMARK INTER + INTRA:         -10.095
REMARK INTER:                  -9.164
REMARK INTRA:                  -0.931
REMARK UNBOUND:                -0.881
REMARK  Name = 
REMARK  8 active torsions:
REMARK  status: ('A' for Active; 'I' for Inactive)
REMARK    1  A    between atoms: C_1  and  O_2
REMARK    2  A    between atoms: O_2  and  C_3
REMARK    3  A    between atoms: C_8  and  C_9
REMARK    4  A    between atoms: N_11  and  C_12
REMARK    5  A    between atoms: C_12  and  C_13
REMARK    6  A    between atoms: C_16  and  C_17
REMARK    7  A    between atoms: C_17  and  N_18
REMARK    8  A    between atoms: C_19  and  C_21
REMARK                            x       y       z     vdW  Elec       q    Type
REMARK                         _______ _______ _______ _____ _____    ______ ____
ROOT
ATOM      1  C   UNL     1      44.992   5.213  11.273  0.00  0.00    +0.000 A 
ATOM      2  C   UNL     1      45.871   5.026  12.348  0.00  0.00    +0.000 A 
ATOM      3  C   UNL     1      46.360   6.121  13.072  0.00  0.00    +0.000 A 
ATOM      4  C   UNL     1      45.961   7.424  12.747  0.00  0.00    +0.000 A 
ATOM      5  C   UNL     1      45.077   7.610  11.677  0.00  0.00    +0.000 A 
ATOM      6  C   UNL     1      44.589   6.516  10.954  0.00  0.00    +0.000 A 
ENDROOT
BRANCH   1   7
ATOM      7  C   UNL     1      44.498   4.038  10.467  0.00  0.00    +0.000 C 
BRANCH   7  10
ATOM      8  C   UNL     1      45.317   2.538   8.705  0.00  0.00    +0.000 C 
ATOM      9  O   UNL     1      44.632   1.609   9.130  0.00  0.00    +0.000 OA
ATOM     10  N   UNL     1      45.326   3.770   9.319  0.00  0.00    +0.000 N 
ATOM     11  H   UNL     1      45.946   4.490   8.965  0.00  0.00    +0.000 HD
BRANCH   8  17
ATOM     12  C   UNL     1      46.921   1.209   7.177  0.00  0.00    +0.000 A 
ATOM     13  C   UNL     1      47.699   1.187   6.007  0.00  0.00    +0.000 A 
ATOM     14  C   UNL     1      47.720   2.279   5.137  0.00  0.00    +0.000 A 
ATOM     15  C   UNL     1      46.956   3.406   5.412  0.00  0.00    +0.000 A 
ATOM     16  C   UNL     1      46.177   3.441   6.572  0.00  0.00    +0.000 A 
ATOM     17  C   UNL     1      46.150   2.355   7.468  0.00  0.00    +0.000 A 
BRANCH  12  19
ATOM     18  C   UNL     1      46.707  -1.151   7.423  0.00  0.00    +0.000 C 
ATOM     19  O   UNL     1      46.829   0.134   8.023  0.00  0.00    +0.000 OA
ENDBRANCH  12  19
ENDBRANCH   8  17
ENDBRANCH   7  10
ENDBRANCH   1   7
BRANCH   4  20
ATOM     20  C   UNL     1      46.500   8.612  13.505  0.00  0.00    +0.000 C 
BRANCH  20  21
ATOM     21  N   UNL     1      47.907   8.806  13.256  0.00  0.00    +0.000 N 
ATOM     22  C   UNL     1      48.841   8.508  14.216  0.00  0.00    +0.000 C 
ATOM     23  O   UNL     1      48.523   8.035  15.306  0.00  0.00    +0.000 OA
ATOM     24  H   UNL     1      48.165   9.391  12.468  0.00  0.00    +0.000 HD
BRANCH  22  25
ATOM     25  C   UNL     1      50.250   8.724  13.861  0.00  0.00    +0.000 A 
ATOM     26  C   UNL     1      51.094   9.359  14.765  0.00  0.00    +0.000 A 
ATOM     27  S   UNL     1      52.707   9.483  14.226  0.00  0.00    +0.000 S 
ATOM     28  C   UNL     1      52.326   8.741  12.744  0.00  0.00    +0.000 A 
ATOM     29  N   UNL     1      53.278   8.557  11.789  0.00  0.00    +0.000 NA
ATOM     30  C   UNL     1      52.843   8.015  10.701  0.00  0.00    +0.000 A 
ATOM     31  N   UNL     1      51.546   7.632  10.483  0.00  0.00    +0.000 N 
ATOM     32  C   UNL     1      50.557   7.771  11.428  0.00  0.00    +0.000 A 
ATOM     33  O   UNL     1      49.413   7.384  11.216  0.00  0.00    +0.000 OA
ATOM     34  C   UNL     1      50.989   8.388  12.667  0.00  0.00    +0.000 A 
ATOM     35  H   UNL     1      51.271   7.208   9.609  0.00  0.00    +0.000 HD
ENDBRANCH  22  25
ENDBRANCH  20  21
ENDBRANCH   4  20
TORSDOF 7
ENDMDL
