MODEL 1
REMARK VINA RESULT:    -8.043      0.000      0.000
REMARK INTER + INTRA:         -12.698
REMARK INTER:                 -11.335
REMARK INTRA:                  -1.363
REMARK UNBOUND:                -1.363
REMARK  Name = 
REMARK  8 active torsions:
REMARK  status: ('A' for Active; 'I' for Inactive)
REMARK    1  A    between atoms: C_1  and  N_2
REMARK    2  A    between atoms: C_4  and  C_5
REMARK    3  A    between atoms: N_7  and  C_8
REMARK    4  A    between atoms: C_8  and  C_9
REMARK    5  A    between atoms: C_12  and  C_13
REMARK    6  A    between atoms: C_13  and  C_14
REMARK    7  A    between atoms: C_14  and  N_15
REMARK    8  A    between atoms: N_15  and  C_16
REMARK                            x       y       z     vdW  Elec       q    Type
REMARK                         _______ _______ _______ _____ _____    ______ ____
ROOT
ATOM      1  C   UNL     1      47.121   8.135  13.208  0.00  0.00    +0.000 C 
ENDROOT
BRANCH   1   2
ATOM      2  C   UNL     1      46.200   7.218  12.451  0.00  0.00    +0.000 A 
ATOM      3  C   UNL     1      46.652   6.588  11.291  0.00  0.00    +0.000 A 
ATOM      4  C   UNL     1      45.824   5.711  10.591  0.00  0.00    +0.000 A 
ATOM      5  C   UNL     1      44.515   5.451  11.030  0.00  0.00    +0.000 A 
ATOM      6  C   UNL     1      44.060   6.099  12.186  0.00  0.00    +0.000 A 
ATOM      7  C   UNL     1      44.892   6.977  12.887  0.00  0.00    +0.000 A 
BRANCH   5   8
ATOM      8  C   UNL     1      43.570   4.497  10.327  0.00  0.00    +0.000 C 
BRANCH   8   9
ATOM      9  C   UNL     1      44.226   3.208   9.837  0.00  0.00    +0.000 C 
BRANCH   9  10
ATOM     10  N   UNL     1      44.330   3.167   8.381  0.00  0.00    +0.000 N 
ATOM     11  H   UNL     1      44.103   4.061   7.945  0.00  0.00    +0.000 HD
BRANCH  10  12
ATOM     12  C   UNL     1      45.547   2.658   7.885  0.00  0.00    +0.000 A 
ATOM     13  C   UNL     1      45.989   1.357   8.156  0.00  0.00    +0.000 A 
ATOM     14  C   UNL     1      47.170   0.859   7.607  0.00  0.00    +0.000 A 
ATOM     15  C   UNL     1      47.916   1.653   6.739  0.00  0.00    +0.000 A 
ATOM     16  C   UNL     1      47.473   2.933   6.423  0.00  0.00    +0.000 A 
ATOM     17  C   UNL     1      46.290   3.427   6.979  0.00  0.00    +0.000 A 
ENDBRANCH  10  12
ENDBRANCH   9  10
ENDBRANCH   8   9
ENDBRANCH   5   8
ENDBRANCH   1   2
BRANCH   1  20
ATOM     18  C   UNL     1      48.733   6.976  14.620  0.00  0.00    +0.000 C 
ATOM     19  O   UNL     1      49.544   6.943  13.702  0.00  0.00    +0.000 OA
ATOM     20  N   UNL     1      47.504   7.584  14.484  0.00  0.00    +0.000 N 
ATOM     21  H   UNL     1      46.826   7.545  15.231  0.00  0.00    +0.000 HD
BRANCH  18  25
ATOM     22  C   UNL     1      50.726   6.223  19.130  0.00  0.00    +0.000 C 
ATOM     23  N   UNL     1      49.908   6.060  17.949  0.00  0.00    +0.000 N 
ATOM     24  C   UNL     1      49.902   6.888  16.861  0.00  0.00    +0.000 A 
ATOM     25  C   UNL     1      48.995   6.388  15.930  0.00  0.00    +0.000 A 
ATOM     26  C   UNL     1      48.432   5.192  16.507  0.00  0.00    +0.000 A 
ATOM     27  C   UNL     1      47.500   4.202  16.202  0.00  0.00    +0.000 A 
ATOM     28 CL   UNL     1      46.607   4.234  14.762  0.00  0.00    +0.000 Cl
ATOM     29  N   UNL     1      47.209   3.201  17.052  0.00  0.00    +0.000 NA
ATOM     30  C   UNL     1      47.864   3.185  18.217  0.00  0.00    +0.000 A 
ATOM     31  N   UNL     1      48.784   4.058  18.651  0.00  0.00    +0.000 NA
ATOM     32  C   UNL     1      49.023   5.036  17.759  0.00  0.00    +0.000 A 
ENDBRANCH  18  25
ENDBRANCH   1  20
TORSDOF 7
ENDMDL
MODEL 2
REMARK VINA RESULT:    -7.662      1.940      2.170
REMARK INTER + INTRA:         -12.161
REMARK INTER:                 -11.176
REMARK INTRA:                  -0.985
REMARK UNBOUND:                -1.363
REMARK  Name = 
REMARK  8 active torsions:
REMARK  status: ('A' for Active; 'I' for Inactive)
REMARK    1  A    between atoms: C_1  and  N_2
REMARK    2  A    between atoms: C_4  and  C_5
REMARK    3  A    between atoms: N_7  and  C_8
REMARK    4  A    between atoms: C_8  and  C_9
REMARK    5  A    between atoms: C_12  and  C_13
REMARK    6  A    between atoms: C_13  and  C_14
REMARK    7  A    between atoms: C_14  and  N_15
REMARK    8  A    between atoms: N_15  and  C_16
REMARK                            x       y       z     vdW  Elec       q    Type
REMARK                         _______ _______ _______ _____ _____    ______ ____
ROOT
ATOM      1  C   UNL     1      48.272   7.120  13.630  0.00  0.00    +0.000 C 
ENDROOT
BRANCH   1   2
ATOM      2  C   UNL     1      47.222   6.211  13.050  0.00  0.00    +0.000 A 
ATOM      3  C   UNL     1      46.652   6.514  11.814  0.00  0.00    +0.000 A 
ATOM      4  C   UNL     1      45.698   5.669  11.246  0.00  0.00    +0.000 A 
ATOM      5  C   UNL     1      45.284   4.502  11.910  0.00  0.00    +0.000 A 
ATOM      6  C   UNL     1      45.848   4.211  13.159  0.00  0.00    +0.000 A 
ATOM      7  C   UNL     1      46.804   5.059  13.726  0.00  0.00    +0.000 A 
BRANCH   5   8
ATOM      8  C   UNL     1      44.267   3.532  11.342  0.00  0.00    +0.000 C 
BRANCH   8   9
ATOM      9  C   UNL     1      44.373   3.320   9.832  0.00  0.00    +0.000 C 
BRANCH   9  10
ATOM     10  N   UNL     1      45.073   2.082   9.503  0.00  0.00    +0.000 N 
ATOM     11  H   UNL     1      44.449   1.276   9.463  0.00  0.00    +0.000 HD
BRANCH  10  12
ATOM     12  C   UNL     1      45.888   2.146   8.354  0.00  0.00    +0.000 A 
ATOM     13  C   UNL     1      46.584   1.038   7.858  0.00  0.00    +0.000 A 
ATOM     14  C   UNL     1      47.339   1.114   6.688  0.00  0.00    +0.000 A 
ATOM     15  C   UNL     1      47.377   2.306   5.969  0.00  0.00    +0.000 A 
ATOM     16  C   UNL     1      46.658   3.408   6.421  0.00  0.00    +0.000 A 
ATOM     17  C   UNL     1      45.906   3.325   7.596  0.00  0.00    +0.000 A 
ENDBRANCH  10  12
ENDBRANCH   9  10
ENDBRANCH   8   9
ENDBRANCH   5   8
ENDBRANCH   1   2
BRANCH   1  20
ATOM     18  C   UNL     1      49.053   6.951  15.931  0.00  0.00    +0.000 C 
ATOM     19  O   UNL     1      50.117   6.474  15.557  0.00  0.00    +0.000 OA
ATOM     20  N   UNL     1      48.077   7.342  15.040  0.00  0.00    +0.000 N 
ATOM     21  H   UNL     1      47.182   7.674  15.371  0.00  0.00    +0.000 HD
BRANCH  18  25
ATOM     22  C   UNL     1      47.875   9.226  20.210  0.00  0.00    +0.000 C 
ATOM     23  N   UNL     1      48.207   8.195  19.254  0.00  0.00    +0.000 N 
ATOM     24  C   UNL     1      48.415   8.383  17.915  0.00  0.00    +0.000 A 
ATOM     25  C   UNL     1      48.727   7.154  17.339  0.00  0.00    +0.000 A 
ATOM     26  C   UNL     1      48.699   6.182  18.405  0.00  0.00    +0.000 A 
ATOM     27  C   UNL     1      48.881   4.814  18.600  0.00  0.00    +0.000 A 
ATOM     28 CL   UNL     1      49.221   3.768  17.311  0.00  0.00    +0.000 Cl
ATOM     29  N   UNL     1      48.738   4.235  19.805  0.00  0.00    +0.000 NA
ATOM     30  C   UNL     1      48.419   5.034  20.829  0.00  0.00    +0.000 A 
ATOM     31  N   UNL     1      48.215   6.358  20.801  0.00  0.00    +0.000 NA
ATOM     32  C   UNL     1      48.365   6.874  19.567  0.00  0.00    +0.000 A 
ENDBRANCH  18  25
ENDBRANCH   1  20
TORSDOF 7
ENDMDL
MODEL 3
REMARK VINA RESULT:    -7.598      2.297      2.838
REMARK INTER + INTRA:         -12.069
REMARK INTER:                 -11.148
REMARK INTRA:                  -0.921
REMARK UNBOUND:                -1.363
REMARK  Name = 
REMARK  8 active torsions:
REMARK  status: ('A' for Active; 'I' for Inactive)
REMARK    1  A    between atoms: C_1  and  N_2
REMARK    2  A    between atoms: C_4  and  C_5
REMARK    3  A    between atoms: N_7  and  C_8
REMARK    4  A    between atoms: C_8  and  C_9
REMARK    5  A    between atoms: C_12  and  C_13
REMARK    6  A    between atoms: C_13  and  C_14
REMARK    7  A    between atoms: C_14  and  N_15
REMARK    8  A    between atoms: N_15  and  C_16
REMARK                            x       y       z     vdW  Elec       q    Type
REMARK                         _______ _______ _______ _____ _____    ______ ____
ROOT
ATOM      1  C   UNL     1      48.287   6.555  13.905  0.00  0.00    +0.000 C 
ENDROOT
BRANCH   1   2
ATOM      2  C   UNL     1      47.143   5.917  13.164  0.00  0.00    +0.000 A 
ATOM      3  C   UNL     1      46.679   4.661  13.557  0.00  0.00    +0.000 A 
ATOM      4  C   UNL     1      45.601   4.066  12.902  0.00  0.00    +0.000 A 
ATOM      5  C   UNL     1      44.966   4.712  11.828  0.00  0.00    +0.000 A 
ATOM      6  C   UNL     1      45.446   5.966  11.427  0.00  0.00    +0.000 A 
ATOM      7  C   UNL     1      46.527   6.561  12.085  0.00  0.00    +0.000 A 
BRANCH   5   8
ATOM      8  C   UNL     1      43.779   4.130  11.085  0.00  0.00    +0.000 C 
BRANCH   8   9
ATOM      9  C   UNL     1      44.120   2.943  10.186  0.00  0.00    +0.000 C 
BRANCH   9  10
ATOM     10  N   UNL     1      44.332   3.350   8.800  0.00  0.00    +0.000 N 
ATOM     11  H   UNL     1      44.318   4.364   8.681  0.00  0.00    +0.000 HD
BRANCH  10  12
ATOM     12  C   UNL     1      45.464   2.784   8.179  0.00  0.00    +0.000 A 
ATOM     13  C   UNL     1      45.820   1.440   8.338  0.00  0.00    +0.000 A 
ATOM     14  C   UNL     1      46.913   0.890   7.668  0.00  0.00    +0.000 A 
ATOM     15  C   UNL     1      47.652   1.680   6.792  0.00  0.00    +0.000 A 
ATOM     16  C   UNL     1      47.290   3.008   6.587  0.00  0.00    +0.000 A 
ATOM     17  C   UNL     1      46.195   3.552   7.263  0.00  0.00    +0.000 A 
ENDBRANCH  10  12
ENDBRANCH   9  10
ENDBRANCH   8   9
ENDBRANCH   5   8
ENDBRANCH   1   2
BRANCH   1  20
ATOM     18  C   UNL     1      49.173   6.467  16.173  0.00  0.00    +0.000 C 
ATOM     19  O   UNL     1      50.321   6.481  15.747  0.00  0.00    +0.000 OA
ATOM     20  N   UNL     1      48.084   6.537  15.332  0.00  0.00    +0.000 N 
ATOM     21  H   UNL     1      47.146   6.460  15.698  0.00  0.00    +0.000 HD
BRANCH  18  25
ATOM     22  C   UNL     1      48.593   4.609  20.765  0.00  0.00    +0.000 C 
ATOM     23  N   UNL     1      48.594   5.528  19.650  0.00  0.00    +0.000 N 
ATOM     24  C   UNL     1      49.034   5.249  18.385  0.00  0.00    +0.000 A 
ATOM     25  C   UNL     1      48.857   6.383  17.595  0.00  0.00    +0.000 A 
ATOM     26  C   UNL     1      48.279   7.391  18.449  0.00  0.00    +0.000 A 
ATOM     27  C   UNL     1      47.853   8.717  18.390  0.00  0.00    +0.000 A 
ATOM     28 CL   UNL     1      47.994   9.634  16.972  0.00  0.00    +0.000 Cl
ATOM     29  N   UNL     1      47.365   9.364  19.462  0.00  0.00    +0.000 NA
ATOM     30  C   UNL     1      47.292   8.675  20.607  0.00  0.00    +0.000 A 
ATOM     31  N   UNL     1      47.657   7.403  20.820  0.00  0.00    +0.000 NA
ATOM     32  C   UNL     1      48.143   6.816  19.711  0.00  0.00    +0.000 A 
ENDBRANCH  18  25
ENDBRANCH   1  20
TORSDOF 7
ENDMDL
MODEL 4
REMARK VINA RESULT:    -7.514      2.661      3.741
REMARK INTER + INTRA:         -11.952
REMARK INTER:                 -10.666
REMARK INTRA:                  -1.286
REMARK UNBOUND:                -1.363
REMARK  Name = 
REMARK  8 active torsions:
REMARK  status: ('A' for Active; 'I' for Inactive)
REMARK    1  A    between atoms: C_1  and  N_2
REMARK    2  A    between atoms: C_4  and  C_5
REMARK    3  A    between atoms: N_7  and  C_8
REMARK    4  A    between atoms: C_8  and  C_9
REMARK    5  A    between atoms: C_12  and  C_13
REMARK    6  A    between atoms: C_13  and  C_14
REMARK    7  A    between atoms: C_14  and  N_15
REMARK    8  A    between atoms: N_15  and  C_16
REMARK                            x       y       z     vdW  Elec       q    Type
REMARK                         _______ _______ _______ _____ _____    ______ ____
ROOT
ATOM      1  C   UNL     1      47.588   3.992  15.769  0.00  0.00    +0.000 C 
ENDROOT
BRANCH   1   2
ATOM      2  C   UNL     1      46.981   4.381  14.448  0.00  0.00    +0.000 A 
ATOM      3  C   UNL     1      46.421   3.400  13.629  0.00  0.00    +0.000 A 
ATOM      4  C   UNL     1      45.828   3.743  12.415  0.00  0.00    +0.000 A 
ATOM      5  C   UNL     1      45.789   5.080  11.985  0.00  0.00    +0.000 A 
ATOM      6  C   UNL     1      46.367   6.060  12.803  0.00  0.00    +0.000 A 
ATOM      7  C   UNL     1      46.962   5.714  14.021  0.00  0.00    +0.000 A 
BRANCH   5   8
ATOM      8  C   UNL     1      45.145   5.524  10.686  0.00  0.00    +0.000 C 
BRANCH   8   9
ATOM      9  C   UNL     1      44.001   4.628  10.213  0.00  0.00    +0.000 C 
BRANCH   9  10
ATOM     10  N   UNL     1      44.024   4.432   8.766  0.00  0.00    +0.000 N 
ATOM     11  H   UNL     1      44.088   5.310   8.251  0.00  0.00    +0.000 HD
BRANCH  10  12
ATOM     12  C   UNL     1      44.983   3.506   8.306  0.00  0.00    +0.000 A 
ATOM     13  C   UNL     1      46.049   3.872   7.476  0.00  0.00    +0.000 A 
ATOM     14  C   UNL     1      47.016   2.948   7.080  0.00  0.00    +0.000 A 
ATOM     15  C   UNL     1      46.949   1.638   7.546  0.00  0.00    +0.000 A 
ATOM     16  C   UNL     1      45.922   1.263   8.406  0.00  0.00    +0.000 A 
ATOM     17  C   UNL     1      44.954   2.194   8.797  0.00  0.00    +0.000 A 
ENDBRANCH  10  12
ENDBRANCH   9  10
ENDBRANCH   8   9
ENDBRANCH   5   8
ENDBRANCH   1   2
BRANCH   1  20
ATOM     18  C   UNL     1      48.485   5.694  17.263  0.00  0.00    +0.000 C 
ATOM     19  O   UNL     1      49.615   5.512  16.827  0.00  0.00    +0.000 OA
ATOM     20  N   UNL     1      47.396   5.009  16.773  0.00  0.00    +0.000 N 
ATOM     21  H   UNL     1      46.483   5.128  17.189  0.00  0.00    +0.000 HD
BRANCH  18  25
ATOM     22  C   UNL     1      47.401   7.542  21.767  0.00  0.00    +0.000 C 
ATOM     23  N   UNL     1      47.695   7.461  20.355  0.00  0.00    +0.000 N 
ATOM     24  C   UNL     1      47.982   6.318  19.662  0.00  0.00    +0.000 A 
ATOM     25  C   UNL     1      48.192   6.651  18.326  0.00  0.00    +0.000 A 
ATOM     26  C   UNL     1      48.019   8.080  18.228  0.00  0.00    +0.000 A 
ATOM     27  C   UNL     1      48.079   9.094  17.273  0.00  0.00    +0.000 A 
ATOM     28 CL   UNL     1      48.497   8.776  15.662  0.00  0.00    +0.000 Cl
ATOM     29  N   UNL     1      47.870  10.386  17.583  0.00  0.00    +0.000 NA
ATOM     30  C   UNL     1      47.589  10.666  18.860  0.00  0.00    +0.000 A 
ATOM     31  N   UNL     1      47.495   9.807  19.885  0.00  0.00    +0.000 NA
ATOM     32  C   UNL     1      47.721   8.535  19.510  0.00  0.00    +0.000 A 
ENDBRANCH  18  25
ENDBRANCH   1  20
TORSDOF 7
ENDMDL
MODEL 5
REMARK VINA RESULT:    -7.272      2.691      4.298
REMARK INTER + INTRA:         -11.611
REMARK INTER:                 -11.178
REMARK INTRA:                  -0.433
REMARK UNBOUND:                -1.363
REMARK  Name = 
REMARK  8 active torsions:
REMARK  status: ('A' for Active; 'I' for Inactive)
REMARK    1  A    between atoms: C_1  and  N_2
REMARK    2  A    between atoms: C_4  and  C_5
REMARK    3  A    between atoms: N_7  and  C_8
REMARK    4  A    between atoms: C_8  and  C_9
REMARK    5  A    between atoms: C_12  and  C_13
REMARK    6  A    between atoms: C_13  and  C_14
REMARK    7  A    between atoms: C_14  and  N_15
REMARK    8  A    between atoms: N_15  and  C_16
REMARK                            x       y       z     vdW  Elec       q    Type
REMARK                         _______ _______ _______ _____ _____    ______ ____
ROOT
ATOM      1  C   UNL     1      44.021   4.485  12.044  0.00  0.00    +0.000 C 
ENDROOT
BRANCH   1   2
ATOM      2  C   UNL     1      44.558   4.107  10.690  0.00  0.00    +0.000 A 
ATOM      3  C   UNL     1      45.263   5.048   9.939  0.00  0.00    +0.000 A 
ATOM      4  C   UNL     1      45.794   4.709   8.695  0.00  0.00    +0.000 A 
ATOM      5  C   UNL     1      45.624   3.418   8.167  0.00  0.00    +0.000 A 
ATOM      6  C   UNL     1      44.903   2.481   8.918  0.00  0.00    +0.000 A 
ATOM      7  C   UNL     1      44.371   2.823  10.166  0.00  0.00    +0.000 A 
BRANCH   5   8
ATOM      8  C   UNL     1      46.191   2.978   6.831  0.00  0.00    +0.000 C 
BRANCH   8   9
ATOM      9  C   UNL     1      47.354   1.994   6.934  0.00  0.00    +0.000 C 
BRANCH   9  10
ATOM     10  N   UNL     1      48.001   1.775   5.643  0.00  0.00    +0.000 N 
ATOM     11  H   UNL     1      48.942   1.391   5.734  0.00  0.00    +0.000 HD
BRANCH  10  12
ATOM     12  C   UNL     1      47.241   1.035   4.715  0.00  0.00    +0.000 A 
ATOM     13  C   UNL     1      46.494   1.639   3.696  0.00  0.00    +0.000 A 
ATOM     14  C   UNL     1      45.795   0.882   2.756  0.00  0.00    +0.000 A 
ATOM     15  C   UNL     1      45.866  -0.508   2.801  0.00  0.00    +0.000 A 
ATOM     16  C   UNL     1      46.637  -1.129   3.779  0.00  0.00    +0.000 A 
ATOM     17  C   UNL     1      47.332  -0.364   4.719  0.00  0.00    +0.000 A 
ENDBRANCH  10  12
ENDBRANCH   9  10
ENDBRANCH   8   9
ENDBRANCH   5   8
ENDBRANCH   1   2
BRANCH   1  20
ATOM     18  C   UNL     1      46.010   4.177  13.415  0.00  0.00    +0.000 C 
ATOM     19  O   UNL     1      46.061   2.991  13.112  0.00  0.00    +0.000 OA
ATOM     20  N   UNL     1      45.047   5.018  12.904  0.00  0.00    +0.000 N 
ATOM     21  H   UNL     1      44.983   5.977  13.215  0.00  0.00    +0.000 HD
BRANCH  18  25
ATOM     22  C   UNL     1      48.634   5.132  17.548  0.00  0.00    +0.000 C 
ATOM     23  N   UNL     1      48.123   5.221  16.199  0.00  0.00    +0.000 N 
ATOM     24  C   UNL     1      47.207   4.378  15.634  0.00  0.00    +0.000 A 
ATOM     25  C   UNL     1      46.960   4.801  14.330  0.00  0.00    +0.000 A 
ATOM     26  C   UNL     1      47.784   5.966  14.115  0.00  0.00    +0.000 A 
ATOM     27  C   UNL     1      48.080   6.887  13.111  0.00  0.00    +0.000 A 
ATOM     28 CL   UNL     1      47.392   6.773  11.567  0.00  0.00    +0.000 Cl
ATOM     29  N   UNL     1      48.971   7.879  13.286  0.00  0.00    +0.000 NA
ATOM     30  C   UNL     1      49.566   7.957  14.482  0.00  0.00    +0.000 A 
ATOM     31  N   UNL     1      49.385   7.154  15.539  0.00  0.00    +0.000 NA
ATOM     32  C   UNL     1      48.489   6.181  15.297  0.00  0.00    +0.000 A 
ENDBRANCH  18  25
ENDBRANCH   1  20
TORSDOF 7
ENDMDL
MODEL 6
REMARK VINA RESULT:    -7.190      2.423      3.233
REMARK INTER + INTRA:         -11.495
REMARK INTER:                 -10.666
REMARK INTRA:                  -0.829
REMARK UNBOUND:                -1.363
REMARK  Name = 
REMARK  8 active torsions:
REMARK  status: ('A' for Active; 'I' for Inactive)
REMARK    1  A    between atoms: C_1  and  N_2
REMARK    2  A    between atoms: C_4  and  C_5
REMARK    3  A    between atoms: N_7  and  C_8
REMARK    4  A    between atoms: C_8  and  C_9
REMARK    5  A    between atoms: C_12  and  C_13
REMARK    6  A    between atoms: C_13  and  C_14
REMARK    7  A    between atoms: C_14  and  N_15
REMARK    8  A    between atoms: N_15  and  C_16
REMARK                            x       y       z     vdW  Elec       q    Type
REMARK                         _______ _______ _______ _____ _____    ______ ____
ROOT
ATOM      1  C   UNL     1      48.823   7.555  15.768  0.00  0.00    +0.000 C 
ENDROOT
BRANCH   1   2
ATOM      2  C   UNL     1      48.101   7.144  14.513  0.00  0.00    +0.000 A 
ATOM      3  C   UNL     1      47.877   8.083  13.505  0.00  0.00    +0.000 A 
ATOM      4  C   UNL     1      47.237   7.715  12.323  0.00  0.00    +0.000 A 
ATOM      5  C   UNL     1      46.794   6.397  12.124  0.00  0.00    +0.000 A 
ATOM      6  C   UNL     1      47.007   5.462  13.145  0.00  0.00    +0.000 A 
ATOM      7  C   UNL     1      47.649   5.832  14.330  0.00  0.00    +0.000 A 
BRANCH   5   8
ATOM      8  C   UNL     1      46.107   5.926  10.856  0.00  0.00    +0.000 C 
BRANCH   8   9
ATOM      9  C   UNL     1      44.720   5.327  11.077  0.00  0.00    +0.000 C 
BRANCH   9  10
ATOM     10  N   UNL     1      44.095   4.918   9.823  0.00  0.00    +0.000 N 
ATOM     11  H   UNL     1      43.818   5.711   9.244  0.00  0.00    +0.000 HD
BRANCH  10  12
ATOM     12  C   UNL     1      44.830   3.978   9.071  0.00  0.00    +0.000 A 
ATOM     13  C   UNL     1      45.688   4.348   8.029  0.00  0.00    +0.000 A 
ATOM     14  C   UNL     1      46.447   3.404   7.338  0.00  0.00    +0.000 A 
ATOM     15  C   UNL     1      46.383   2.063   7.709  0.00  0.00    +0.000 A 
ATOM     16  C   UNL     1      45.568   1.679   8.770  0.00  0.00    +0.000 A 
ATOM     17  C   UNL     1      44.809   2.630   9.456  0.00  0.00    +0.000 A 
ENDBRANCH  10  12
ENDBRANCH   9  10
ENDBRANCH   8   9
ENDBRANCH   5   8
ENDBRANCH   1   2
BRANCH   1  20
ATOM     18  C   UNL     1      49.732   5.853  17.254  0.00  0.00    +0.000 C 
ATOM     19  O   UNL     1      48.720   5.885  17.944  0.00  0.00    +0.000 OA
ATOM     20  N   UNL     1      49.866   6.626  16.121  0.00  0.00    +0.000 N 
ATOM     21  H   UNL     1      50.732   6.632  15.602  0.00  0.00    +0.000 HD
BRANCH  18  25
ATOM     22  C   UNL     1      54.336   4.425  18.537  0.00  0.00    +0.000 C 
ATOM     23  N   UNL     1      52.950   4.375  18.131  0.00  0.00    +0.000 N 
ATOM     24  C   UNL     1      52.123   5.454  17.976  0.00  0.00    +0.000 A 
ATOM     25  C   UNL     1      50.874   4.997  17.562  0.00  0.00    +0.000 A 
ATOM     26  C   UNL     1      50.972   3.561  17.469  0.00  0.00    +0.000 A 
ATOM     27  C   UNL     1      50.179   2.460  17.150  0.00  0.00    +0.000 A 
ATOM     28 CL   UNL     1      48.543   2.630  16.743  0.00  0.00    +0.000 Cl
ATOM     29  N   UNL     1      50.643   1.199  17.205  0.00  0.00    +0.000 NA
ATOM     30  C   UNL     1      51.918   1.037  17.574  0.00  0.00    +0.000 A 
ATOM     31  N   UNL     1      52.801   1.990  17.907  0.00  0.00    +0.000 NA
ATOM     32  C   UNL     1      52.273   3.225  17.838  0.00  0.00    +0.000 A 
ENDBRANCH  18  25
ENDBRANCH   1  20
TORSDOF 7
ENDMDL
MODEL 7
REMARK VINA RESULT:    -7.049      2.221      3.484
REMARK INTER + INTRA:         -11.296
REMARK INTER:                 -10.468
REMARK INTRA:                  -0.829
REMARK UNBOUND:                -1.363
REMARK  Name = 
REMARK  8 active torsions:
REMARK  status: ('A' for Active; 'I' for Inactive)
REMARK    1  A    between atoms: C_1  and  N_2
REMARK    2  A    between atoms: C_4  and  C_5
REMARK    3  A    between atoms: N_7  and  C_8
REMARK    4  A    between atoms: C_8  and  C_9
REMARK    5  A    between atoms: C_12  and  C_13
REMARK    6  A    between atoms: C_13  and  C_14
REMARK    7  A    between atoms: C_14  and  N_15
REMARK    8  A    between atoms: N_15  and  C_16
REMARK                            x       y       z     vdW  Elec       q    Type
REMARK                         _______ _______ _______ _____ _____    ______ ____
ROOT
ATOM      1  C   UNL     1      44.641   4.083  13.040  0.00  0.00    +0.000 C 
ENDROOT
BRANCH   1   2
ATOM      2  C   UNL     1      44.836   3.956  11.554  0.00  0.00    +0.000 A 
ATOM      3  C   UNL     1      45.324   5.042  10.825  0.00  0.00    +0.000 A 
ATOM      4  C   UNL     1      45.538   4.936   9.452  0.00  0.00    +0.000 A 
ATOM      5  C   UNL     1      45.259   3.740   8.769  0.00  0.00    +0.000 A 
ATOM      6  C   UNL     1      44.755   2.658   9.502  0.00  0.00    +0.000 A 
ATOM      7  C   UNL     1      44.540   2.766  10.880  0.00  0.00    +0.000 A 
BRANCH   5   8
ATOM      8  C   UNL     1      45.487   3.551   7.282  0.00  0.00    +0.000 C 
BRANCH   8   9
ATOM      9  C   UNL     1      46.942   3.296   6.895  0.00  0.00    +0.000 C 
BRANCH   9  10
ATOM     10  N   UNL     1      47.115   3.208   5.448  0.00  0.00    +0.000 N 
ATOM     11  H   UNL     1      47.999   3.609   5.132  0.00  0.00    +0.000 HD
BRANCH  10  12
ATOM     12  C   UNL     1      46.921   1.923   4.902  0.00  0.00    +0.000 A 
ATOM     13  C   UNL     1      46.519   1.718   3.577  0.00  0.00    +0.000 A 
ATOM     14  C   UNL     1      46.388   0.435   3.045  0.00  0.00    +0.000 A 
ATOM     15  C   UNL     1      46.697  -0.672   3.831  0.00  0.00    +0.000 A 
ATOM     16  C   UNL     1      47.138  -0.489   5.137  0.00  0.00    +0.000 A 
ATOM     17  C   UNL     1      47.265   0.799   5.665  0.00  0.00    +0.000 A 
ENDBRANCH  10  12
ENDBRANCH   9  10
ENDBRANCH   8   9
ENDBRANCH   5   8
ENDBRANCH   1   2
BRANCH   1  20
ATOM     18  C   UNL     1      46.800   4.441  14.111  0.00  0.00    +0.000 C 
ATOM     19  O   UNL     1      47.085   3.257  13.980  0.00  0.00    +0.000 OA
ATOM     20  N   UNL     1      45.614   4.961  13.640  0.00  0.00    +0.000 N 
ATOM     21  H   UNL     1      45.370   5.926  13.814  0.00  0.00    +0.000 HD
BRANCH  18  25
ATOM     22  C   UNL     1      49.804   8.362  14.801  0.00  0.00    +0.000 C 
ATOM     23  N   UNL     1      49.039   7.162  15.052  0.00  0.00    +0.000 N 
ATOM     24  C   UNL     1      48.235   6.523  14.150  0.00  0.00    +0.000 A 
ATOM     25  C   UNL     1      47.685   5.400  14.764  0.00  0.00    +0.000 A 
ATOM     26  C   UNL     1      48.196   5.379  16.112  0.00  0.00    +0.000 A 
ATOM     27  C   UNL     1      48.096   4.616  17.275  0.00  0.00    +0.000 A 
ATOM     28 CL   UNL     1      47.088   3.257  17.363  0.00  0.00    +0.000 Cl
ATOM     29  N   UNL     1      48.741   4.944  18.408  0.00  0.00    +0.000 NA
ATOM     30  C   UNL     1      49.503   6.043  18.377  0.00  0.00    +0.000 A 
ATOM     31  N   UNL     1      49.700   6.872  17.342  0.00  0.00    +0.000 NA
ATOM     32  C   UNL     1      49.023   6.493  16.244  0.00  0.00    +0.000 A 
ENDBRANCH  18  25
ENDBRANCH   1  20
TORSDOF 7
ENDMDL
MODEL 8
REMARK VINA RESULT:    -6.869      2.662      4.439
REMARK INTER + INTRA:         -11.042
REMARK INTER:                 -10.043
REMARK INTRA:                  -0.999
REMARK UNBOUND:                -1.363
REMARK  Name = 
REMARK  8 active torsions:
REMARK  status: ('A' for Active; 'I' for Inactive)
REMARK    1  A    between atoms: C_1  and  N_2
REMARK    2  A    between atoms: C_4  and  C_5
REMARK    3  A    between atoms: N_7  and  C_8
REMARK    4  A    between atoms: C_8  and  C_9
REMARK    5  A    between atoms: C_12  and  C_13
REMARK    6  A    between atoms: C_13  and  C_14
REMARK    7  A    between atoms: C_14  and  N_15
REMARK    8  A    between atoms: N_15  and  C_16
REMARK                            x       y       z     vdW  Elec       q    Type
REMARK                         _______ _______ _______ _____ _____    ______ ____
ROOT
ATOM      1  C   UNL     1      47.185   5.353  14.396  0.00  0.00    +0.000 C 
ENDROOT
BRANCH   1   2
ATOM      2  C   UNL     1      46.381   4.897  13.209  0.00  0.00    +0.000 A 
ATOM      3  C   UNL     1      46.130   3.537  13.026  0.00  0.00    +0.000 A 
ATOM      4  C   UNL     1      45.362   3.096  11.948  0.00  0.00    +0.000 A 
ATOM      5  C   UNL     1      44.833   4.008  11.020  0.00  0.00    +0.000 A 
ATOM      6  C   UNL     1      45.101   5.372  11.200  0.00  0.00    +0.000 A 
ATOM      7  C   UNL     1      45.871   5.812  12.280  0.00  0.00    +0.000 A 
BRANCH   5   8
ATOM      8  C   UNL     1      43.976   3.598   9.838  0.00  0.00    +0.000 C 
BRANCH   8   9
ATOM      9  C   UNL     1      44.486   4.099   8.488  0.00  0.00    +0.000 C 
BRANCH   9  10
ATOM     10  N   UNL     1      45.942   4.049   8.402  0.00  0.00    +0.000 N 
ATOM     11  H   UNL     1      46.390   4.027   9.318  0.00  0.00    +0.000 HD
BRANCH  10  12
ATOM     12  C   UNL     1      46.455   3.036   7.566  0.00  0.00    +0.000 A 
ATOM     13  C   UNL     1      46.540   1.697   7.966  0.00  0.00    +0.000 A 
ATOM     14  C   UNL     1      46.999   0.705   7.099  0.00  0.00    +0.000 A 
ATOM     15  C   UNL     1      47.348   1.038   5.793  0.00  0.00    +0.000 A 
ATOM     16  C   UNL     1      47.231   2.355   5.362  0.00  0.00    +0.000 A 
ATOM     17  C   UNL     1      46.773   3.345   6.236  0.00  0.00    +0.000 A 
ENDBRANCH  10  12
ENDBRANCH   9  10
ENDBRANCH   8   9
ENDBRANCH   5   8
ENDBRANCH   1   2
BRANCH   1  20
ATOM     18  C   UNL     1      48.701   7.222  14.776  0.00  0.00    +0.000 C 
ATOM     19  O   UNL     1      49.581   6.458  15.153  0.00  0.00    +0.000 OA
ATOM     20  N   UNL     1      47.477   6.764  14.341  0.00  0.00    +0.000 N 
ATOM     21  H   UNL     1      46.743   7.413  14.095  0.00  0.00    +0.000 HD
BRANCH  18  25
ATOM     22  C   UNL     1      49.186  11.938  16.324  0.00  0.00    +0.000 C 
ATOM     23  N   UNL     1      49.077  10.785  15.461  0.00  0.00    +0.000 N 
ATOM     24  C   UNL     1      48.967   9.485  15.872  0.00  0.00    +0.000 A 
ATOM     25  C   UNL     1      48.870   8.671  14.747  0.00  0.00    +0.000 A 
ATOM     26  C   UNL     1      48.927   9.547  13.601  0.00  0.00    +0.000 A 
ATOM     27  C   UNL     1      48.906   9.478  12.209  0.00  0.00    +0.000 A 
ATOM     28 CL   UNL     1      48.821   7.996  11.393  0.00  0.00    +0.000 Cl
ATOM     29  N   UNL     1      49.013  10.571  11.434  0.00  0.00    +0.000 NA
ATOM     30  C   UNL     1      49.134  11.749  12.057  0.00  0.00    +0.000 A 
ATOM     31  N   UNL     1      49.167  11.975  13.377  0.00  0.00    +0.000 NA
ATOM     32  C   UNL     1      49.063  10.842  14.095  0.00  0.00    +0.000 A 
ENDBRANCH  18  25
ENDBRANCH   1  20
TORSDOF 7
ENDMDL
MODEL 9
REMARK VINA RESULT:    -6.664      3.739      9.452
REMARK INTER + INTRA:         -10.754
REMARK INTER:                  -8.776
REMARK INTRA:                  -1.978
REMARK UNBOUND:                -1.363
REMARK  Name = 
REMARK  8 active torsions:
REMARK  status: ('A' for Active; 'I' for Inactive)
REMARK    1  A    between atoms: C_1  and  N_2
REMARK    2  A    between atoms: C_4  and  C_5
REMARK    3  A    between atoms: N_7  and  C_8
REMARK    4  A    between atoms: C_8  and  C_9
REMARK    5  A    between atoms: C_12  and  C_13
REMARK    6  A    between atoms: C_13  and  C_14
REMARK    7  A    between atoms: C_14  and  N_15
REMARK    8  A    between atoms: N_15  and  C_16
REMARK                            x       y       z     vdW  Elec       q    Type
REMARK                         _______ _______ _______ _____ _____    ______ ____
ROOT
ATOM      1  C   UNL     1      47.940   3.945  16.588  0.00  0.00    +0.000 C 
ENDROOT
BRANCH   1   2
ATOM      2  C   UNL     1      47.966   4.529  17.975  0.00  0.00    +0.000 A 
ATOM      3  C   UNL     1      49.006   4.199  18.845  0.00  0.00    +0.000 A 
ATOM      4  C   UNL     1      49.063   4.753  20.123  0.00  0.00    +0.000 A 
ATOM      5  C   UNL     1      48.073   5.645  20.567  0.00  0.00    +0.000 A 
ATOM      6  C   UNL     1      47.023   5.961  19.696  0.00  0.00    +0.000 A 
ATOM      7  C   UNL     1      46.966   5.405  18.414  0.00  0.00    +0.000 A 
BRANCH   5   8
ATOM      8  C   UNL     1      48.086   6.296  21.937  0.00  0.00    +0.000 C 
BRANCH   8   9
ATOM      9  C   UNL     1      47.884   7.810  21.915  0.00  0.00    +0.000 C 
BRANCH   9  10
ATOM     10  N   UNL     1      49.048   8.509  21.378  0.00  0.00    +0.000 N 
ATOM     11  H   UNL     1      49.929   8.068  21.645  0.00  0.00    +0.000 HD
BRANCH  10  12
ATOM     12  C   UNL     1      49.007   8.753  19.990  0.00  0.00    +0.000 A 
ATOM     13  C   UNL     1      49.967   8.248  19.105  0.00  0.00    +0.000 A 
ATOM     14  C   UNL     1      49.873   8.458  17.730  0.00  0.00    +0.000 A 
ATOM     15  C   UNL     1      48.784   9.154  17.211  0.00  0.00    +0.000 A 
ATOM     16  C   UNL     1      47.797   9.628  18.069  0.00  0.00    +0.000 A 
ATOM     17  C   UNL     1      47.898   9.416  19.447  0.00  0.00    +0.000 A 
ENDBRANCH  10  12
ENDBRANCH   9  10
ENDBRANCH   8   9
ENDBRANCH   5   8
ENDBRANCH   1   2
BRANCH   1  20
ATOM     18  C   UNL     1      46.812   4.180  14.443  0.00  0.00    +0.000 C 
ATOM     19  O   UNL     1      47.370   3.178  14.015  0.00  0.00    +0.000 OA
ATOM     20  N   UNL     1      47.002   4.627  15.732  0.00  0.00    +0.000 N 
ATOM     21  H   UNL     1      46.583   5.491  16.045  0.00  0.00    +0.000 HD
BRANCH  18  25
ATOM     22  C   UNL     1      42.825   5.490  11.747  0.00  0.00    +0.000 C 
ATOM     23  N   UNL     1      44.102   5.549  12.420  0.00  0.00    +0.000 N 
ATOM     24  C   UNL     1      44.658   4.549  13.170  0.00  0.00    +0.000 A 
ATOM     25  C   UNL     1      45.897   4.982  13.636  0.00  0.00    +0.000 A 
ATOM     26  C   UNL     1      46.080   6.320  13.130  0.00  0.00    +0.000 A 
ATOM     27  C   UNL     1      47.013   7.355  13.177  0.00  0.00    +0.000 A 
ATOM     28 CL   UNL     1      48.441   7.226  14.080  0.00  0.00    +0.000 Cl
ATOM     29  N   UNL     1      46.810   8.535  12.563  0.00  0.00    +0.000 NA
ATOM     30  C   UNL     1      45.665   8.678  11.887  0.00  0.00    +0.000 A 
ATOM     31  N   UNL     1      44.679   7.781  11.748  0.00  0.00    +0.000 NA
ATOM     32  C   UNL     1      44.940   6.628  12.390  0.00  0.00    +0.000 A 
ENDBRANCH  18  25
ENDBRANCH   1  20
TORSDOF 7
ENDMDL
