MODEL 1
REMARK VINA RESULT:    -6.905      0.000      0.000
REMARK INTER + INTRA:          -8.976
REMARK INTER:                  -8.721
REMARK INTRA:                  -0.255
REMARK UNBOUND:                -0.255
REMARK  Name = 
REMARK  5 active torsions:
REMARK  status: ('A' for Active; 'I' for Inactive)
REMARK    1  A    between atoms: N_1  and  C_2
REMARK    2  A    between atoms: C_2  and  C_3
REMARK    3  A    between atoms: C_7  and  C_8
REMARK    4  A    between atoms: C_8  and  N_9
REMARK    5  A    between atoms: N_9  and  C_10
REMARK                            x       y       z     vdW  Elec       q    Type
REMARK                         _______ _______ _______ _____ _____    ______ ____
ROOT
ATOM      1  C   UNL     1      47.046   2.323   6.957  0.00  0.00    +0.000 A 
ATOM      2  C   UNL     1      46.831   1.085   7.552  0.00  0.00    +0.000 A 
ATOM      3  N   UNL     1      45.896   0.849   8.498  0.00  0.00    +0.000 NA
ATOM      4  C   UNL     1      45.123   1.898   8.856  0.00  0.00    +0.000 A 
ATOM      5  C   UNL     1      45.221   3.178   8.311  0.00  0.00    +0.000 A 
ATOM      6  C   UNL     1      46.215   3.381   7.349  0.00  0.00    +0.000 A 
ENDROOT
BRANCH   1   7
ATOM      7  C   UNL     1      48.117   2.503   5.922  0.00  0.00    +0.000 C 
BRANCH   7   8
ATOM      8  N   UNL     1      48.182   1.360   5.023  0.00  0.00    +0.000 NA
ATOM      9  H   UNL     1      48.205   1.691   4.060  0.00  0.00    +0.000 HD
ATOM     10  H   UNL     1      47.328   0.813   5.117  0.00  0.00    +0.000 HD
ENDBRANCH   7   8
ENDBRANCH   1   7
BRANCH   5  11
ATOM     11  C   UNL     1      44.350   4.280   8.862  0.00  0.00    +0.000 C 
BRANCH  11  12
ATOM     12  N   UNL     1      44.918   4.971  10.030  0.00  0.00    +0.000 NA
ATOM     13  H   UNL     1      44.469   5.885  10.097  0.00  0.00    +0.000 HD
BRANCH  12  14
ATOM     14  C   UNL     1      44.671   4.237  11.291  0.00  0.00    +0.000 C 
ATOM     15  C   UNL     1      43.155   4.048  11.498  0.00  0.00    +0.000 C 
ATOM     16  C   UNL     1      42.461   5.324  11.974  0.00  0.00    +0.000 C 
ATOM     17  N   UNL     1      43.070   5.856  13.196  0.00  0.00    +0.000 NA
ATOM     18  C   UNL     1      44.487   6.150  12.970  0.00  0.00    +0.000 C 
ATOM     19  C   UNL     1      45.257   4.900  12.550  0.00  0.00    +0.000 C 
ATOM     20  H   UNL     1      42.986   5.166  13.942  0.00  0.00    +0.000 HD
ENDBRANCH  12  14
ENDBRANCH  11  12
ENDBRANCH   5  11
TORSDOF 5
ENDMDL
MODEL 2
REMARK VINA RESULT:    -6.888      1.523      1.976
REMARK INTER + INTRA:          -8.955
REMARK INTER:                  -8.501
REMARK INTRA:                  -0.454
REMARK UNBOUND:                -0.255
REMARK  Name = 
REMARK  5 active torsions:
REMARK  status: ('A' for Active; 'I' for Inactive)
REMARK    1  A    between atoms: N_1  and  C_2
REMARK    2  A    between atoms: C_2  and  C_3
REMARK    3  A    between atoms: C_7  and  C_8
REMARK    4  A    between atoms: C_8  and  N_9
REMARK    5  A    between atoms: N_9  and  C_10
REMARK                            x       y       z     vdW  Elec       q    Type
REMARK                         _______ _______ _______ _____ _____    ______ ____
ROOT
ATOM      1  C   UNL     1      46.687   2.188   7.377  0.00  0.00    +0.000 A 
ATOM      2  C   UNL     1      46.771   3.543   7.078  0.00  0.00    +0.000 A 
ATOM      3  N   UNL     1      46.068   4.506   7.713  0.00  0.00    +0.000 NA
ATOM      4  C   UNL     1      45.253   4.099   8.711  0.00  0.00    +0.000 A 
ATOM      5  C   UNL     1      45.105   2.775   9.124  0.00  0.00    +0.000 A 
ATOM      6  C   UNL     1      45.837   1.809   8.426  0.00  0.00    +0.000 A 
ENDROOT
BRANCH   1   7
ATOM      7  C   UNL     1      47.492   1.180   6.612  0.00  0.00    +0.000 C 
BRANCH   7   8
ATOM      8  N   UNL     1      48.434   1.829   5.710  0.00  0.00    +0.000 NA
ATOM      9  H   UNL     1      49.218   1.202   5.536  0.00  0.00    +0.000 HD
ATOM     10  H   UNL     1      48.820   2.652   6.168  0.00  0.00    +0.000 HD
ENDBRANCH   7   8
ENDBRANCH   1   7
BRANCH   5  11
ATOM     11  C   UNL     1      44.097   2.448  10.197  0.00  0.00    +0.000 C 
BRANCH  11  12
ATOM     12  N   UNL     1      43.511   3.627  10.854  0.00  0.00    +0.000 NA
ATOM     13  H   UNL     1      42.508   3.620  10.667  0.00  0.00    +0.000 HD
BRANCH  12  14
ATOM     14  C   UNL     1      43.711   3.607  12.321  0.00  0.00    +0.000 C 
ATOM     15  C   UNL     1      43.071   4.858  12.953  0.00  0.00    +0.000 C 
ATOM     16  C   UNL     1      43.909   6.120  12.744  0.00  0.00    +0.000 C 
ATOM     17  N   UNL     1      45.280   5.956  13.236  0.00  0.00    +0.000 NA
ATOM     18  C   UNL     1      45.934   4.839  12.551  0.00  0.00    +0.000 C 
ATOM     19  C   UNL     1      45.181   3.529  12.771  0.00  0.00    +0.000 C 
ATOM     20  H   UNL     1      45.257   5.767  14.238  0.00  0.00    +0.000 HD
ENDBRANCH  12  14
ENDBRANCH  11  12
ENDBRANCH   5  11
TORSDOF 5
ENDMDL
MODEL 3
REMARK VINA RESULT:    -6.708      0.859      1.620
REMARK INTER + INTRA:          -8.727
REMARK INTER:                  -8.369
REMARK INTRA:                  -0.359
REMARK UNBOUND:                -0.255
REMARK  Name = 
REMARK  5 active torsions:
REMARK  status: ('A' for Active; 'I' for Inactive)
REMARK    1  A    between atoms: N_1  and  C_2
REMARK    2  A    between atoms: C_2  and  C_3
REMARK    3  A    between atoms: C_7  and  C_8
REMARK    4  A    between atoms: C_8  and  N_9
REMARK    5  A    between atoms: N_9  and  C_10
REMARK                            x       y       z     vdW  Elec       q    Type
REMARK                         _______ _______ _______ _____ _____    ______ ____
ROOT
ATOM      1  C   UNL     1      46.884   2.413   6.647  0.00  0.00    +0.000 A 
ATOM      2  C   UNL     1      46.905   1.220   7.361  0.00  0.00    +0.000 A 
ATOM      3  N   UNL     1      46.164   0.983   8.466  0.00  0.00    +0.000 NA
ATOM      4  C   UNL     1      45.346   1.980   8.868  0.00  0.00    +0.000 A 
ATOM      5  C   UNL     1      45.213   3.207   8.219  0.00  0.00    +0.000 A 
ATOM      6  C   UNL     1      46.013   3.417   7.092  0.00  0.00    +0.000 A 
ENDROOT
BRANCH   1   7
ATOM      7  C   UNL     1      47.751   2.599   5.437  0.00  0.00    +0.000 C 
BRANCH   7   8
ATOM      8  N   UNL     1      48.197   1.321   4.903  0.00  0.00    +0.000 NA
ATOM      9  H   UNL     1      47.519   0.601   5.146  0.00  0.00    +0.000 HD
ATOM     10  H   UNL     1      49.071   1.057   5.356  0.00  0.00    +0.000 HD
ENDBRANCH   7   8
ENDBRANCH   1   7
BRANCH   5  11
ATOM     11  C   UNL     1      44.323   4.265   8.824  0.00  0.00    +0.000 C 
BRANCH  11  12
ATOM     12  N   UNL     1      44.956   5.044   9.899  0.00  0.00    +0.000 NA
ATOM     13  H   UNL     1      45.322   5.902   9.486  0.00  0.00    +0.000 HD
BRANCH  12  14
ATOM     14  C   UNL     1      43.996   5.413  10.963  0.00  0.00    +0.000 C 
ATOM     15  C   UNL     1      44.757   5.890  12.215  0.00  0.00    +0.000 C 
ATOM     16  C   UNL     1      45.367   4.735  13.010  0.00  0.00    +0.000 C 
ATOM     17  N   UNL     1      44.362   3.737  13.387  0.00  0.00    +0.000 NA
ATOM     18  C   UNL     1      43.715   3.192  12.191  0.00  0.00    +0.000 C 
ATOM     19  C   UNL     1      43.029   4.288  11.378  0.00  0.00    +0.000 C 
ATOM     20  H   UNL     1      43.657   4.177  13.978  0.00  0.00    +0.000 HD
ENDBRANCH  12  14
ENDBRANCH  11  12
ENDBRANCH   5  11
TORSDOF 5
ENDMDL
MODEL 4
REMARK VINA RESULT:    -5.892      2.541      3.689
REMARK INTER + INTRA:          -7.697
REMARK INTER:                  -7.307
REMARK INTRA:                  -0.390
REMARK UNBOUND:                -0.255
REMARK  Name = 
REMARK  5 active torsions:
REMARK  status: ('A' for Active; 'I' for Inactive)
REMARK    1  A    between atoms: N_1  and  C_2
REMARK    2  A    between atoms: C_2  and  C_3
REMARK    3  A    between atoms: C_7  and  C_8
REMARK    4  A    between atoms: C_8  and  N_9
REMARK    5  A    between atoms: N_9  and  C_10
REMARK                            x       y       z     vdW  Elec       q    Type
REMARK                         _______ _______ _______ _____ _____    ______ ____
ROOT
ATOM      1  C   UNL     1      45.205   3.539   8.838  0.00  0.00    +0.000 A 
ATOM      2  C   UNL     1      44.402   2.564   9.419  0.00  0.00    +0.000 A 
ATOM      3  N   UNL     1      43.734   2.723  10.583  0.00  0.00    +0.000 NA
ATOM      4  C   UNL     1      43.859   3.924  11.189  0.00  0.00    +0.000 A 
ATOM      5  C   UNL     1      44.608   4.990  10.692  0.00  0.00    +0.000 A 
ATOM      6  C   UNL     1      45.298   4.774   9.495  0.00  0.00    +0.000 A 
ENDROOT
BRANCH   1   7
ATOM      7  C   UNL     1      45.925   3.275   7.549  0.00  0.00    +0.000 C 
BRANCH   7   8
ATOM      8  N   UNL     1      46.804   4.381   7.197  0.00  0.00    +0.000 NA
ATOM      9  H   UNL     1      47.773   4.088   7.312  0.00  0.00    +0.000 HD
ATOM     10  H   UNL     1      46.656   5.146   7.853  0.00  0.00    +0.000 HD
ENDBRANCH   7   8
ENDBRANCH   1   7
BRANCH   5  11
ATOM     11  C   UNL     1      44.729   6.250  11.513  0.00  0.00    +0.000 C 
BRANCH  11  12
ATOM     12  N   UNL     1      45.411   6.065  12.804  0.00  0.00    +0.000 NA
ATOM     13  H   UNL     1      44.822   5.466  13.383  0.00  0.00    +0.000 HD
BRANCH  12  14
ATOM     14  C   UNL     1      46.731   5.413  12.651  0.00  0.00    +0.000 C 
ATOM     15  C   UNL     1      46.845   4.226  13.627  0.00  0.00    +0.000 C 
ATOM     16  C   UNL     1      47.105   4.669  15.067  0.00  0.00    +0.000 C 
ATOM     17  N   UNL     1      48.295   5.519  15.173  0.00  0.00    +0.000 NA
ATOM     18  C   UNL     1      48.141   6.711  14.336  0.00  0.00    +0.000 C 
ATOM     19  C   UNL     1      47.939   6.342  12.868  0.00  0.00    +0.000 C 
ATOM     20  H   UNL     1      49.112   4.994  14.862  0.00  0.00    +0.000 HD
ENDBRANCH  12  14
ENDBRANCH  11  12
ENDBRANCH   5  11
TORSDOF 5
ENDMDL
MODEL 5
REMARK VINA RESULT:    -5.885      1.440      6.695
REMARK INTER + INTRA:          -7.688
REMARK INTER:                  -7.382
REMARK INTRA:                  -0.306
REMARK UNBOUND:                -0.255
REMARK  Name = 
REMARK  5 active torsions:
REMARK  status: ('A' for Active; 'I' for Inactive)
REMARK    1  A    between atoms: N_1  and  C_2
REMARK    2  A    between atoms: C_2  and  C_3
REMARK    3  A    between atoms: C_7  and  C_8
REMARK    4  A    between atoms: C_8  and  N_9
REMARK    5  A    between atoms: N_9  and  C_10
REMARK                            x       y       z     vdW  Elec       q    Type
REMARK                         _______ _______ _______ _____ _____    ______ ____
ROOT
ATOM      1  C   UNL     1      44.207   4.730  11.543  0.00  0.00    +0.000 A 
ATOM      2  C   UNL     1      43.591   3.485  11.585  0.00  0.00    +0.000 A 
ATOM      3  N   UNL     1      43.670   2.564  10.599  0.00  0.00    +0.000 NA
ATOM      4  C   UNL     1      44.419   2.896   9.524  0.00  0.00    +0.000 A 
ATOM      5  C   UNL     1      45.109   4.099   9.379  0.00  0.00    +0.000 A 
ATOM      6  C   UNL     1      44.982   5.030  10.414  0.00  0.00    +0.000 A 
ENDROOT
BRANCH   1   7
ATOM      7  C   UNL     1      44.056   5.701  12.677  0.00  0.00    +0.000 C 
BRANCH   7   8
ATOM      8  N   UNL     1      42.766   5.550  13.335  0.00  0.00    +0.000 NA
ATOM      9  H   UNL     1      42.478   6.449  13.718  0.00  0.00    +0.000 HD
ATOM     10  H   UNL     1      42.869   4.920  14.128  0.00  0.00    +0.000 HD
ENDBRANCH   7   8
ENDBRANCH   1   7
BRANCH   5  11
ATOM     11  C   UNL     1      45.841   4.375   8.089  0.00  0.00    +0.000 C 
BRANCH  11  12
ATOM     12  N   UNL     1      45.880   3.234   7.161  0.00  0.00    +0.000 NA
ATOM     13  H   UNL     1      45.362   3.499   6.322  0.00  0.00    +0.000 HD
BRANCH  12  14
ATOM     14  C   UNL     1      47.261   2.884   6.763  0.00  0.00    +0.000 C 
ATOM     15  C   UNL     1      47.397   2.948   5.229  0.00  0.00    +0.000 C 
ATOM     16  C   UNL     1      46.771   1.742   4.530  0.00  0.00    +0.000 C 
ATOM     17  N   UNL     1      47.315   0.475   5.027  0.00  0.00    +0.000 NA
ATOM     18  C   UNL     1      47.083   0.355   6.468  0.00  0.00    +0.000 C 
ATOM     19  C   UNL     1      47.738   1.500   7.238  0.00  0.00    +0.000 C 
ATOM     20  H   UNL     1      48.318   0.446   4.846  0.00  0.00    +0.000 HD
ENDBRANCH  12  14
ENDBRANCH  11  12
ENDBRANCH   5  11
TORSDOF 5
ENDMDL
MODEL 6
REMARK VINA RESULT:    -5.615      3.795      7.202
REMARK INTER + INTRA:          -7.347
REMARK INTER:                  -7.295
REMARK INTRA:                  -0.052
REMARK UNBOUND:                -0.255
REMARK  Name = 
REMARK  5 active torsions:
REMARK  status: ('A' for Active; 'I' for Inactive)
REMARK    1  A    between atoms: N_1  and  C_2
REMARK    2  A    between atoms: C_2  and  C_3
REMARK    3  A    between atoms: C_7  and  C_8
REMARK    4  A    between atoms: C_8  and  N_9
REMARK    5  A    between atoms: N_9  and  C_10
REMARK                            x       y       z     vdW  Elec       q    Type
REMARK                         _______ _______ _______ _____ _____    ______ ____
ROOT
ATOM      1  C   UNL     1      47.966   4.445  16.566  0.00  0.00    +0.000 A 
ATOM      2  C   UNL     1      48.880   5.493  16.546  0.00  0.00    +0.000 A 
ATOM      3  N   UNL     1      49.010   6.368  15.525  0.00  0.00    +0.000 NA
ATOM      4  C   UNL     1      48.173   6.200  14.478  0.00  0.00    +0.000 A 
ATOM      5  C   UNL     1      47.196   5.209  14.393  0.00  0.00    +0.000 A 
ATOM      6  C   UNL     1      47.110   4.313  15.464  0.00  0.00    +0.000 A 
ENDROOT
BRANCH   1   7
ATOM      7  C   UNL     1      47.897   3.508  17.735  0.00  0.00    +0.000 C 
BRANCH   7   8
ATOM      8  N   UNL     1      46.672   2.721  17.712  0.00  0.00    +0.000 NA
ATOM      9  H   UNL     1      46.014   3.146  17.060  0.00  0.00    +0.000 HD
ATOM     10  H   UNL     1      46.232   2.762  18.630  0.00  0.00    +0.000 HD
ENDBRANCH   7   8
ENDBRANCH   1   7
BRANCH   5  11
ATOM     11  C   UNL     1      46.384   5.083  13.128  0.00  0.00    +0.000 C 
BRANCH  11  12
ATOM     12  N   UNL     1      45.631   3.823  13.017  0.00  0.00    +0.000 NA
ATOM     13  H   UNL     1      45.819   3.275  13.857  0.00  0.00    +0.000 HD
BRANCH  12  14
ATOM     14  C   UNL     1      44.172   4.050  12.925  0.00  0.00    +0.000 C 
ATOM     15  C   UNL     1      43.570   3.149  11.829  0.00  0.00    +0.000 C 
ATOM     16  C   UNL     1      43.852   3.667  10.419  0.00  0.00    +0.000 C 
ATOM     17  N   UNL     1      43.393   5.048  10.239  0.00  0.00    +0.000 NA
ATOM     18  C   UNL     1      44.054   5.931  11.203  0.00  0.00    +0.000 C 
ATOM     19  C   UNL     1      43.762   5.506  12.641  0.00  0.00    +0.000 C 
ATOM     20  H   UNL     1      42.385   5.088  10.383  0.00  0.00    +0.000 HD
ENDBRANCH  12  14
ENDBRANCH  11  12
ENDBRANCH   5  11
TORSDOF 5
ENDMDL
MODEL 7
REMARK VINA RESULT:    -5.589      2.230      6.265
REMARK INTER + INTRA:          -7.314
REMARK INTER:                  -6.852
REMARK INTRA:                  -0.461
REMARK UNBOUND:                -0.255
REMARK  Name = 
REMARK  5 active torsions:
REMARK  status: ('A' for Active; 'I' for Inactive)
REMARK    1  A    between atoms: N_1  and  C_2
REMARK    2  A    between atoms: C_2  and  C_3
REMARK    3  A    between atoms: C_7  and  C_8
REMARK    4  A    between atoms: C_8  and  N_9
REMARK    5  A    between atoms: N_9  and  C_10
REMARK                            x       y       z     vdW  Elec       q    Type
REMARK                         _______ _______ _______ _____ _____    ______ ____
ROOT
ATOM      1  C   UNL     1      46.108   6.920  12.542  0.00  0.00    +0.000 A 
ATOM      2  C   UNL     1      47.098   6.445  13.395  0.00  0.00    +0.000 A 
ATOM      3  N   UNL     1      47.257   5.144  13.723  0.00  0.00    +0.000 NA
ATOM      4  C   UNL     1      46.396   4.270  13.157  0.00  0.00    +0.000 A 
ATOM      5  C   UNL     1      45.384   4.619  12.264  0.00  0.00    +0.000 A 
ATOM      6  C   UNL     1      45.243   5.979  11.968  0.00  0.00    +0.000 A 
ENDROOT
BRANCH   1   7
ATOM      7  C   UNL     1      45.991   8.385  12.240  0.00  0.00    +0.000 C 
BRANCH   7   8
ATOM      8  N   UNL     1      46.207   9.190  13.434  0.00  0.00    +0.000 NA
ATOM      9  H   UNL     1      45.316   9.339  13.904  0.00  0.00    +0.000 HD
ATOM     10  H   UNL     1      46.544  10.111  13.158  0.00  0.00    +0.000 HD
ENDBRANCH   7   8
ENDBRANCH   1   7
BRANCH   5  11
ATOM     11  C   UNL     1      44.439   3.552  11.770  0.00  0.00    +0.000 C 
BRANCH  11  12
ATOM     12  N   UNL     1      45.046   2.596  10.830  0.00  0.00    +0.000 NA
ATOM     13  H   UNL     1      44.945   1.662  11.230  0.00  0.00    +0.000 HD
BRANCH  12  14
ATOM     14  C   UNL     1      44.380   2.611   9.508  0.00  0.00    +0.000 C 
ATOM     15  C   UNL     1      45.001   1.535   8.597  0.00  0.00    +0.000 C 
ATOM     16  C   UNL     1      46.364   1.947   8.040  0.00  0.00    +0.000 C 
ATOM     17  N   UNL     1      46.301   3.229   7.330  0.00  0.00    +0.000 NA
ATOM     18  C   UNL     1      45.823   4.282   8.228  0.00  0.00    +0.000 C 
ATOM     19  C   UNL     1      44.433   3.963   8.775  0.00  0.00    +0.000 C 
ATOM     20  H   UNL     1      45.661   3.145   6.541  0.00  0.00    +0.000 HD
ENDBRANCH  12  14
ENDBRANCH  11  12
ENDBRANCH   5  11
TORSDOF 5
ENDMDL
MODEL 8
REMARK VINA RESULT:    -5.511      2.723      3.706
REMARK INTER + INTRA:          -7.216
REMARK INTER:                  -6.871
REMARK INTRA:                  -0.344
REMARK UNBOUND:                -0.255
REMARK  Name = 
REMARK  5 active torsions:
REMARK  status: ('A' for Active; 'I' for Inactive)
REMARK    1  A    between atoms: N_1  and  C_2
REMARK    2  A    between atoms: C_2  and  C_3
REMARK    3  A    between atoms: C_7  and  C_8
REMARK    4  A    between atoms: C_8  and  N_9
REMARK    5  A    between atoms: N_9  and  C_10
REMARK                            x       y       z     vdW  Elec       q    Type
REMARK                         _______ _______ _______ _____ _____    ______ ____
ROOT
ATOM      1  C   UNL     1      45.328   3.416   8.335  0.00  0.00    +0.000 A 
ATOM      2  C   UNL     1      44.547   2.402   8.878  0.00  0.00    +0.000 A 
ATOM      3  N   UNL     1      43.962   2.463  10.094  0.00  0.00    +0.000 NA
ATOM      4  C   UNL     1      44.150   3.601  10.797  0.00  0.00    +0.000 A 
ATOM      5  C   UNL     1      44.885   4.698  10.349  0.00  0.00    +0.000 A 
ATOM      6  C   UNL     1      45.489   4.584   9.093  0.00  0.00    +0.000 A 
ENDROOT
BRANCH   1   7
ATOM      7  C   UNL     1      45.955   3.262   6.980  0.00  0.00    +0.000 C 
BRANCH   7   8
ATOM      8  N   UNL     1      46.991   4.261   6.760  0.00  0.00    +0.000 NA
ATOM      9  H   UNL     1      47.904   3.810   6.794  0.00  0.00    +0.000 HD
ATOM     10  H   UNL     1      46.975   4.932   7.526  0.00  0.00    +0.000 HD
ENDBRANCH   7   8
ENDBRANCH   1   7
BRANCH   5  11
ATOM     11  C   UNL     1      45.085   5.875  11.272  0.00  0.00    +0.000 C 
BRANCH  11  12
ATOM     12  N   UNL     1      46.294   5.789  12.105  0.00  0.00    +0.000 NA
ATOM     13  H   UNL     1      46.779   4.925  11.861  0.00  0.00    +0.000 HD
BRANCH  12  14
ATOM     14  C   UNL     1      47.217   6.923  11.871  0.00  0.00    +0.000 C 
ATOM     15  C   UNL     1      48.369   6.880  12.894  0.00  0.00    +0.000 C 
ATOM     16  C   UNL     1      47.946   7.366  14.280  0.00  0.00    +0.000 C 
ATOM     17  N   UNL     1      47.365   8.711  14.237  0.00  0.00    +0.000 NA
ATOM     18  C   UNL     1      46.195   8.730  13.356  0.00  0.00    +0.000 C 
ATOM     19  C   UNL     1      46.560   8.313  11.933  0.00  0.00    +0.000 C 
ATOM     20  H   UNL     1      48.062   9.367  13.883  0.00  0.00    +0.000 HD
ENDBRANCH  12  14
ENDBRANCH  11  12
ENDBRANCH   5  11
TORSDOF 5
ENDMDL
MODEL 9
REMARK VINA RESULT:    -5.397      4.808      7.226
REMARK INTER + INTRA:          -7.071
REMARK INTER:                  -6.779
REMARK INTRA:                  -0.292
REMARK UNBOUND:                -0.255
REMARK  Name = 
REMARK  5 active torsions:
REMARK  status: ('A' for Active; 'I' for Inactive)
REMARK    1  A    between atoms: N_1  and  C_2
REMARK    2  A    between atoms: C_2  and  C_3
REMARK    3  A    between atoms: C_7  and  C_8
REMARK    4  A    between atoms: C_8  and  N_9
REMARK    5  A    between atoms: N_9  and  C_10
REMARK                            x       y       z     vdW  Elec       q    Type
REMARK                         _______ _______ _______ _____ _____    ______ ____
ROOT
ATOM      1  C   UNL     1      44.408   5.387  12.029  0.00  0.00    +0.000 A 
ATOM      2  C   UNL     1      45.129   6.486  11.575  0.00  0.00    +0.000 A 
ATOM      3  N   UNL     1      46.360   6.824  12.021  0.00  0.00    +0.000 NA
ATOM      4  C   UNL     1      46.906   6.013  12.953  0.00  0.00    +0.000 A 
ATOM      5  C   UNL     1      46.297   4.867  13.463  0.00  0.00    +0.000 A 
ATOM      6  C   UNL     1      45.017   4.567  12.988  0.00  0.00    +0.000 A 
ENDROOT
BRANCH   1   7
ATOM      7  C   UNL     1      43.039   5.091  11.491  0.00  0.00    +0.000 C 
BRANCH   7   8
ATOM      8  N   UNL     1      42.121   6.191  11.746  0.00  0.00    +0.000 NA
ATOM      9  H   UNL     1      42.359   6.974  11.139  0.00  0.00    +0.000 HD
ATOM     10  H   UNL     1      42.250   6.519  12.701  0.00  0.00    +0.000 HD
ENDBRANCH   7   8
ENDBRANCH   1   7
BRANCH   5  11
ATOM     11  C   UNL     1      46.985   4.097  14.563  0.00  0.00    +0.000 C 
BRANCH  11  12
ATOM     12  N   UNL     1      47.373   4.916  15.722  0.00  0.00    +0.000 NA
ATOM     13  H   UNL     1      46.826   5.777  15.690  0.00  0.00    +0.000 HD
BRANCH  12  14
ATOM     14  C   UNL     1      47.093   4.236  17.007  0.00  0.00    +0.000 C 
ATOM     15  C   UNL     1      47.591   5.104  18.178  0.00  0.00    +0.000 C 
ATOM     16  C   UNL     1      49.109   5.050  18.351  0.00  0.00    +0.000 C 
ATOM     17  N   UNL     1      49.594   3.675  18.506  0.00  0.00    +0.000 NA
ATOM     18  C   UNL     1      49.226   2.873  17.338  0.00  0.00    +0.000 C 
ATOM     19  C   UNL     1      47.712   2.833  17.141  0.00  0.00    +0.000 C 
ATOM     20  H   UNL     1      49.177   3.264  19.341  0.00  0.00    +0.000 HD
ENDBRANCH  12  14
ENDBRANCH  11  12
ENDBRANCH   5  11
TORSDOF 5
ENDMDL
