MODEL 1
REMARK VINA RESULT:    -8.915      0.000      0.000
REMARK INTER + INTRA:         -13.161
REMARK INTER:                 -12.042
REMARK INTRA:                  -1.119
REMARK UNBOUND:                -1.119
REMARK  Name = 
REMARK  6 active torsions:
REMARK  status: ('A' for Active; 'I' for Inactive)
REMARK    1  A    between atoms: C_2  and  C_4
REMARK    2  A    between atoms: C_7  and  C_8
REMARK    3  A    between atoms: C_8  and  C_9
REMARK    4  A    between atoms: C_12  and  C_13
REMARK    5  A    between atoms: C_13  and  N_14
REMARK    6  A    between atoms: C_15  and  C_17
REMARK                            x       y       z     vdW  Elec       q    Type
REMARK                         _______ _______ _______ _____ _____    ______ ____
ROOT
ATOM      1  C   UNL     1      44.707   5.445  11.140  0.00  0.00    +0.000 A 
ATOM      2  C   UNL     1      44.351   6.795  11.269  0.00  0.00    +0.000 A 
ATOM      3  C   UNL     1      45.116   7.662  12.058  0.00  0.00    +0.000 A 
ATOM      4  C   UNL     1      46.255   7.197  12.726  0.00  0.00    +0.000 A 
ATOM      5  C   UNL     1      46.568   5.834  12.655  0.00  0.00    +0.000 A 
ATOM      6  C   UNL     1      45.809   4.968  11.862  0.00  0.00    +0.000 A 
ENDROOT
BRANCH   1   7
ATOM      7  C   UNL     1      43.951   4.535  10.198  0.00  0.00    +0.000 C 
BRANCH   7  11
ATOM      8  C   UNL     1      46.530   2.347   7.490  0.00  0.00    +0.000 A 
ATOM      9  C   UNL     1      45.756   1.660   8.432  0.00  0.00    +0.000 A 
ATOM     10  C   UNL     1      44.920   2.368   9.304  0.00  0.00    +0.000 A 
ATOM     11  C   UNL     1      44.849   3.768   9.248  0.00  0.00    +0.000 A 
ATOM     12  C   UNL     1      45.648   4.448   8.318  0.00  0.00    +0.000 A 
ATOM     13  C   UNL     1      46.486   3.743   7.447  0.00  0.00    +0.000 A 
BRANCH   8  15
ATOM     14  N   UNL     1      48.552   2.291   6.133  0.00  0.00    +0.000 N 
ATOM     15  C   UNL     1      47.425   1.632   6.541  0.00  0.00    +0.000 C 
ATOM     16  O   UNL     1      47.193   0.489   6.170  0.00  0.00    +0.000 OA
ATOM     17  H   UNL     1      49.206   1.755   5.576  0.00  0.00    +0.000 HD
ATOM     18  H   UNL     1      48.903   3.107   6.612  0.00  0.00    +0.000 HD
ENDBRANCH   8  15
ENDBRANCH   7  11
ENDBRANCH   1   7
BRANCH   4  19
ATOM     19  C   UNL     1      47.140   8.138  13.502  0.00  0.00    +0.000 C 
BRANCH  19  20
ATOM     20  N   UNL     1      47.612   7.546  14.726  0.00  0.00    +0.000 N 
ATOM     21  C   UNL     1      48.853   6.966  14.796  0.00  0.00    +0.000 C 
ATOM     22  O   UNL     1      49.629   6.964  13.844  0.00  0.00    +0.000 OA
ATOM     23  H   UNL     1      46.914   7.323  15.427  0.00  0.00    +0.000 HD
BRANCH  21  24
ATOM     24  C   UNL     1      49.234   6.395  16.095  0.00  0.00    +0.000 A 
ATOM     25  C   UNL     1      50.279   6.958  16.815  0.00  0.00    +0.000 A 
ATOM     26  S   UNL     1      50.559   6.205  18.318  0.00  0.00    +0.000 S 
ATOM     27  C   UNL     1      49.329   5.063  18.037  0.00  0.00    +0.000 A 
ATOM     28  N   UNL     1      49.062   4.084  18.943  0.00  0.00    +0.000 NA
ATOM     29  C   UNL     1      48.126   3.270  18.587  0.00  0.00    +0.000 A 
ATOM     30  N   UNL     1      47.425   3.348  17.412  0.00  0.00    +0.000 N 
ATOM     31  C   UNL     1      47.640   4.339  16.480  0.00  0.00    +0.000 A 
ATOM     32  O   UNL     1      46.963   4.407  15.459  0.00  0.00    +0.000 OA
ATOM     33  C   UNL     1      48.697   5.270  16.824  0.00  0.00    +0.000 A 
ATOM     34  H   UNL     1      46.696   2.686  17.197  0.00  0.00    +0.000 HD
ENDBRANCH  21  24
ENDBRANCH  19  20
ENDBRANCH   4  19
TORSDOF 6
ENDMDL
MODEL 2
REMARK VINA RESULT:    -8.357      1.800      2.317
REMARK INTER + INTRA:         -12.408
REMARK INTER:                 -11.151
REMARK INTRA:                  -1.257
REMARK UNBOUND:                -1.119
REMARK  Name = 
REMARK  6 active torsions:
REMARK  status: ('A' for Active; 'I' for Inactive)
REMARK    1  A    between atoms: C_2  and  C_4
REMARK    2  A    between atoms: C_7  and  C_8
REMARK    3  A    between atoms: C_8  and  C_9
REMARK    4  A    between atoms: C_12  and  C_13
REMARK    5  A    between atoms: C_13  and  N_14
REMARK    6  A    between atoms: C_15  and  C_17
REMARK                            x       y       z     vdW  Elec       q    Type
REMARK                         _______ _______ _______ _____ _____    ______ ____
ROOT
ATOM      1  C   UNL     1      45.036   5.321  11.315  0.00  0.00    +0.000 A 
ATOM      2  C   UNL     1      45.019   6.714  11.163  0.00  0.00    +0.000 A 
ATOM      3  C   UNL     1      45.850   7.527  11.943  0.00  0.00    +0.000 A 
ATOM      4  C   UNL     1      46.719   6.960  12.883  0.00  0.00    +0.000 A 
ATOM      5  C   UNL     1      46.682   5.575  13.086  0.00  0.00    +0.000 A 
ATOM      6  C   UNL     1      45.857   4.762  12.303  0.00  0.00    +0.000 A 
ENDROOT
BRANCH   1   7
ATOM      7  C   UNL     1      44.225   4.435  10.396  0.00  0.00    +0.000 C 
BRANCH   7  11
ATOM      8  C   UNL     1      46.598   2.399   7.396  0.00  0.00    +0.000 A 
ATOM      9  C   UNL     1      46.497   3.795   7.384  0.00  0.00    +0.000 A 
ATOM     10  C   UNL     1      45.733   4.452   8.356  0.00  0.00    +0.000 A 
ATOM     11  C   UNL     1      45.060   3.725   9.349  0.00  0.00    +0.000 A 
ATOM     12  C   UNL     1      45.146   2.325   9.337  0.00  0.00    +0.000 A 
ATOM     13  C   UNL     1      45.907   1.666   8.365  0.00  0.00    +0.000 A 
BRANCH   8  15
ATOM     14  N   UNL     1      48.462   2.331   5.828  0.00  0.00    +0.000 N 
ATOM     15  C   UNL     1      47.405   1.664   6.386  0.00  0.00    +0.000 C 
ATOM     16  O   UNL     1      47.169   0.499   6.093  0.00  0.00    +0.000 OA
ATOM     17  H   UNL     1      49.067   1.786   5.228  0.00  0.00    +0.000 HD
ATOM     18  H   UNL     1      48.837   3.177   6.230  0.00  0.00    +0.000 HD
ENDBRANCH   8  15
ENDBRANCH   7  11
ENDBRANCH   1   7
BRANCH   4  19
ATOM     19  C   UNL     1      47.685   7.815  13.663  0.00  0.00    +0.000 C 
BRANCH  19  20
ATOM     20  N   UNL     1      47.831   7.359  15.020  0.00  0.00    +0.000 N 
ATOM     21  C   UNL     1      49.040   6.904  15.485  0.00  0.00    +0.000 C 
ATOM     22  O   UNL     1      50.051   6.906  14.789  0.00  0.00    +0.000 OA
ATOM     23  H   UNL     1      46.981   7.123  15.519  0.00  0.00    +0.000 HD
BRANCH  21  24
ATOM     24  C   UNL     1      49.076   6.467  16.887  0.00  0.00    +0.000 A 
ATOM     25  C   UNL     1      49.570   5.210  17.204  0.00  0.00    +0.000 A 
ATOM     26  S   UNL     1      49.583   4.880  18.876  0.00  0.00    +0.000 S 
ATOM     27  C   UNL     1      48.876   6.386  19.235  0.00  0.00    +0.000 A 
ATOM     28  N   UNL     1      48.582   6.735  20.516  0.00  0.00    +0.000 NA
ATOM     29  C   UNL     1      48.022   7.891  20.638  0.00  0.00    +0.000 A 
ATOM     30  N   UNL     1      47.735   8.736  19.598  0.00  0.00    +0.000 N 
ATOM     31  C   UNL     1      48.042   8.439  18.289  0.00  0.00    +0.000 A 
ATOM     32  O   UNL     1      47.814   9.238  17.387  0.00  0.00    +0.000 OA
ATOM     33  C   UNL     1      48.658   7.140  18.095  0.00  0.00    +0.000 A 
ATOM     34  H   UNL     1      47.306   9.633  19.761  0.00  0.00    +0.000 HD
ENDBRANCH  21  24
ENDBRANCH  19  20
ENDBRANCH   4  19
TORSDOF 6
ENDMDL
MODEL 3
REMARK VINA RESULT:    -7.736      3.810      5.099
REMARK INTER + INTRA:         -11.569
REMARK INTER:                 -10.235
REMARK INTRA:                  -1.333
REMARK UNBOUND:                -1.119
REMARK  Name = 
REMARK  6 active torsions:
REMARK  status: ('A' for Active; 'I' for Inactive)
REMARK    1  A    between atoms: C_2  and  C_4
REMARK    2  A    between atoms: C_7  and  C_8
REMARK    3  A    between atoms: C_8  and  C_9
REMARK    4  A    between atoms: C_12  and  C_13
REMARK    5  A    between atoms: C_13  and  N_14
REMARK    6  A    between atoms: C_15  and  C_17
REMARK                            x       y       z     vdW  Elec       q    Type
REMARK                         _______ _______ _______ _____ _____    ______ ____
ROOT
ATOM      1  C   UNL     1      44.512   5.084  11.212  0.00  0.00    +0.000 A 
ATOM      2  C   UNL     1      44.049   6.398  11.058  0.00  0.00    +0.000 A 
ATOM      3  C   UNL     1      44.661   7.454  11.743  0.00  0.00    +0.000 A 
ATOM      4  C   UNL     1      45.752   7.217  12.587  0.00  0.00    +0.000 A 
ATOM      5  C   UNL     1      46.167   5.895  12.797  0.00  0.00    +0.000 A 
ATOM      6  C   UNL     1      45.560   4.840  12.108  0.00  0.00    +0.000 A 
ENDROOT
BRANCH   1   7
ATOM      7  C   UNL     1      43.928   3.960  10.385  0.00  0.00    +0.000 C 
BRANCH   7  11
ATOM      8  C   UNL     1      46.648   2.395   7.398  0.00  0.00    +0.000 A 
ATOM      9  C   UNL     1      46.360   3.764   7.438  0.00  0.00    +0.000 A 
ATOM     10  C   UNL     1      45.484   4.269   8.406  0.00  0.00    +0.000 A 
ATOM     11  C   UNL     1      44.884   3.415   9.343  0.00  0.00    +0.000 A 
ATOM     12  C   UNL     1      45.159   2.041   9.279  0.00  0.00    +0.000 A 
ATOM     13  C   UNL     1      46.032   1.534   8.311  0.00  0.00    +0.000 A 
BRANCH   8  15
ATOM     14  N   UNL     1      48.766   2.472   6.198  0.00  0.00    +0.000 N 
ATOM     15  C   UNL     1      47.579   1.820   6.391  0.00  0.00    +0.000 C 
ATOM     16  O   UNL     1      47.323   0.786   5.789  0.00  0.00    +0.000 OA
ATOM     17  H   UNL     1      49.435   2.012   5.593  0.00  0.00    +0.000 HD
ATOM     18  H   UNL     1      49.117   3.158   6.849  0.00  0.00    +0.000 HD
ENDBRANCH   8  15
ENDBRANCH   7  11
ENDBRANCH   1   7
BRANCH   4  19
ATOM     19  C   UNL     1      46.479   8.354  13.258  0.00  0.00    +0.000 C 
BRANCH  19  20
ATOM     20  N   UNL     1      47.560   8.852  12.449  0.00  0.00    +0.000 N 
ATOM     21  C   UNL     1      48.475   9.736  12.963  0.00  0.00    +0.000 C 
ATOM     22  O   UNL     1      48.443  10.105  14.133  0.00  0.00    +0.000 OA
ATOM     23  H   UNL     1      47.463   8.758  11.444  0.00  0.00    +0.000 HD
BRANCH  21  24
ATOM     24  C   UNL     1      49.539  10.176  12.050  0.00  0.00    +0.000 A 
ATOM     25  C   UNL     1      49.680  11.525  11.756  0.00  0.00    +0.000 A 
ATOM     26  S   UNL     1      50.989  11.868  10.719  0.00  0.00    +0.000 S 
ATOM     27  C   UNL     1      51.382  10.217  10.581  0.00  0.00    +0.000 A 
ATOM     28  N   UNL     1      52.412   9.807   9.794  0.00  0.00    +0.000 NA
ATOM     29  C   UNL     1      52.578   8.528   9.758  0.00  0.00    +0.000 A 
ATOM     30  N   UNL     1      51.814   7.619  10.443  0.00  0.00    +0.000 N 
ATOM     31  C   UNL     1      50.782   7.991  11.275  0.00  0.00    +0.000 A 
ATOM     32  O   UNL     1      50.147   7.155  11.911  0.00  0.00    +0.000 OA
ATOM     33  C   UNL     1      50.541   9.420  11.336  0.00  0.00    +0.000 A 
ATOM     34  H   UNL     1      52.002   6.631  10.382  0.00  0.00    +0.000 HD
ENDBRANCH  21  24
ENDBRANCH  19  20
ENDBRANCH   4  19
TORSDOF 6
ENDMDL
MODEL 4
REMARK VINA RESULT:    -7.539      3.963      8.526
REMARK INTER + INTRA:         -11.302
REMARK INTER:                 -10.147
REMARK INTRA:                  -1.155
REMARK UNBOUND:                -1.119
REMARK  Name = 
REMARK  6 active torsions:
REMARK  status: ('A' for Active; 'I' for Inactive)
REMARK    1  A    between atoms: C_2  and  C_4
REMARK    2  A    between atoms: C_7  and  C_8
REMARK    3  A    between atoms: C_8  and  C_9
REMARK    4  A    between atoms: C_12  and  C_13
REMARK    5  A    between atoms: C_13  and  N_14
REMARK    6  A    between atoms: C_15  and  C_17
REMARK                            x       y       z     vdW  Elec       q    Type
REMARK                         _______ _______ _______ _____ _____    ______ ____
ROOT
ATOM      1  C   UNL     1      49.536   5.845  16.878  0.00  0.00    +0.000 A 
ATOM      2  C   UNL     1      48.316   5.513  16.274  0.00  0.00    +0.000 A 
ATOM      3  C   UNL     1      47.985   6.015  15.010  0.00  0.00    +0.000 A 
ATOM      4  C   UNL     1      48.873   6.852  14.324  0.00  0.00    +0.000 A 
ATOM      5  C   UNL     1      50.059   7.242  14.959  0.00  0.00    +0.000 A 
ATOM      6  C   UNL     1      50.393   6.735  16.218  0.00  0.00    +0.000 A 
ENDROOT
BRANCH   1   7
ATOM      7  C   UNL     1      49.945   5.212  18.189  0.00  0.00    +0.000 C 
BRANCH   7  11
ATOM      8  C   UNL     1      52.388   1.664  17.728  0.00  0.00    +0.000 A 
ATOM      9  C   UNL     1      51.047   1.650  17.329  0.00  0.00    +0.000 A 
ATOM     10  C   UNL     1      50.259   2.798  17.475  0.00  0.00    +0.000 A 
ATOM     11  C   UNL     1      50.800   3.972  18.022  0.00  0.00    +0.000 A 
ATOM     12  C   UNL     1      52.137   3.967  18.443  0.00  0.00    +0.000 A 
ATOM     13  C   UNL     1      52.926   2.821  18.300  0.00  0.00    +0.000 A 
BRANCH   8  15
ATOM     14  N   UNL     1      53.005  -0.592  18.409  0.00  0.00    +0.000 N 
ATOM     15  C   UNL     1      53.261   0.468  17.583  0.00  0.00    +0.000 C 
ATOM     16  O   UNL     1      54.142   0.410  16.736  0.00  0.00    +0.000 OA
ATOM     17  H   UNL     1      53.532  -1.437  18.226  0.00  0.00    +0.000 HD
ATOM     18  H   UNL     1      52.141  -0.680  18.922  0.00  0.00    +0.000 HD
ENDBRANCH   8  15
ENDBRANCH   7  11
ENDBRANCH   1   7
BRANCH   4  19
ATOM     19  C   UNL     1      48.572   7.325  12.925  0.00  0.00    +0.000 C 
BRANCH  19  20
ATOM     20  N   UNL     1      47.775   6.374  12.195  0.00  0.00    +0.000 N 
ATOM     21  C   UNL     1      46.513   6.695  11.764  0.00  0.00    +0.000 C 
ATOM     22  O   UNL     1      46.026   7.808  11.937  0.00  0.00    +0.000 OA
ATOM     23  H   UNL     1      48.051   5.400  12.258  0.00  0.00    +0.000 HD
BRANCH  21  24
ATOM     24  C   UNL     1      45.791   5.649  11.026  0.00  0.00    +0.000 A 
ATOM     25  C   UNL     1      45.824   5.638   9.638  0.00  0.00    +0.000 A 
ATOM     26  S   UNL     1      44.974   4.334   8.943  0.00  0.00    +0.000 S 
ATOM     27  C   UNL     1      44.484   3.768  10.472  0.00  0.00    +0.000 A 
ATOM     28  N   UNL     1      43.686   2.673  10.590  0.00  0.00    +0.000 NA
ATOM     29  C   UNL     1      43.368   2.374  11.804  0.00  0.00    +0.000 A 
ATOM     30  N   UNL     1      43.779   3.065  12.914  0.00  0.00    +0.000 N 
ATOM     31  C   UNL     1      44.611   4.160  12.845  0.00  0.00    +0.000 A 
ATOM     32  O   UNL     1      44.998   4.728  13.861  0.00  0.00    +0.000 OA
ATOM     33  C   UNL     1      44.984   4.549  11.498  0.00  0.00    +0.000 A 
ATOM     34  H   UNL     1      43.504   2.774  13.839  0.00  0.00    +0.000 HD
ENDBRANCH  21  24
ENDBRANCH  19  20
ENDBRANCH   4  19
TORSDOF 6
ENDMDL
MODEL 5
REMARK VINA RESULT:    -7.149      3.467      4.543
REMARK INTER + INTRA:         -10.776
REMARK INTER:                  -9.371
REMARK INTRA:                  -1.405
REMARK UNBOUND:                -1.119
REMARK  Name = 
REMARK  6 active torsions:
REMARK  status: ('A' for Active; 'I' for Inactive)
REMARK    1  A    between atoms: C_2  and  C_4
REMARK    2  A    between atoms: C_7  and  C_8
REMARK    3  A    between atoms: C_8  and  C_9
REMARK    4  A    between atoms: C_12  and  C_13
REMARK    5  A    between atoms: C_13  and  N_14
REMARK    6  A    between atoms: C_15  and  C_17
REMARK                            x       y       z     vdW  Elec       q    Type
REMARK                         _______ _______ _______ _____ _____    ______ ____
ROOT
ATOM      1  C   UNL     1      44.851   5.475  11.265  0.00  0.00    +0.000 A 
ATOM      2  C   UNL     1      44.676   6.865  11.248  0.00  0.00    +0.000 A 
ATOM      3  C   UNL     1      45.474   7.694  12.045  0.00  0.00    +0.000 A 
ATOM      4  C   UNL     1      46.467   7.148  12.868  0.00  0.00    +0.000 A 
ATOM      5  C   UNL     1      46.591   5.754  12.939  0.00  0.00    +0.000 A 
ATOM      6  C   UNL     1      45.799   4.926  12.138  0.00  0.00    +0.000 A 
ENDROOT
BRANCH   1   7
ATOM      7  C   UNL     1      44.070   4.588  10.320  0.00  0.00    +0.000 C 
BRANCH   7  11
ATOM      8  C   UNL     1      46.588   2.348   7.597  0.00  0.00    +0.000 A 
ATOM      9  C   UNL     1      45.806   1.678   8.544  0.00  0.00    +0.000 A 
ATOM     10  C   UNL     1      44.990   2.402   9.421  0.00  0.00    +0.000 A 
ATOM     11  C   UNL     1      44.946   3.803   9.365  0.00  0.00    +0.000 A 
ATOM     12  C   UNL     1      45.753   4.467   8.430  0.00  0.00    +0.000 A 
ATOM     13  C   UNL     1      46.571   3.746   7.554  0.00  0.00    +0.000 A 
BRANCH   8  15
ATOM     14  N   UNL     1      47.027   0.391   6.215  0.00  0.00    +0.000 N 
ATOM     15  C   UNL     1      47.462   1.616   6.642  0.00  0.00    +0.000 C 
ATOM     16  O   UNL     1      48.503   2.098   6.218  0.00  0.00    +0.000 OA
ATOM     17  H   UNL     1      47.573  -0.047   5.485  0.00  0.00    +0.000 HD
ATOM     18  H   UNL     1      46.072   0.086   6.334  0.00  0.00    +0.000 HD
ENDBRANCH   8  15
ENDBRANCH   7  11
ENDBRANCH   1   7
BRANCH   4  19
ATOM     19  C   UNL     1      47.394   8.033  13.660  0.00  0.00    +0.000 C 
BRANCH  19  20
ATOM     20  N   UNL     1      48.768   7.861  13.266  0.00  0.00    +0.000 N 
ATOM     21  C   UNL     1      49.285   8.546  12.195  0.00  0.00    +0.000 C 
ATOM     22  O   UNL     1      48.623   9.359  11.557  0.00  0.00    +0.000 OA
ATOM     23  H   UNL     1      49.245   7.036  13.611  0.00  0.00    +0.000 HD
BRANCH  21  24
ATOM     24  C   UNL     1      50.699   8.297  11.884  0.00  0.00    +0.000 A 
ATOM     25  C   UNL     1      51.045   7.702  10.678  0.00  0.00    +0.000 A 
ATOM     26  S   UNL     1      52.726   7.528  10.457  0.00  0.00    +0.000 S 
ATOM     27  C   UNL     1      53.051   8.191  11.991  0.00  0.00    +0.000 A 
ATOM     28  N   UNL     1      54.327   8.303  12.449  0.00  0.00    +0.000 NA
ATOM     29  C   UNL     1      54.424   8.794  13.639  0.00  0.00    +0.000 A 
ATOM     30  N   UNL     1      53.365   9.193  14.411  0.00  0.00    +0.000 N 
ATOM     31  C   UNL     1      52.059   9.127  13.976  0.00  0.00    +0.000 A 
ATOM     32  O   UNL     1      51.137   9.536  14.674  0.00  0.00    +0.000 OA
ATOM     33  C   UNL     1      51.894   8.564  12.650  0.00  0.00    +0.000 A 
ATOM     34  H   UNL     1      53.508   9.580  15.330  0.00  0.00    +0.000 HD
ENDBRANCH  21  24
ENDBRANCH  19  20
ENDBRANCH   4  19
TORSDOF 6
ENDMDL
MODEL 6
REMARK VINA RESULT:    -7.035      3.385      8.671
REMARK INTER + INTRA:         -10.622
REMARK INTER:                  -9.256
REMARK INTRA:                  -1.366
REMARK UNBOUND:                -1.119
REMARK  Name = 
REMARK  6 active torsions:
REMARK  status: ('A' for Active; 'I' for Inactive)
REMARK    1  A    between atoms: C_2  and  C_4
REMARK    2  A    between atoms: C_7  and  C_8
REMARK    3  A    between atoms: C_8  and  C_9
REMARK    4  A    between atoms: C_12  and  C_13
REMARK    5  A    between atoms: C_13  and  N_14
REMARK    6  A    between atoms: C_15  and  C_17
REMARK                            x       y       z     vdW  Elec       q    Type
REMARK                         _______ _______ _______ _____ _____    ______ ____
ROOT
ATOM      1  C   UNL     1      49.811   7.803  15.626  0.00  0.00    +0.000 A 
ATOM      2  C   UNL     1      48.494   8.282  15.618  0.00  0.00    +0.000 A 
ATOM      3  C   UNL     1      47.775   8.372  14.420  0.00  0.00    +0.000 A 
ATOM      4  C   UNL     1      48.358   7.977  13.210  0.00  0.00    +0.000 A 
ATOM      5  C   UNL     1      49.698   7.568  13.209  0.00  0.00    +0.000 A 
ATOM      6  C   UNL     1      50.414   7.472  14.407  0.00  0.00    +0.000 A 
ENDROOT
BRANCH   1   7
ATOM      7  C   UNL     1      50.548   7.597  16.931  0.00  0.00    +0.000 C 
BRANCH   7  11
ATOM      8  C   UNL     1      51.638   3.465  17.648  0.00  0.00    +0.000 A 
ATOM      9  C   UNL     1      52.628   4.451  17.580  0.00  0.00    +0.000 A 
ATOM     10  C   UNL     1      52.275   5.787  17.352  0.00  0.00    +0.000 A 
ATOM     11  C   UNL     1      50.930   6.153  17.188  0.00  0.00    +0.000 A 
ATOM     12  C   UNL     1      49.948   5.153  17.232  0.00  0.00    +0.000 A 
ATOM     13  C   UNL     1      50.299   3.818  17.458  0.00  0.00    +0.000 A 
BRANCH   8  15
ATOM     14  N   UNL     1      53.060   1.780  18.684  0.00  0.00    +0.000 N 
ATOM     15  C   UNL     1      51.971   2.037  17.897  0.00  0.00    +0.000 C 
ATOM     16  O   UNL     1      51.281   1.126  17.458  0.00  0.00    +0.000 OA
ATOM     17  H   UNL     1      53.211   0.812  18.935  0.00  0.00    +0.000 HD
ATOM     18  H   UNL     1      53.484   2.488  19.266  0.00  0.00    +0.000 HD
ENDBRANCH   8  15
ENDBRANCH   7  11
ENDBRANCH   1   7
BRANCH   4  19
ATOM     19  C   UNL     1      47.567   7.980  11.927  0.00  0.00    +0.000 C 
BRANCH  19  20
ATOM     20  N   UNL     1      46.878   6.734  11.718  0.00  0.00    +0.000 N 
ATOM     21  C   UNL     1      45.517   6.647  11.869  0.00  0.00    +0.000 C 
ATOM     22  O   UNL     1      44.825   7.623  12.142  0.00  0.00    +0.000 OA
ATOM     23  H   UNL     1      47.440   5.890  11.736  0.00  0.00    +0.000 HD
BRANCH  21  24
ATOM     24  C   UNL     1      44.918   5.327  11.626  0.00  0.00    +0.000 A 
ATOM     25  C   UNL     1      44.204   4.699  12.637  0.00  0.00    +0.000 A 
ATOM     26  S   UNL     1      43.538   3.199  12.176  0.00  0.00    +0.000 S 
ATOM     27  C   UNL     1      44.228   3.308  10.623  0.00  0.00    +0.000 A 
ATOM     28  N   UNL     1      44.067   2.311   9.714  0.00  0.00    +0.000 NA
ATOM     29  C   UNL     1      44.669   2.512   8.590  0.00  0.00    +0.000 A 
ATOM     30  N   UNL     1      45.412   3.623   8.287  0.00  0.00    +0.000 N 
ATOM     31  C   UNL     1      45.577   4.671   9.165  0.00  0.00    +0.000 A 
ATOM     32  O   UNL     1      46.210   5.672   8.847  0.00  0.00    +0.000 OA
ATOM     33  C   UNL     1      44.934   4.486  10.453  0.00  0.00    +0.000 A 
ATOM     34  H   UNL     1      45.849   3.727   7.385  0.00  0.00    +0.000 HD
ENDBRANCH  21  24
ENDBRANCH  19  20
ENDBRANCH   4  19
TORSDOF 6
ENDMDL
MODEL 7
REMARK VINA RESULT:    -6.525      3.055      4.453
REMARK INTER + INTRA:          -9.932
REMARK INTER:                  -8.700
REMARK INTRA:                  -1.232
REMARK UNBOUND:                -1.119
REMARK  Name = 
REMARK  6 active torsions:
REMARK  status: ('A' for Active; 'I' for Inactive)
REMARK    1  A    between atoms: C_2  and  C_4
REMARK    2  A    between atoms: C_7  and  C_8
REMARK    3  A    between atoms: C_8  and  C_9
REMARK    4  A    between atoms: C_12  and  C_13
REMARK    5  A    between atoms: C_13  and  N_14
REMARK    6  A    between atoms: C_15  and  C_17
REMARK                            x       y       z     vdW  Elec       q    Type
REMARK                         _______ _______ _______ _____ _____    ______ ____
ROOT
ATOM      1  C   UNL     1      47.282   8.008  12.929  0.00  0.00    +0.000 A 
ATOM      2  C   UNL     1      48.363   7.198  12.552  0.00  0.00    +0.000 A 
ATOM      3  C   UNL     1      49.485   7.075  13.378  0.00  0.00    +0.000 A 
ATOM      4  C   UNL     1      49.545   7.754  14.602  0.00  0.00    +0.000 A 
ATOM      5  C   UNL     1      48.498   8.620  14.943  0.00  0.00    +0.000 A 
ATOM      6  C   UNL     1      47.373   8.738  14.121  0.00  0.00    +0.000 A 
ENDROOT
BRANCH   1   7
ATOM      7  C   UNL     1      46.023   8.051  12.094  0.00  0.00    +0.000 C 
BRANCH   7  11
ATOM      8  C   UNL     1      44.362   4.130  11.290  0.00  0.00    +0.000 A 
ATOM      9  C   UNL     1      44.220   4.708  12.556  0.00  0.00    +0.000 A 
ATOM     10  C   UNL     1      44.754   5.976  12.815  0.00  0.00    +0.000 A 
ATOM     11  C   UNL     1      45.436   6.682  11.813  0.00  0.00    +0.000 A 
ATOM     12  C   UNL     1      45.596   6.084  10.554  0.00  0.00    +0.000 A 
ATOM     13  C   UNL     1      45.066   4.816  10.295  0.00  0.00    +0.000 A 
BRANCH   8  15
ATOM     14  N   UNL     1      44.359   2.117   9.919  0.00  0.00    +0.000 N 
ATOM     15  C   UNL     1      43.803   2.789  10.973  0.00  0.00    +0.000 C 
ATOM     16  O   UNL     1      42.915   2.283  11.646  0.00  0.00    +0.000 OA
ATOM     17  H   UNL     1      44.047   1.164   9.782  0.00  0.00    +0.000 HD
ATOM     18  H   UNL     1      45.247   2.382   9.518  0.00  0.00    +0.000 HD
ENDBRANCH   8  15
ENDBRANCH   7  11
ENDBRANCH   1   7
BRANCH   4  19
ATOM     19  C   UNL     1      50.704   7.558  15.544  0.00  0.00    +0.000 C 
BRANCH  19  20
ATOM     20  N   UNL     1      50.266   7.343  16.898  0.00  0.00    +0.000 N 
ATOM     21  C   UNL     1      49.764   6.128  17.291  0.00  0.00    +0.000 C 
ATOM     22  O   UNL     1      49.706   5.167  16.531  0.00  0.00    +0.000 OA
ATOM     23  H   UNL     1      50.079   8.168  17.457  0.00  0.00    +0.000 HD
BRANCH  21  24
ATOM     24  C   UNL     1      49.351   6.018  18.697  0.00  0.00    +0.000 A 
ATOM     25  C   UNL     1      49.684   4.886  19.426  0.00  0.00    +0.000 A 
ATOM     26  S   UNL     1      49.169   4.940  21.050  0.00  0.00    +0.000 S 
ATOM     27  C   UNL     1      48.431   6.457  20.823  0.00  0.00    +0.000 A 
ATOM     28  N   UNL     1      47.766   7.071  21.837  0.00  0.00    +0.000 NA
ATOM     29  C   UNL     1      47.231   8.201  21.516  0.00  0.00    +0.000 A 
ATOM     30  N   UNL     1      47.306   8.779  20.276  0.00  0.00    +0.000 N 
ATOM     31  C   UNL     1      47.994   8.209  19.228  0.00  0.00    +0.000 A 
ATOM     32  O   UNL     1      48.081   8.775  18.143  0.00  0.00    +0.000 OA
ATOM     33  C   UNL     1      48.600   6.926  19.532  0.00  0.00    +0.000 A 
ATOM     34  H   UNL     1      46.875   9.671  20.091  0.00  0.00    +0.000 HD
ENDBRANCH  21  24
ENDBRANCH  19  20
ENDBRANCH   4  19
TORSDOF 6
ENDMDL
MODEL 8
REMARK VINA RESULT:    -6.506      4.071      5.387
REMARK INTER + INTRA:          -9.908
REMARK INTER:                  -8.627
REMARK INTRA:                  -1.281
REMARK UNBOUND:                -1.119
REMARK  Name = 
REMARK  6 active torsions:
REMARK  status: ('A' for Active; 'I' for Inactive)
REMARK    1  A    between atoms: C_2  and  C_4
REMARK    2  A    between atoms: C_7  and  C_8
REMARK    3  A    between atoms: C_8  and  C_9
REMARK    4  A    between atoms: C_12  and  C_13
REMARK    5  A    between atoms: C_13  and  N_14
REMARK    6  A    between atoms: C_15  and  C_17
REMARK                            x       y       z     vdW  Elec       q    Type
REMARK                         _______ _______ _______ _____ _____    ______ ____
ROOT
ATOM      1  C   UNL     1      48.747   8.112  13.588  0.00  0.00    +0.000 A 
ATOM      2  C   UNL     1      50.036   7.599  13.788  0.00  0.00    +0.000 A 
ATOM      3  C   UNL     1      50.643   7.667  15.047  0.00  0.00    +0.000 A 
ATOM      4  C   UNL     1      49.968   8.241  16.132  0.00  0.00    +0.000 A 
ATOM      5  C   UNL     1      48.711   8.818  15.913  0.00  0.00    +0.000 A 
ATOM      6  C   UNL     1      48.101   8.745  14.657  0.00  0.00    +0.000 A 
ENDROOT
BRANCH   1   7
ATOM      7  C   UNL     1      48.045   7.936  12.259  0.00  0.00    +0.000 C 
BRANCH   7  11
ATOM      8  C   UNL     1      44.680   5.213  12.444  0.00  0.00    +0.000 A 
ATOM      9  C   UNL     1      44.542   6.460  11.825  0.00  0.00    +0.000 A 
ATOM     10  C   UNL     1      45.631   7.338  11.763  0.00  0.00    +0.000 A 
ATOM     11  C   UNL     1      46.869   6.982  12.318  0.00  0.00    +0.000 A 
ATOM     12  C   UNL     1      46.990   5.741  12.959  0.00  0.00    +0.000 A 
ATOM     13  C   UNL     1      45.903   4.863  13.025  0.00  0.00    +0.000 A 
BRANCH   8  15
ATOM     14  N   UNL     1      42.395   4.589  11.875  0.00  0.00    +0.000 N 
ATOM     15  C   UNL     1      43.551   4.249  12.525  0.00  0.00    +0.000 C 
ATOM     16  O   UNL     1      43.655   3.178  13.107  0.00  0.00    +0.000 OA
ATOM     17  H   UNL     1      41.675   3.879  11.845  0.00  0.00    +0.000 HD
ATOM     18  H   UNL     1      42.362   5.321  11.182  0.00  0.00    +0.000 HD
ENDBRANCH   8  15
ENDBRANCH   7  11
ENDBRANCH   1   7
BRANCH   4  19
ATOM     19  C   UNL     1      50.571   8.237  17.513  0.00  0.00    +0.000 C 
BRANCH  19  20
ATOM     20  N   UNL     1      51.363   7.059  17.751  0.00  0.00    +0.000 N 
ATOM     21  C   UNL     1      50.900   6.049  18.556  0.00  0.00    +0.000 C 
ATOM     22  O   UNL     1      49.785   6.080  19.069  0.00  0.00    +0.000 OA
ATOM     23  H   UNL     1      52.354   7.124  17.547  0.00  0.00    +0.000 HD
BRANCH  21  24
ATOM     24  C   UNL     1      51.790   4.892  18.726  0.00  0.00    +0.000 A 
ATOM     25  C   UNL     1      52.955   5.024  19.467  0.00  0.00    +0.000 A 
ATOM     26  S   UNL     1      53.847   3.578  19.604  0.00  0.00    +0.000 S 
ATOM     27  C   UNL     1      52.734   2.735  18.629  0.00  0.00    +0.000 A 
ATOM     28  N   UNL     1      52.927   1.425  18.319  0.00  0.00    +0.000 NA
ATOM     29  C   UNL     1      52.023   0.922  17.549  0.00  0.00    +0.000 A 
ATOM     30  N   UNL     1      50.937   1.605  17.065  0.00  0.00    +0.000 N 
ATOM     31  C   UNL     1      50.685   2.922  17.378  0.00  0.00    +0.000 A 
ATOM     32  O   UNL     1      49.679   3.491  16.966  0.00  0.00    +0.000 OA
ATOM     33  C   UNL     1      51.684   3.541  18.228  0.00  0.00    +0.000 A 
ATOM     34  H   UNL     1      50.258   1.151  16.475  0.00  0.00    +0.000 HD
ENDBRANCH  21  24
ENDBRANCH  19  20
ENDBRANCH   4  19
TORSDOF 6
ENDMDL
MODEL 9
REMARK VINA RESULT:    -6.418      3.227      9.203
REMARK INTER + INTRA:          -9.789
REMARK INTER:                  -8.616
REMARK INTRA:                  -1.172
REMARK UNBOUND:                -1.119
REMARK  Name = 
REMARK  6 active torsions:
REMARK  status: ('A' for Active; 'I' for Inactive)
REMARK    1  A    between atoms: C_2  and  C_4
REMARK    2  A    between atoms: C_7  and  C_8
REMARK    3  A    between atoms: C_8  and  C_9
REMARK    4  A    between atoms: C_12  and  C_13
REMARK    5  A    between atoms: C_13  and  N_14
REMARK    6  A    between atoms: C_15  and  C_17
REMARK                            x       y       z     vdW  Elec       q    Type
REMARK                         _______ _______ _______ _____ _____    ______ ____
ROOT
ATOM      1  C   UNL     1      49.749   8.103  14.638  0.00  0.00    +0.000 A 
ATOM      2  C   UNL     1      48.568   8.817  14.889  0.00  0.00    +0.000 A 
ATOM      3  C   UNL     1      47.525   8.820  13.957  0.00  0.00    +0.000 A 
ATOM      4  C   UNL     1      47.639   8.103  12.760  0.00  0.00    +0.000 A 
ATOM      5  C   UNL     1      48.846   7.451  12.478  0.00  0.00    +0.000 A 
ATOM      6  C   UNL     1      49.887   7.442  13.412  0.00  0.00    +0.000 A 
ENDROOT
BRANCH   1   7
ATOM      7  C   UNL     1      50.828   8.004  15.693  0.00  0.00    +0.000 C 
BRANCH   7  11
ATOM      8  C   UNL     1      49.702   5.582  19.104  0.00  0.00    +0.000 A 
ATOM      9  C   UNL     1      50.570   6.668  19.269  0.00  0.00    +0.000 A 
ATOM     10  C   UNL     1      50.931   7.452  18.167  0.00  0.00    +0.000 A 
ATOM     11  C   UNL     1      50.431   7.162  16.888  0.00  0.00    +0.000 A 
ATOM     12  C   UNL     1      49.583   6.056  16.729  0.00  0.00    +0.000 A 
ATOM     13  C   UNL     1      49.223   5.270  17.829  0.00  0.00    +0.000 A 
BRANCH   8  15
ATOM     14  N   UNL     1      48.515   3.638  19.965  0.00  0.00    +0.000 N 
ATOM     15  C   UNL     1      49.289   4.730  20.250  0.00  0.00    +0.000 C 
ATOM     16  O   UNL     1      49.655   4.962  21.395  0.00  0.00    +0.000 OA
ATOM     17  H   UNL     1      48.333   3.007  20.735  0.00  0.00    +0.000 HD
ATOM     18  H   UNL     1      48.418   3.275  19.029  0.00  0.00    +0.000 HD
ENDBRANCH   8  15
ENDBRANCH   7  11
ENDBRANCH   1   7
BRANCH   4  19
ATOM     19  C   UNL     1      46.488   8.021  11.790  0.00  0.00    +0.000 C 
BRANCH  19  20
ATOM     20  N   UNL     1      46.079   6.661  11.554  0.00  0.00    +0.000 N 
ATOM     21  C   UNL     1      44.755   6.341  11.397  0.00  0.00    +0.000 C 
ATOM     22  O   UNL     1      43.870   7.192  11.404  0.00  0.00    +0.000 OA
ATOM     23  H   UNL     1      46.747   5.934  11.786  0.00  0.00    +0.000 HD
BRANCH  21  24
ATOM     24  C   UNL     1      44.451   4.923  11.158  0.00  0.00    +0.000 A 
ATOM     25  C   UNL     1      43.702   4.213  12.086  0.00  0.00    +0.000 A 
ATOM     26  S   UNL     1      43.403   2.597  11.634  0.00  0.00    +0.000 S 
ATOM     27  C   UNL     1      44.313   2.771  10.206  0.00  0.00    +0.000 A 
ATOM     28  N   UNL     1      44.487   1.725   9.355  0.00  0.00    +0.000 NA
ATOM     29  C   UNL     1      45.223   1.990   8.328  0.00  0.00    +0.000 A 
ATOM     30  N   UNL     1      45.795   3.208   8.068  0.00  0.00    +0.000 N 
ATOM     31  C   UNL     1      45.620   4.303   8.884  0.00  0.00    +0.000 A 
ATOM     32  O   UNL     1      46.107   5.392   8.598  0.00  0.00    +0.000 OA
ATOM     33  C   UNL     1      44.815   4.053  10.064  0.00  0.00    +0.000 A 
ATOM     34  H   UNL     1      46.351   3.355   7.241  0.00  0.00    +0.000 HD
ENDBRANCH  21  24
ENDBRANCH  19  20
ENDBRANCH   4  19
TORSDOF 6
ENDMDL
