MODEL 1
REMARK VINA RESULT:    -8.238      0.000      0.000
REMARK INTER + INTRA:         -12.415
REMARK INTER:                 -11.610
REMARK INTRA:                  -0.805
REMARK UNBOUND:                -0.805
REMARK  Name = 
REMARK  7 active torsions:
REMARK  status: ('A' for Active; 'I' for Inactive)
REMARK    1  A    between atoms: C_2  and  C_4
REMARK    2  A    between atoms: C_7  and  N_8
REMARK    3  A    between atoms: N_8  and  C_9
REMARK    4  A    between atoms: C_9  and  C_10
REMARK    5  A    between atoms: C_10  and  C_11
REMARK    6  A    between atoms: C_13  and  N_14
REMARK    7  A    between atoms: N_14  and  C_15
REMARK                            x       y       z     vdW  Elec       q    Type
REMARK                         _______ _______ _______ _____ _____    ______ ____
ROOT
ATOM      1  C   UNL     1      43.274   5.246  12.238  0.00  0.00    +0.000 C 
ENDROOT
BRANCH   1   2
ATOM      2  C   UNL     1      44.679   5.536  12.702  0.00  0.00    +0.000 A 
ATOM      3  C   UNL     1      45.288   4.661  13.637  0.00  0.00    +0.000 A 
ATOM      4  C   UNL     1      46.591   4.870  14.110  0.00  0.00    +0.000 A 
ATOM      5  C   UNL     1      47.276   5.986  13.619  0.00  0.00    +0.000 A 
ATOM      6  C   UNL     1      46.685   6.864  12.714  0.00  0.00    +0.000 A 
ATOM      7  F   UNL     1      47.414   7.910  12.288  0.00  0.00    +0.000 F 
ATOM      8  C   UNL     1      45.394   6.656  12.253  0.00  0.00    +0.000 A 
ATOM      9 CL   UNL     1      44.727   7.801  11.147  0.00  0.00    +0.000 Cl
BRANCH   4  10
ATOM     10  N   UNL     1      47.169   3.918  14.939  0.00  0.00    +0.000 N 
ATOM     11  H   UNL     1      47.257   2.979  14.565  0.00  0.00    +0.000 HD
BRANCH  10  12
ATOM     12  C   UNL     1      47.342   4.080  16.378  0.00  0.00    +0.000 C 
ATOM     13  C   UNL     1      48.473   5.052  16.730  0.00  0.00    +0.000 C 
ATOM     14  C   UNL     1      49.042   4.569  18.059  0.00  0.00    +0.000 C 
ATOM     15  C   UNL     1      48.478   3.176  18.321  0.00  0.00    +0.000 C 
ATOM     16  C   UNL     1      47.719   2.760  17.067  0.00  0.00    +0.000 C 
ENDBRANCH  10  12
ENDBRANCH   4  10
ENDBRANCH   1   2
BRANCH   1  17
ATOM     17  C   UNL     1      43.227   4.117  11.199  0.00  0.00    +0.000 C 
BRANCH  17  18
ATOM     18  N   UNL     1      43.673   4.632   9.911  0.00  0.00    +0.000 N 
ATOM     19  H   UNL     1      42.972   5.064   9.318  0.00  0.00    +0.000 HD
BRANCH  18  23
ATOM     20  C   UNL     1      46.484   2.533   7.778  0.00  0.00    +0.000 A 
ATOM     21  C   UNL     1      46.389   3.914   7.663  0.00  0.00    +0.000 A 
ATOM     22  N   UNL     1      45.513   4.661   8.397  0.00  0.00    +0.000 NA
ATOM     23  C   UNL     1      44.721   3.989   9.260  0.00  0.00    +0.000 A 
ATOM     24  C   UNL     1      44.844   2.597   9.367  0.00  0.00    +0.000 A 
ATOM     25  N   UNL     1      45.713   1.832   8.652  0.00  0.00    +0.000 NA
BRANCH  20  27
ATOM     26  N   UNL     1      48.496   2.363   6.384  0.00  0.00    +0.000 N 
ATOM     27  C   UNL     1      47.403   1.746   6.918  0.00  0.00    +0.000 C 
ATOM     28  O   UNL     1      47.211   0.537   6.699  0.00  0.00    +0.000 OA
ATOM     29  H   UNL     1      49.153   1.772   5.892  0.00  0.00    +0.000 HD
ATOM     30  H   UNL     1      48.811   3.269   6.714  0.00  0.00    +0.000 HD
ENDBRANCH  20  27
ENDBRANCH  18  23
ENDBRANCH  17  18
ENDBRANCH   1  17
TORSDOF 7
ENDMDL
MODEL 2
REMARK VINA RESULT:    -7.839      2.873      7.756
REMARK INTER + INTRA:         -11.853
REMARK INTER:                 -11.139
REMARK INTRA:                  -0.714
REMARK UNBOUND:                -0.805
REMARK  Name = 
REMARK  7 active torsions:
REMARK  status: ('A' for Active; 'I' for Inactive)
REMARK    1  A    between atoms: C_2  and  C_4
REMARK    2  A    between atoms: C_7  and  N_8
REMARK    3  A    between atoms: N_8  and  C_9
REMARK    4  A    between atoms: C_9  and  C_10
REMARK    5  A    between atoms: C_10  and  C_11
REMARK    6  A    between atoms: C_13  and  N_14
REMARK    7  A    between atoms: N_14  and  C_15
REMARK                            x       y       z     vdW  Elec       q    Type
REMARK                         _______ _______ _______ _____ _____    ______ ____
ROOT
ATOM      1  C   UNL     1      45.712   6.731  11.613  0.00  0.00    +0.000 C 
ENDROOT
BRANCH   1   2
ATOM      2  C   UNL     1      45.172   5.498  10.933  0.00  0.00    +0.000 A 
ATOM      3  C   UNL     1      45.559   5.227   9.596  0.00  0.00    +0.000 A 
ATOM      4  C   UNL     1      45.098   4.098   8.903  0.00  0.00    +0.000 A 
ATOM      5  C   UNL     1      44.232   3.240   9.590  0.00  0.00    +0.000 A 
ATOM      6  C   UNL     1      43.829   3.502  10.897  0.00  0.00    +0.000 A 
ATOM      7  F   UNL     1      42.999   2.625  11.485  0.00  0.00    +0.000 F 
ATOM      8  C   UNL     1      44.284   4.623  11.575  0.00  0.00    +0.000 A 
ATOM      9 CL   UNL     1      43.723   4.887  13.186  0.00  0.00    +0.000 Cl
BRANCH   4  10
ATOM     10  N   UNL     1      45.599   3.831   7.637  0.00  0.00    +0.000 N 
ATOM     11  H   UNL     1      45.022   4.106   6.849  0.00  0.00    +0.000 HD
BRANCH  10  12
ATOM     12  C   UNL     1      46.697   2.910   7.367  0.00  0.00    +0.000 C 
ATOM     13  C   UNL     1      46.922   2.686   5.868  0.00  0.00    +0.000 C 
ATOM     14  C   UNL     1      47.458   1.265   5.733  0.00  0.00    +0.000 C 
ATOM     15  C   UNL     1      47.251   0.567   7.073  0.00  0.00    +0.000 C 
ATOM     16  C   UNL     1      46.434   1.512   7.946  0.00  0.00    +0.000 C 
ENDBRANCH  10  12
ENDBRANCH   4  10
ENDBRANCH   1   2
BRANCH   1  17
ATOM     17  C   UNL     1      47.098   6.496  12.228  0.00  0.00    +0.000 C 
BRANCH  17  18
ATOM     18  N   UNL     1      47.057   6.829  13.646  0.00  0.00    +0.000 N 
ATOM     19  H   UNL     1      47.265   7.788  13.901  0.00  0.00    +0.000 HD
BRANCH  18  23
ATOM     20  C   UNL     1      48.317   3.781  16.091  0.00  0.00    +0.000 A 
ATOM     21  C   UNL     1      48.649   5.101  16.370  0.00  0.00    +0.000 A 
ATOM     22  N   UNL     1      48.202   6.152  15.622  0.00  0.00    +0.000 NA
ATOM     23  C   UNL     1      47.407   5.853  14.573  0.00  0.00    +0.000 A 
ATOM     24  C   UNL     1      47.076   4.515  14.320  0.00  0.00    +0.000 A 
ATOM     25  N   UNL     1      47.503   3.451  15.053  0.00  0.00    +0.000 NA
BRANCH  20  27
ATOM     26  N   UNL     1      48.856   2.743  18.248  0.00  0.00    +0.000 N 
ATOM     27  C   UNL     1      48.873   2.658  16.887  0.00  0.00    +0.000 C 
ATOM     28  O   UNL     1      49.327   1.637  16.340  0.00  0.00    +0.000 OA
ATOM     29  H   UNL     1      49.145   1.918  18.756  0.00  0.00    +0.000 HD
ATOM     30  H   UNL     1      48.300   3.440  18.731  0.00  0.00    +0.000 HD
ENDBRANCH  20  27
ENDBRANCH  18  23
ENDBRANCH  17  18
ENDBRANCH   1  17
TORSDOF 7
ENDMDL
MODEL 3
REMARK VINA RESULT:    -7.641      2.804      5.145
REMARK INTER + INTRA:         -11.573
REMARK INTER:                 -10.850
REMARK INTRA:                  -0.723
REMARK UNBOUND:                -0.805
REMARK  Name = 
REMARK  7 active torsions:
REMARK  status: ('A' for Active; 'I' for Inactive)
REMARK    1  A    between atoms: C_2  and  C_4
REMARK    2  A    between atoms: C_7  and  N_8
REMARK    3  A    between atoms: N_8  and  C_9
REMARK    4  A    between atoms: C_9  and  C_10
REMARK    5  A    between atoms: C_10  and  C_11
REMARK    6  A    between atoms: C_13  and  N_14
REMARK    7  A    between atoms: N_14  and  C_15
REMARK                            x       y       z     vdW  Elec       q    Type
REMARK                         _______ _______ _______ _____ _____    ______ ____
ROOT
ATOM      1  C   UNL     1      43.674   4.012  12.859  0.00  0.00    +0.000 C 
ENDROOT
BRANCH   1   2
ATOM      2  C   UNL     1      44.683   5.131  12.833  0.00  0.00    +0.000 A 
ATOM      3  C   UNL     1      44.241   6.447  12.544  0.00  0.00    +0.000 A 
ATOM      4  C   UNL     1      45.124   7.537  12.504  0.00  0.00    +0.000 A 
ATOM      5  C   UNL     1      46.473   7.272  12.766  0.00  0.00    +0.000 A 
ATOM      6  C   UNL     1      46.925   5.982  13.034  0.00  0.00    +0.000 A 
ATOM      7  F   UNL     1      48.235   5.816  13.279  0.00  0.00    +0.000 F 
ATOM      8  C   UNL     1      46.048   4.909  13.066  0.00  0.00    +0.000 A 
ATOM      9 CL   UNL     1      46.690   3.339  13.388  0.00  0.00    +0.000 Cl
BRANCH   4  10
ATOM     10  N   UNL     1      44.613   8.814  12.323  0.00  0.00    +0.000 N 
ATOM     11  H   UNL     1      44.171   9.248  13.127  0.00  0.00    +0.000 HD
BRANCH  10  12
ATOM     12  C   UNL     1      44.369   9.423  11.021  0.00  0.00    +0.000 C 
ATOM     13  C   UNL     1      44.866  10.871  10.946  0.00  0.00    +0.000 C 
ATOM     14  C   UNL     1      43.937  11.582   9.969  0.00  0.00    +0.000 C 
ATOM     15  C   UNL     1      42.741  10.667   9.723  0.00  0.00    +0.000 C 
ATOM     16  C   UNL     1      42.872   9.496  10.689  0.00  0.00    +0.000 C 
ENDBRANCH  10  12
ENDBRANCH   4  10
ENDBRANCH   1   2
BRANCH   1  17
ATOM     17  C   UNL     1      43.793   3.094  11.635  0.00  0.00    +0.000 C 
BRANCH  17  18
ATOM     18  N   UNL     1      43.952   3.909  10.438  0.00  0.00    +0.000 N 
ATOM     19  H   UNL     1      43.190   4.537  10.203  0.00  0.00    +0.000 HD
BRANCH  18  23
ATOM     20  C   UNL     1      46.415   2.610   7.422  0.00  0.00    +0.000 A 
ATOM     21  C   UNL     1      45.906   1.719   8.358  0.00  0.00    +0.000 A 
ATOM     22  N   UNL     1      45.035   2.093   9.340  0.00  0.00    +0.000 NA
ATOM     23  C   UNL     1      44.680   3.395   9.371  0.00  0.00    +0.000 A 
ATOM     24  C   UNL     1      45.197   4.272   8.407  0.00  0.00    +0.000 A 
ATOM     25  N   UNL     1      46.061   3.923   7.415  0.00  0.00    +0.000 NA
BRANCH  20  27
ATOM     26  N   UNL     1      48.675   2.690   6.468  0.00  0.00    +0.000 N 
ATOM     27  C   UNL     1      47.411   2.182   6.407  0.00  0.00    +0.000 C 
ATOM     28  O   UNL     1      47.123   1.354   5.525  0.00  0.00    +0.000 OA
ATOM     29  H   UNL     1      49.351   2.296   5.827  0.00  0.00    +0.000 HD
ATOM     30  H   UNL     1      49.013   3.181   7.288  0.00  0.00    +0.000 HD
ENDBRANCH  20  27
ENDBRANCH  18  23
ENDBRANCH  17  18
ENDBRANCH   1  17
TORSDOF 7
ENDMDL
MODEL 4
REMARK VINA RESULT:    -7.315      2.697      3.640
REMARK INTER + INTRA:         -11.114
REMARK INTER:                 -10.116
REMARK INTRA:                  -0.997
REMARK UNBOUND:                -0.805
REMARK  Name = 
REMARK  7 active torsions:
REMARK  status: ('A' for Active; 'I' for Inactive)
REMARK    1  A    between atoms: C_2  and  C_4
REMARK    2  A    between atoms: C_7  and  N_8
REMARK    3  A    between atoms: N_8  and  C_9
REMARK    4  A    between atoms: C_9  and  C_10
REMARK    5  A    between atoms: C_10  and  C_11
REMARK    6  A    between atoms: C_13  and  N_14
REMARK    7  A    between atoms: N_14  and  C_15
REMARK                            x       y       z     vdW  Elec       q    Type
REMARK                         _______ _______ _______ _____ _____    ______ ____
ROOT
ATOM      1  C   UNL     1      44.371   4.207  12.887  0.00  0.00    +0.000 C 
ENDROOT
BRANCH   1   2
ATOM      2  C   UNL     1      45.080   5.504  12.591  0.00  0.00    +0.000 A 
ATOM      3  C   UNL     1      46.411   5.679  13.049  0.00  0.00    +0.000 A 
ATOM      4  C   UNL     1      47.131   6.858  12.808  0.00  0.00    +0.000 A 
ATOM      5  C   UNL     1      46.480   7.866  12.089  0.00  0.00    +0.000 A 
ATOM      6  C   UNL     1      45.167   7.716  11.648  0.00  0.00    +0.000 A 
ATOM      7  F   UNL     1      44.617   8.731  10.961  0.00  0.00    +0.000 F 
ATOM      8  C   UNL     1      44.458   6.551  11.894  0.00  0.00    +0.000 A 
ATOM      9 CL   UNL     1      42.830   6.450  11.331  0.00  0.00    +0.000 Cl
BRANCH   4  10
ATOM     10  N   UNL     1      48.465   6.925  13.186  0.00  0.00    +0.000 N 
ATOM     11  H   UNL     1      48.744   6.357  13.980  0.00  0.00    +0.000 HD
BRANCH  10  12
ATOM     12  C   UNL     1      49.388   7.971  12.759  0.00  0.00    +0.000 C 
ATOM     13  C   UNL     1      50.076   7.641  11.431  0.00  0.00    +0.000 C 
ATOM     14  C   UNL     1      51.447   8.306  11.493  0.00  0.00    +0.000 C 
ATOM     15  C   UNL     1      51.680   8.741  12.937  0.00  0.00    +0.000 C 
ATOM     16  C   UNL     1      50.531   8.177  13.763  0.00  0.00    +0.000 C 
ENDBRANCH  10  12
ENDBRANCH   4  10
ENDBRANCH   1   2
BRANCH   1  17
ATOM     17  C   UNL     1      44.808   3.078  11.944  0.00  0.00    +0.000 C 
BRANCH  17  18
ATOM     18  N   UNL     1      44.064   3.181  10.695  0.00  0.00    +0.000 N 
ATOM     19  H   UNL     1      43.090   2.896  10.713  0.00  0.00    +0.000 HD
BRANCH  18  23
ATOM     20  C   UNL     1      46.368   2.833   7.316  0.00  0.00    +0.000 A 
ATOM     21  C   UNL     1      46.008   1.709   8.051  0.00  0.00    +0.000 A 
ATOM     22  N   UNL     1      45.193   1.769   9.144  0.00  0.00    +0.000 NA
ATOM     23  C   UNL     1      44.741   2.992   9.496  0.00  0.00    +0.000 A 
ATOM     24  C   UNL     1      45.108   4.108   8.731  0.00  0.00    +0.000 A 
ATOM     25  N   UNL     1      45.913   4.074   7.634  0.00  0.00    +0.000 NA
BRANCH  20  27
ATOM     26  N   UNL     1      48.647   2.665   6.421  0.00  0.00    +0.000 N 
ATOM     27  C   UNL     1      47.308   2.739   6.170  0.00  0.00    +0.000 C 
ATOM     28  O   UNL     1      46.899   2.700   4.997  0.00  0.00    +0.000 OA
ATOM     29  H   UNL     1      49.246   2.497   5.624  0.00  0.00    +0.000 HD
ATOM     30  H   UNL     1      49.005   2.467   7.348  0.00  0.00    +0.000 HD
ENDBRANCH  20  27
ENDBRANCH  18  23
ENDBRANCH  17  18
ENDBRANCH   1  17
TORSDOF 7
ENDMDL
MODEL 5
REMARK VINA RESULT:    -7.144      3.604      8.121
REMARK INTER + INTRA:         -10.873
REMARK INTER:                 -10.347
REMARK INTRA:                  -0.526
REMARK UNBOUND:                -0.805
REMARK  Name = 
REMARK  7 active torsions:
REMARK  status: ('A' for Active; 'I' for Inactive)
REMARK    1  A    between atoms: C_2  and  C_4
REMARK    2  A    between atoms: C_7  and  N_8
REMARK    3  A    between atoms: N_8  and  C_9
REMARK    4  A    between atoms: C_9  and  C_10
REMARK    5  A    between atoms: C_10  and  C_11
REMARK    6  A    between atoms: C_13  and  N_14
REMARK    7  A    between atoms: N_14  and  C_15
REMARK                            x       y       z     vdW  Elec       q    Type
REMARK                         _______ _______ _______ _____ _____    ______ ____
ROOT
ATOM      1  C   UNL     1      47.182   3.914  14.102  0.00  0.00    +0.000 C 
ENDROOT
BRANCH   1   2
ATOM      2  C   UNL     1      46.621   4.943  13.153  0.00  0.00    +0.000 A 
ATOM      3  C   UNL     1      45.639   4.544  12.211  0.00  0.00    +0.000 A 
ATOM      4  C   UNL     1      45.073   5.448  11.300  0.00  0.00    +0.000 A 
ATOM      5  C   UNL     1      45.519   6.773  11.357  0.00  0.00    +0.000 A 
ATOM      6  C   UNL     1      46.496   7.175  12.264  0.00  0.00    +0.000 A 
ATOM      7  F   UNL     1      46.864   8.467  12.256  0.00  0.00    +0.000 F 
ATOM      8  C   UNL     1      47.056   6.276  13.159  0.00  0.00    +0.000 A 
ATOM      9 CL   UNL     1      48.274   6.850  14.239  0.00  0.00    +0.000 Cl
BRANCH   4  10
ATOM     10  N   UNL     1      44.039   5.021  10.479  0.00  0.00    +0.000 N 
ATOM     11  H   UNL     1      43.094   5.158  10.823  0.00  0.00    +0.000 HD
BRANCH  10  12
ATOM     12  C   UNL     1      44.209   4.112   9.351  0.00  0.00    +0.000 C 
ATOM     13  C   UNL     1      44.330   2.649   9.787  0.00  0.00    +0.000 C 
ATOM     14  C   UNL     1      45.222   1.975   8.750  0.00  0.00    +0.000 C 
ATOM     15  C   UNL     1      45.864   3.076   7.912  0.00  0.00    +0.000 C 
ATOM     16  C   UNL     1      45.494   4.403   8.563  0.00  0.00    +0.000 C 
ENDBRANCH  10  12
ENDBRANCH   4  10
ENDBRANCH   1   2
BRANCH   1  17
ATOM     17  C   UNL     1      46.898   4.261  15.569  0.00  0.00    +0.000 C 
BRANCH  17  18
ATOM     18  N   UNL     1      47.357   3.170  16.418  0.00  0.00    +0.000 N 
ATOM     19  H   UNL     1      46.734   2.867  17.159  0.00  0.00    +0.000 HD
BRANCH  18  23
ATOM     20  C   UNL     1      51.287   2.817  17.552  0.00  0.00    +0.000 A 
ATOM     21  C   UNL     1      50.649   1.790  16.868  0.00  0.00    +0.000 A 
ATOM     22  N   UNL     1      49.364   1.885  16.417  0.00  0.00    +0.000 NA
ATOM     23  C   UNL     1      48.719   3.045  16.669  0.00  0.00    +0.000 A 
ATOM     24  C   UNL     1      49.389   4.071  17.348  0.00  0.00    +0.000 A 
ATOM     25  N   UNL     1      50.670   4.003  17.802  0.00  0.00    +0.000 NA
BRANCH  20  27
ATOM     26  N   UNL     1      53.017   1.462  18.645  0.00  0.00    +0.000 N 
ATOM     27  C   UNL     1      52.664   2.655  18.084  0.00  0.00    +0.000 C 
ATOM     28  O   UNL     1      53.503   3.569  18.004  0.00  0.00    +0.000 OA
ATOM     29  H   UNL     1      53.989   1.354  18.900  0.00  0.00    +0.000 HD
ATOM     30  H   UNL     1      52.449   0.630  18.528  0.00  0.00    +0.000 HD
ENDBRANCH  20  27
ENDBRANCH  18  23
ENDBRANCH  17  18
ENDBRANCH   1  17
TORSDOF 7
ENDMDL
MODEL 6
REMARK VINA RESULT:    -6.970      3.292      7.630
REMARK INTER + INTRA:         -10.627
REMARK INTER:                  -9.675
REMARK INTRA:                  -0.952
REMARK UNBOUND:                -0.805
REMARK  Name = 
REMARK  7 active torsions:
REMARK  status: ('A' for Active; 'I' for Inactive)
REMARK    1  A    between atoms: C_2  and  C_4
REMARK    2  A    between atoms: C_7  and  N_8
REMARK    3  A    between atoms: N_8  and  C_9
REMARK    4  A    between atoms: C_9  and  C_10
REMARK    5  A    between atoms: C_10  and  C_11
REMARK    6  A    between atoms: C_13  and  N_14
REMARK    7  A    between atoms: N_14  and  C_15
REMARK                            x       y       z     vdW  Elec       q    Type
REMARK                         _______ _______ _______ _____ _____    ______ ____
ROOT
ATOM      1  C   UNL     1      48.819   8.434  12.146  0.00  0.00    +0.000 C 
ENDROOT
BRANCH   1   2
ATOM      2  C   UNL     1      47.359   8.123  11.933  0.00  0.00    +0.000 A 
ATOM      3  C   UNL     1      46.973   6.782  11.680  0.00  0.00    +0.000 A 
ATOM      4  C   UNL     1      45.633   6.420  11.474  0.00  0.00    +0.000 A 
ATOM      5  C   UNL     1      44.682   7.445  11.531  0.00  0.00    +0.000 A 
ATOM      6  C   UNL     1      45.048   8.769  11.762  0.00  0.00    +0.000 A 
ATOM      7  F   UNL     1      44.071   9.690  11.806  0.00  0.00    +0.000 F 
ATOM      8  C   UNL     1      46.374   9.121  11.958  0.00  0.00    +0.000 A 
ATOM      9 CL   UNL     1      46.747  10.786  12.220  0.00  0.00    +0.000 Cl
BRANCH   4  10
ATOM     10  N   UNL     1      45.309   5.078  11.340  0.00  0.00    +0.000 N 
ATOM     11  H   UNL     1      45.729   4.437  12.005  0.00  0.00    +0.000 HD
BRANCH  10  12
ATOM     12  C   UNL     1      44.701   4.496  10.149  0.00  0.00    +0.000 C 
ATOM     13  C   UNL     1      44.497   2.982  10.272  0.00  0.00    +0.000 C 
ATOM     14  C   UNL     1      44.620   2.427   8.857  0.00  0.00    +0.000 C 
ATOM     15  C   UNL     1      45.194   3.534   7.978  0.00  0.00    +0.000 C 
ATOM     16  C   UNL     1      45.577   4.683   8.902  0.00  0.00    +0.000 C 
ENDBRANCH  10  12
ENDBRANCH   4  10
ENDBRANCH   1   2
BRANCH   1  17
ATOM     17  C   UNL     1      49.497   7.427  13.085  0.00  0.00    +0.000 C 
BRANCH  17  18
ATOM     18  N   UNL     1      48.939   7.569  14.424  0.00  0.00    +0.000 N 
ATOM     19  H   UNL     1      49.197   8.400  14.945  0.00  0.00    +0.000 HD
BRANCH  18  23
ATOM     20  C   UNL     1      48.007   4.421  16.888  0.00  0.00    +0.000 A 
ATOM     21  C   UNL     1      47.535   4.466  15.581  0.00  0.00    +0.000 A 
ATOM     22  N   UNL     1      47.869   5.459  14.707  0.00  0.00    +0.000 NA
ATOM     23  C   UNL     1      48.693   6.423  15.171  0.00  0.00    +0.000 A 
ATOM     24  C   UNL     1      49.166   6.348  16.488  0.00  0.00    +0.000 A 
ATOM     25  N   UNL     1      48.854   5.365  17.377  0.00  0.00    +0.000 NA
BRANCH  20  27
ATOM     26  N   UNL     1      48.301   3.148  18.965  0.00  0.00    +0.000 N 
ATOM     27  C   UNL     1      47.573   3.360  17.831  0.00  0.00    +0.000 C 
ATOM     28  O   UNL     1      46.551   2.684  17.622  0.00  0.00    +0.000 OA
ATOM     29  H   UNL     1      47.917   2.492  19.632  0.00  0.00    +0.000 HD
ATOM     30  H   UNL     1      48.996   3.814  19.284  0.00  0.00    +0.000 HD
ENDBRANCH  20  27
ENDBRANCH  18  23
ENDBRANCH  17  18
ENDBRANCH   1  17
TORSDOF 7
ENDMDL
MODEL 7
REMARK VINA RESULT:    -6.860      3.184      7.898
REMARK INTER + INTRA:         -10.472
REMARK INTER:                 -10.057
REMARK INTRA:                  -0.416
REMARK UNBOUND:                -0.805
REMARK  Name = 
REMARK  7 active torsions:
REMARK  status: ('A' for Active; 'I' for Inactive)
REMARK    1  A    between atoms: C_2  and  C_4
REMARK    2  A    between atoms: C_7  and  N_8
REMARK    3  A    between atoms: N_8  and  C_9
REMARK    4  A    between atoms: C_9  and  C_10
REMARK    5  A    between atoms: C_10  and  C_11
REMARK    6  A    between atoms: C_13  and  N_14
REMARK    7  A    between atoms: N_14  and  C_15
REMARK                            x       y       z     vdW  Elec       q    Type
REMARK                         _______ _______ _______ _____ _____    ______ ____
ROOT
ATOM      1  C   UNL     1      47.143   6.694  11.754  0.00  0.00    +0.000 C 
ENDROOT
BRANCH   1   2
ATOM      2  C   UNL     1      45.785   6.169  11.362  0.00  0.00    +0.000 A 
ATOM      3  C   UNL     1      45.692   4.886  10.765  0.00  0.00    +0.000 A 
ATOM      4  C   UNL     1      44.462   4.335  10.377  0.00  0.00    +0.000 A 
ATOM      5  C   UNL     1      43.318   5.107  10.605  0.00  0.00    +0.000 A 
ATOM      6  C   UNL     1      43.396   6.376  11.175  0.00  0.00    +0.000 A 
ATOM      7  F   UNL     1      42.249   7.049  11.364  0.00  0.00    +0.000 F 
ATOM      8  C   UNL     1      44.615   6.918  11.551  0.00  0.00    +0.000 A 
ATOM      9 CL   UNL     1      44.628   8.504  12.233  0.00  0.00    +0.000 Cl
BRANCH   4  10
ATOM     10  N   UNL     1      44.426   3.033   9.899  0.00  0.00    +0.000 N 
ATOM     11  H   UNL     1      44.343   2.294  10.590  0.00  0.00    +0.000 HD
BRANCH  10  12
ATOM     12  C   UNL     1      44.828   2.641   8.552  0.00  0.00    +0.000 C 
ATOM     13  C   UNL     1      45.919   1.566   8.553  0.00  0.00    +0.000 C 
ATOM     14  C   UNL     1      46.744   1.805   7.294  0.00  0.00    +0.000 C 
ATOM     15  C   UNL     1      46.349   3.171   6.739  0.00  0.00    +0.000 C 
ATOM     16  C   UNL     1      45.423   3.816   7.763  0.00  0.00    +0.000 C 
ENDBRANCH  10  12
ENDBRANCH   4  10
ENDBRANCH   1   2
BRANCH   1  17
ATOM     17  C   UNL     1      47.286   6.859  13.273  0.00  0.00    +0.000 C 
BRANCH  17  18
ATOM     18  N   UNL     1      46.707   5.699  13.938  0.00  0.00    +0.000 N 
ATOM     19  H   UNL     1      45.696   5.667  14.013  0.00  0.00    +0.000 HD
BRANCH  18  23
ATOM     20  C   UNL     1      48.689   4.200  17.205  0.00  0.00    +0.000 A 
ATOM     21  C   UNL     1      47.664   3.480  16.603  0.00  0.00    +0.000 A 
ATOM     22  N   UNL     1      47.019   3.909  15.479  0.00  0.00    +0.000 NA
ATOM     23  C   UNL     1      47.422   5.090  14.963  0.00  0.00    +0.000 A 
ATOM     24  C   UNL     1      48.467   5.790  15.581  0.00  0.00    +0.000 A 
ATOM     25  N   UNL     1      49.130   5.381  16.698  0.00  0.00    +0.000 NA
BRANCH  20  27
ATOM     26  N   UNL     1      48.533   3.239  19.459  0.00  0.00    +0.000 N 
ATOM     27  C   UNL     1      49.325   3.734  18.464  0.00  0.00    +0.000 C 
ATOM     28  O   UNL     1      50.559   3.761  18.616  0.00  0.00    +0.000 OA
ATOM     29  H   UNL     1      49.009   2.836  20.255  0.00  0.00    +0.000 HD
ATOM     30  H   UNL     1      47.564   2.991  19.294  0.00  0.00    +0.000 HD
ENDBRANCH  20  27
ENDBRANCH  18  23
ENDBRANCH  17  18
ENDBRANCH   1  17
TORSDOF 7
ENDMDL
MODEL 8
REMARK VINA RESULT:    -6.549      4.111      8.370
REMARK INTER + INTRA:         -10.034
REMARK INTER:                  -9.621
REMARK INTRA:                  -0.413
REMARK UNBOUND:                -0.805
REMARK  Name = 
REMARK  7 active torsions:
REMARK  status: ('A' for Active; 'I' for Inactive)
REMARK    1  A    between atoms: C_2  and  C_4
REMARK    2  A    between atoms: C_7  and  N_8
REMARK    3  A    between atoms: N_8  and  C_9
REMARK    4  A    between atoms: C_9  and  C_10
REMARK    5  A    between atoms: C_10  and  C_11
REMARK    6  A    between atoms: C_13  and  N_14
REMARK    7  A    between atoms: N_14  and  C_15
REMARK                            x       y       z     vdW  Elec       q    Type
REMARK                         _______ _______ _______ _____ _____    ______ ____
ROOT
ATOM      1  C   UNL     1      45.579   6.493  11.781  0.00  0.00    +0.000 C 
ENDROOT
BRANCH   1   2
ATOM      2  C   UNL     1      45.091   5.267  11.053  0.00  0.00    +0.000 A 
ATOM      3  C   UNL     1      45.440   5.094   9.689  0.00  0.00    +0.000 A 
ATOM      4  C   UNL     1      45.022   3.977   8.951  0.00  0.00    +0.000 A 
ATOM      5  C   UNL     1      44.240   3.029   9.619  0.00  0.00    +0.000 A 
ATOM      6  C   UNL     1      43.874   3.194  10.953  0.00  0.00    +0.000 A 
ATOM      7  F   UNL     1      43.125   2.234  11.521  0.00  0.00    +0.000 F 
ATOM      8  C   UNL     1      44.286   4.302  11.676  0.00  0.00    +0.000 A 
ATOM      9 CL   UNL     1      43.775   4.442  13.319  0.00  0.00    +0.000 Cl
BRANCH   4  10
ATOM     10  N   UNL     1      45.488   3.811   7.654  0.00  0.00    +0.000 N 
ATOM     11  H   UNL     1      44.854   4.069   6.904  0.00  0.00    +0.000 HD
BRANCH  10  12
ATOM     12  C   UNL     1      46.649   3.005   7.296  0.00  0.00    +0.000 C 
ATOM     13  C   UNL     1      46.810   2.846   5.781  0.00  0.00    +0.000 C 
ATOM     14  C   UNL     1      47.465   1.486   5.569  0.00  0.00    +0.000 C 
ATOM     15  C   UNL     1      47.398   0.733   6.895  0.00  0.00    +0.000 C 
ATOM     16  C   UNL     1      46.548   1.573   7.840  0.00  0.00    +0.000 C 
ENDBRANCH  10  12
ENDBRANCH   4  10
ENDBRANCH   1   2
BRANCH   1  17
ATOM     17  C   UNL     1      46.708   6.171  12.769  0.00  0.00    +0.000 C 
BRANCH  17  18
ATOM     18  N   UNL     1      47.954   6.749  12.280  0.00  0.00    +0.000 N 
ATOM     19  H   UNL     1      48.236   6.505  11.337  0.00  0.00    +0.000 HD
BRANCH  18  23
ATOM     20  C   UNL     1      50.870   7.866  14.944  0.00  0.00    +0.000 A 
ATOM     21  C   UNL     1      49.846   7.009  15.328  0.00  0.00    +0.000 A 
ATOM     22  N   UNL     1      48.891   6.561  14.463  0.00  0.00    +0.000 NA
ATOM     23  C   UNL     1      48.978   6.995  13.187  0.00  0.00    +0.000 A 
ATOM     24  C   UNL     1      50.028   7.849  12.821  0.00  0.00    +0.000 A 
ATOM     25  N   UNL     1      50.996   8.304  13.663  0.00  0.00    +0.000 NA
BRANCH  20  27
ATOM     26  N   UNL     1      51.908   7.820  17.167  0.00  0.00    +0.000 N 
ATOM     27  C   UNL     1      51.856   8.384  15.927  0.00  0.00    +0.000 C 
ATOM     28  O   UNL     1      52.646   9.298  15.633  0.00  0.00    +0.000 OA
ATOM     29  H   UNL     1      52.660   8.126  17.771  0.00  0.00    +0.000 HD
ATOM     30  H   UNL     1      51.450   6.938  17.371  0.00  0.00    +0.000 HD
ENDBRANCH  20  27
ENDBRANCH  18  23
ENDBRANCH  17  18
ENDBRANCH   1  17
TORSDOF 7
ENDMDL
MODEL 9
REMARK VINA RESULT:    -6.407      4.108      7.380
REMARK INTER + INTRA:          -9.834
REMARK INTER:                  -8.795
REMARK INTRA:                  -1.039
REMARK UNBOUND:                -0.805
REMARK  Name = 
REMARK  7 active torsions:
REMARK  status: ('A' for Active; 'I' for Inactive)
REMARK    1  A    between atoms: C_2  and  C_4
REMARK    2  A    between atoms: C_7  and  N_8
REMARK    3  A    between atoms: N_8  and  C_9
REMARK    4  A    between atoms: C_9  and  C_10
REMARK    5  A    between atoms: C_10  and  C_11
REMARK    6  A    between atoms: C_13  and  N_14
REMARK    7  A    between atoms: N_14  and  C_15
REMARK                            x       y       z     vdW  Elec       q    Type
REMARK                         _______ _______ _______ _____ _____    ______ ____
ROOT
ATOM      1  C   UNL     1      49.161   8.603  12.087  0.00  0.00    +0.000 C 
ENDROOT
BRANCH   1   2
ATOM      2  C   UNL     1      47.687   8.921  12.084  0.00  0.00    +0.000 A 
ATOM      3  C   UNL     1      46.756   7.861  12.231  0.00  0.00    +0.000 A 
ATOM      4  C   UNL     1      45.371   8.084  12.238  0.00  0.00    +0.000 A 
ATOM      5  C   UNL     1      44.939   9.407  12.094  0.00  0.00    +0.000 A 
ATOM      6  C   UNL     1      45.840  10.456  11.931  0.00  0.00    +0.000 A 
ATOM      7  F   UNL     1      45.342  11.697  11.804  0.00  0.00    +0.000 F 
ATOM      8  C   UNL     1      47.208  10.229  11.919  0.00  0.00    +0.000 A 
ATOM      9 CL   UNL     1      48.259  11.580  11.694  0.00  0.00    +0.000 Cl
BRANCH   4  10
ATOM     10  N   UNL     1      44.517   7.021  12.495  0.00  0.00    +0.000 N 
ATOM     11  H   UNL     1      43.979   7.063  13.354  0.00  0.00    +0.000 HD
BRANCH  10  12
ATOM     12  C   UNL     1      44.585   5.731  11.816  0.00  0.00    +0.000 C 
ATOM     13  C   UNL     1      43.213   5.243  11.341  0.00  0.00    +0.000 C 
ATOM     14  C   UNL     1      43.270   3.721  11.391  0.00  0.00    +0.000 C 
ATOM     15  C   UNL     1      44.521   3.333  12.173  0.00  0.00    +0.000 C 
ATOM     16  C   UNL     1      45.108   4.620  12.738  0.00  0.00    +0.000 C 
ENDBRANCH  10  12
ENDBRANCH   4  10
ENDBRANCH   1   2
BRANCH   1  17
ATOM     17  C   UNL     1      49.469   7.283  12.807  0.00  0.00    +0.000 C 
BRANCH  17  18
ATOM     18  N   UNL     1      49.674   7.547  14.226  0.00  0.00    +0.000 N 
ATOM     19  H   UNL     1      50.565   7.949  14.496  0.00  0.00    +0.000 HD
BRANCH  18  23
ATOM     20  C   UNL     1      48.039   4.769  16.767  0.00  0.00    +0.000 A 
ATOM     21  C   UNL     1      48.982   5.682  17.223  0.00  0.00    +0.000 A 
ATOM     22  N   UNL     1      49.507   6.662  16.432  0.00  0.00    +0.000 NA
ATOM     23  C   UNL     1      49.066   6.711  15.156  0.00  0.00    +0.000 A 
ATOM     24  C   UNL     1      48.105   5.787  14.724  0.00  0.00    +0.000 A 
ATOM     25  N   UNL     1      47.562   4.805  15.495  0.00  0.00    +0.000 NA
BRANCH  20  27
ATOM     26  N   UNL     1      48.176   3.425  18.817  0.00  0.00    +0.000 N 
ATOM     27  C   UNL     1      47.537   3.675  17.638  0.00  0.00    +0.000 C 
ATOM     28  O   UNL     1      46.536   3.007  17.328  0.00  0.00    +0.000 OA
ATOM     29  H   UNL     1      47.744   2.746  19.429  0.00  0.00    +0.000 HD
ATOM     30  H   UNL     1      48.843   4.080  19.211  0.00  0.00    +0.000 HD
ENDBRANCH  20  27
ENDBRANCH  18  23
ENDBRANCH  17  18
ENDBRANCH   1  17
TORSDOF 7
ENDMDL
