MODEL 1
REMARK VINA RESULT:    -8.387      0.000      0.000
REMARK INTER + INTRA:         -13.023
REMARK INTER:                 -11.819
REMARK INTRA:                  -1.204
REMARK UNBOUND:                -1.204
REMARK  Name = 
REMARK  7 active torsions:
REMARK  status: ('A' for Active; 'I' for Inactive)
REMARK    1  A    between atoms: C_2  and  C_4
REMARK    2  A    between atoms: C_8  and  N_9
REMARK    3  A    between atoms: N_9  and  C_10
REMARK    4  A    between atoms: C_10  and  C_11
REMARK    5  A    between atoms: C_14  and  C_15
REMARK    6  A    between atoms: C_15  and  N_16
REMARK    7  A    between atoms: C_17  and  C_19
REMARK                            x       y       z     vdW  Elec       q    Type
REMARK                         _______ _______ _______ _____ _____    ______ ____
ROOT
ATOM      1  C   UNL     1      44.570   5.612  11.251  0.00  0.00    +0.000 A 
ATOM      2  C   UNL     1      45.693   5.013  11.841  0.00  0.00    +0.000 A 
ATOM      3  C   UNL     1      46.634   5.778  12.540  0.00  0.00    +0.000 A 
ATOM      4  C   UNL     1      46.459   7.160  12.689  0.00  0.00    +0.000 A 
ATOM      5  C   UNL     1      45.346   7.761  12.079  0.00  0.00    +0.000 A 
ATOM      6  C   UNL     1      44.406   6.996  11.377  0.00  0.00    +0.000 A 
ENDROOT
BRANCH   1   7
ATOM      7  C   UNL     1      43.604   4.776  10.447  0.00  0.00    +0.000 C 
BRANCH   7   8
ATOM      8  N   UNL     1      43.990   4.688   9.038  0.00  0.00    +0.000 N 
ATOM      9  H   UNL     1      44.368   5.566   8.687  0.00  0.00    +0.000 HD
BRANCH   8  14
ATOM     10  C   UNL     1      46.432   2.587   7.167  0.00  0.00    +0.000 A 
ATOM     11  C   UNL     1      46.328   1.362   7.833  0.00  0.00    +0.000 A 
ATOM     12  C   UNL     1      45.427   1.230   8.882  0.00  0.00    +0.000 A 
ATOM     13  C   UNL     1      44.659   2.326   9.280  0.00  0.00    +0.000 A 
ATOM     14  C   UNL     1      44.785   3.585   8.668  0.00  0.00    +0.000 A 
ATOM     15  C   UNL     1      45.654   3.686   7.573  0.00  0.00    +0.000 A 
BRANCH  10  17
ATOM     16  N   UNL     1      48.735   2.584   6.380  0.00  0.00    +0.000 N 
ATOM     17  C   UNL     1      47.416   2.766   6.066  0.00  0.00    +0.000 C 
ATOM     18  O   UNL     1      47.062   3.041   4.935  0.00  0.00    +0.000 OA
ATOM     19  H   UNL     1      49.398   2.659   5.614  0.00  0.00    +0.000 HD
ATOM     20  H   UNL     1      49.046   2.133   7.227  0.00  0.00    +0.000 HD
ENDBRANCH  10  17
ENDBRANCH   8  14
ENDBRANCH   7   8
ENDBRANCH   1   7
BRANCH   4  21
ATOM     21  C   UNL     1      47.433   8.001  13.484  0.00  0.00    +0.000 C 
BRANCH  21  22
ATOM     22  N   UNL     1      47.752   7.399  14.751  0.00  0.00    +0.000 N 
ATOM     23  C   UNL     1      49.041   7.097  15.113  0.00  0.00    +0.000 C 
ATOM     24  O   UNL     1      50.007   7.344  14.397  0.00  0.00    +0.000 OA
ATOM     25  H   UNL     1      46.999   6.891  15.202  0.00  0.00    +0.000 HD
BRANCH  23  26
ATOM     26  C   UNL     1      49.200   6.513  16.450  0.00  0.00    +0.000 A 
ATOM     27  C   UNL     1      49.901   7.192  17.438  0.00  0.00    +0.000 A 
ATOM     28  S   UNL     1      49.928   6.375  18.937  0.00  0.00    +0.000 S 
ATOM     29  C   UNL     1      49.049   5.063  18.302  0.00  0.00    +0.000 A 
ATOM     30  N   UNL     1      48.749   3.979  19.067  0.00  0.00    +0.000 NA
ATOM     31  C   UNL     1      48.101   3.050  18.448  0.00  0.00    +0.000 A 
ATOM     32  N   UNL     1      47.718   3.107  17.132  0.00  0.00    +0.000 N 
ATOM     33  C   UNL     1      47.958   4.198  16.337  0.00  0.00    +0.000 A 
ATOM     34  O   UNL     1      47.535   4.248  15.187  0.00  0.00    +0.000 OA
ATOM     35  C   UNL     1      48.713   5.259  16.976  0.00  0.00    +0.000 A 
ATOM     36  H   UNL     1      47.194   2.357  16.709  0.00  0.00    +0.000 HD
ENDBRANCH  23  26
ENDBRANCH  21  22
ENDBRANCH   4  21
TORSDOF 7
ENDMDL
MODEL 2
REMARK VINA RESULT:    -8.383      1.812      2.256
REMARK INTER + INTRA:         -13.018
REMARK INTER:                 -12.074
REMARK INTRA:                  -0.944
REMARK UNBOUND:                -1.204
REMARK  Name = 
REMARK  7 active torsions:
REMARK  status: ('A' for Active; 'I' for Inactive)
REMARK    1  A    between atoms: C_2  and  C_4
REMARK    2  A    between atoms: C_8  and  N_9
REMARK    3  A    between atoms: N_9  and  C_10
REMARK    4  A    between atoms: C_10  and  C_11
REMARK    5  A    between atoms: C_14  and  C_15
REMARK    6  A    between atoms: C_15  and  N_16
REMARK    7  A    between atoms: C_17  and  C_19
REMARK                            x       y       z     vdW  Elec       q    Type
REMARK                         _______ _______ _______ _____ _____    ______ ____
ROOT
ATOM      1  C   UNL     1      44.646   4.472  12.314  0.00  0.00    +0.000 A 
ATOM      2  C   UNL     1      45.648   3.734  12.961  0.00  0.00    +0.000 A 
ATOM      3  C   UNL     1      46.785   4.364  13.481  0.00  0.00    +0.000 A 
ATOM      4  C   UNL     1      46.932   5.755  13.389  0.00  0.00    +0.000 A 
ATOM      5  C   UNL     1      45.939   6.488  12.721  0.00  0.00    +0.000 A 
ATOM      6  C   UNL     1      44.803   5.857  12.199  0.00  0.00    +0.000 A 
ENDROOT
BRANCH   1   7
ATOM      7  C   UNL     1      43.461   3.762  11.704  0.00  0.00    +0.000 C 
BRANCH   7   8
ATOM      8  N   UNL     1      43.858   2.575  10.946  0.00  0.00    +0.000 N 
ATOM      9  H   UNL     1      43.089   1.915  10.834  0.00  0.00    +0.000 HD
BRANCH   8  14
ATOM     10  C   UNL     1      46.122   2.030   8.039  0.00  0.00    +0.000 A 
ATOM     11  C   UNL     1      46.015   3.246   7.357  0.00  0.00    +0.000 A 
ATOM     12  C   UNL     1      45.212   4.252   7.881  0.00  0.00    +0.000 A 
ATOM     13  C   UNL     1      44.501   4.030   9.061  0.00  0.00    +0.000 A 
ATOM     14  C   UNL     1      44.543   2.797   9.736  0.00  0.00    +0.000 A 
ATOM     15  C   UNL     1      45.403   1.814   9.228  0.00  0.00    +0.000 A 
BRANCH  10  17
ATOM     16  N   UNL     1      47.943   1.269   6.614  0.00  0.00    +0.000 N 
ATOM     17  C   UNL     1      46.943   0.922   7.480  0.00  0.00    +0.000 C 
ATOM     18  O   UNL     1      46.747  -0.237   7.796  0.00  0.00    +0.000 OA
ATOM     19  H   UNL     1      48.532   0.514   6.274  0.00  0.00    +0.000 HD
ATOM     20  H   UNL     1      48.286   2.212   6.513  0.00  0.00    +0.000 HD
ENDBRANCH  10  17
ENDBRANCH   8  14
ENDBRANCH   7   8
ENDBRANCH   1   7
BRANCH   4  21
ATOM     21  C   UNL     1      48.125   6.466  13.988  0.00  0.00    +0.000 C 
BRANCH  21  22
ATOM     22  N   UNL     1      47.978   6.658  15.406  0.00  0.00    +0.000 N 
ATOM     23  C   UNL     1      49.015   6.458  16.283  0.00  0.00    +0.000 C 
ATOM     24  O   UNL     1      50.140   6.130  15.918  0.00  0.00    +0.000 OA
ATOM     25  H   UNL     1      47.031   6.597  15.766  0.00  0.00    +0.000 HD
BRANCH  23  26
ATOM     26  C   UNL     1      48.709   6.726  17.694  0.00  0.00    +0.000 A 
ATOM     27  C   UNL     1      48.428   8.017  18.122  0.00  0.00    +0.000 A 
ATOM     28  S   UNL     1      48.044   8.114  19.783  0.00  0.00    +0.000 S 
ATOM     29  C   UNL     1      48.291   6.443  19.996  0.00  0.00    +0.000 A 
ATOM     30  N   UNL     1      48.154   5.861  21.218  0.00  0.00    +0.000 NA
ATOM     31  C   UNL     1      48.396   4.593  21.235  0.00  0.00    +0.000 A 
ATOM     32  N   UNL     1      48.756   3.850  20.140  0.00  0.00    +0.000 N 
ATOM     33  C   UNL     1      48.860   4.386  18.882  0.00  0.00    +0.000 A 
ATOM     34  O   UNL     1      49.109   3.678  17.912  0.00  0.00    +0.000 OA
ATOM     35  C   UNL     1      48.630   5.816  18.812  0.00  0.00    +0.000 A 
ATOM     36  H   UNL     1      48.912   2.856  20.213  0.00  0.00    +0.000 HD
ENDBRANCH  23  26
ENDBRANCH  21  22
ENDBRANCH   4  21
TORSDOF 7
ENDMDL
MODEL 3
REMARK VINA RESULT:    -8.166      2.169      2.850
REMARK INTER + INTRA:         -12.712
REMARK INTER:                 -11.439
REMARK INTRA:                  -1.272
REMARK UNBOUND:                -1.204
REMARK  Name = 
REMARK  7 active torsions:
REMARK  status: ('A' for Active; 'I' for Inactive)
REMARK    1  A    between atoms: C_2  and  C_4
REMARK    2  A    between atoms: C_8  and  N_9
REMARK    3  A    between atoms: N_9  and  C_10
REMARK    4  A    between atoms: C_10  and  C_11
REMARK    5  A    between atoms: C_14  and  C_15
REMARK    6  A    between atoms: C_15  and  N_16
REMARK    7  A    between atoms: C_17  and  C_19
REMARK                            x       y       z     vdW  Elec       q    Type
REMARK                         _______ _______ _______ _____ _____    ______ ____
ROOT
ATOM      1  C   UNL     1      45.016   5.483  11.747  0.00  0.00    +0.000 A 
ATOM      2  C   UNL     1      45.253   4.867  12.985  0.00  0.00    +0.000 A 
ATOM      3  C   UNL     1      46.375   5.202  13.752  0.00  0.00    +0.000 A 
ATOM      4  C   UNL     1      47.273   6.183  13.311  0.00  0.00    +0.000 A 
ATOM      5  C   UNL     1      47.046   6.782  12.062  0.00  0.00    +0.000 A 
ATOM      6  C   UNL     1      45.925   6.445  11.292  0.00  0.00    +0.000 A 
ENDROOT
BRANCH   1   7
ATOM      7  C   UNL     1      43.836   5.058  10.907  0.00  0.00    +0.000 C 
BRANCH   7   8
ATOM      8  N   UNL     1      44.171   4.974   9.485  0.00  0.00    +0.000 N 
ATOM      9  H   UNL     1      44.665   5.803   9.157  0.00  0.00    +0.000 HD
BRANCH   8  14
ATOM     10  C   UNL     1      46.359   2.650   7.565  0.00  0.00    +0.000 A 
ATOM     11  C   UNL     1      45.981   1.406   8.079  0.00  0.00    +0.000 A 
ATOM     12  C   UNL     1      44.982   1.342   9.042  0.00  0.00    +0.000 A 
ATOM     13  C   UNL     1      44.387   2.517   9.506  0.00  0.00    +0.000 A 
ATOM     14  C   UNL     1      44.789   3.785   9.050  0.00  0.00    +0.000 A 
ATOM     15  C   UNL     1      45.755   3.829   8.036  0.00  0.00    +0.000 A 
BRANCH  10  17
ATOM     16  N   UNL     1      47.204   3.500   5.446  0.00  0.00    +0.000 N 
ATOM     17  C   UNL     1      47.454   2.750   6.562  0.00  0.00    +0.000 C 
ATOM     18  O   UNL     1      48.529   2.207   6.738  0.00  0.00    +0.000 OA
ATOM     19  H   UNL     1      47.972   3.606   4.789  0.00  0.00    +0.000 HD
ATOM     20  H   UNL     1      46.433   4.147   5.374  0.00  0.00    +0.000 HD
ENDBRANCH  10  17
ENDBRANCH   8  14
ENDBRANCH   7   8
ENDBRANCH   1   7
BRANCH   4  21
ATOM     21  C   UNL     1      48.463   6.601  14.146  0.00  0.00    +0.000 C 
BRANCH  21  22
ATOM     22  N   UNL     1      48.131   6.700  15.542  0.00  0.00    +0.000 N 
ATOM     23  C   UNL     1      48.992   6.291  16.530  0.00  0.00    +0.000 C 
ATOM     24  O   UNL     1      50.109   5.841  16.293  0.00  0.00    +0.000 OA
ATOM     25  H   UNL     1      47.141   6.742  15.759  0.00  0.00    +0.000 HD
BRANCH  23  26
ATOM     26  C   UNL     1      48.514   6.487  17.904  0.00  0.00    +0.000 A 
ATOM     27  C   UNL     1      48.439   5.416  18.785  0.00  0.00    +0.000 A 
ATOM     28  S   UNL     1      47.912   5.856  20.348  0.00  0.00    +0.000 S 
ATOM     29  C   UNL     1      47.717   7.483  19.886  0.00  0.00    +0.000 A 
ATOM     30  N   UNL     1      47.254   8.414  20.762  0.00  0.00    +0.000 NA
ATOM     31  C   UNL     1      47.133   9.600  20.268  0.00  0.00    +0.000 A 
ATOM     32  N   UNL     1      47.439   9.945  18.976  0.00  0.00    +0.000 N 
ATOM     33  C   UNL     1      47.952   9.050  18.073  0.00  0.00    +0.000 A 
ATOM     34  O   UNL     1      48.287   9.408  16.949  0.00  0.00    +0.000 OA
ATOM     35  C   UNL     1      48.078   7.693  18.568  0.00  0.00    +0.000 A 
ATOM     36  H   UNL     1      47.343  10.895  18.653  0.00  0.00    +0.000 HD
ENDBRANCH  23  26
ENDBRANCH  21  22
ENDBRANCH   4  21
TORSDOF 7
ENDMDL
MODEL 4
REMARK VINA RESULT:    -7.695      2.900      8.506
REMARK INTER + INTRA:         -12.048
REMARK INTER:                 -10.396
REMARK INTRA:                  -1.652
REMARK UNBOUND:                -1.204
REMARK  Name = 
REMARK  7 active torsions:
REMARK  status: ('A' for Active; 'I' for Inactive)
REMARK    1  A    between atoms: C_2  and  C_4
REMARK    2  A    between atoms: C_8  and  N_9
REMARK    3  A    between atoms: N_9  and  C_10
REMARK    4  A    between atoms: C_10  and  C_11
REMARK    5  A    between atoms: C_14  and  C_15
REMARK    6  A    between atoms: C_15  and  N_16
REMARK    7  A    between atoms: C_17  and  C_19
REMARK                            x       y       z     vdW  Elec       q    Type
REMARK                         _______ _______ _______ _____ _____    ______ ____
ROOT
ATOM      1  C   UNL     1      49.595   8.355  15.755  0.00  0.00    +0.000 A 
ATOM      2  C   UNL     1      48.306   8.842  15.492  0.00  0.00    +0.000 A 
ATOM      3  C   UNL     1      47.735   8.720  14.219  0.00  0.00    +0.000 A 
ATOM      4  C   UNL     1      48.432   8.082  13.185  0.00  0.00    +0.000 A 
ATOM      5  C   UNL     1      49.731   7.616  13.444  0.00  0.00    +0.000 A 
ATOM      6  C   UNL     1      50.303   7.741  14.716  0.00  0.00    +0.000 A 
ENDROOT
BRANCH   1   7
ATOM      7  C   UNL     1      50.215   8.557  17.116  0.00  0.00    +0.000 C 
BRANCH   7   8
ATOM      8  N   UNL     1      49.609   7.696  18.133  0.00  0.00    +0.000 N 
ATOM      9  H   UNL     1      48.680   8.016  18.403  0.00  0.00    +0.000 HD
BRANCH   8  14
ATOM     10  C   UNL     1      48.467   4.253  17.285  0.00  0.00    +0.000 A 
ATOM     11  C   UNL     1      49.634   3.507  17.476  0.00  0.00    +0.000 A 
ATOM     12  C   UNL     1      50.788   4.145  17.912  0.00  0.00    +0.000 A 
ATOM     13  C   UNL     1      50.780   5.525  18.126  0.00  0.00    +0.000 A 
ATOM     14  C   UNL     1      49.638   6.309  17.886  0.00  0.00    +0.000 A 
ATOM     15  C   UNL     1      48.466   5.641  17.504  0.00  0.00    +0.000 A 
BRANCH  10  17
ATOM     16  N   UNL     1      46.904   3.819  15.470  0.00  0.00    +0.000 N 
ATOM     17  C   UNL     1      47.229   3.600  16.781  0.00  0.00    +0.000 C 
ATOM     18  O   UNL     1      46.548   2.889  17.497  0.00  0.00    +0.000 OA
ATOM     19  H   UNL     1      46.084   3.331  15.119  0.00  0.00    +0.000 HD
ATOM     20  H   UNL     1      47.551   4.196  14.795  0.00  0.00    +0.000 HD
ENDBRANCH  10  17
ENDBRANCH   8  14
ENDBRANCH   7   8
ENDBRANCH   1   7
BRANCH   4  21
ATOM     21  C   UNL     1      47.818   7.891  11.816  0.00  0.00    +0.000 C 
BRANCH  21  22
ATOM     22  N   UNL     1      47.039   6.684  11.741  0.00  0.00    +0.000 N 
ATOM     23  C   UNL     1      45.668   6.692  11.806  0.00  0.00    +0.000 C 
ATOM     24  O   UNL     1      45.014   7.725  11.903  0.00  0.00    +0.000 OA
ATOM     25  H   UNL     1      47.524   5.828  11.993  0.00  0.00    +0.000 HD
BRANCH  23  26
ATOM     26  C   UNL     1      45.024   5.378  11.686  0.00  0.00    +0.000 A 
ATOM     27  C   UNL     1      44.346   4.823  12.764  0.00  0.00    +0.000 A 
ATOM     28  S   UNL     1      43.620   3.319  12.409  0.00  0.00    +0.000 S 
ATOM     29  C   UNL     1      44.230   3.334  10.820  0.00  0.00    +0.000 A 
ATOM     30  N   UNL     1      43.999   2.302   9.966  0.00  0.00    +0.000 NA
ATOM     31  C   UNL     1      44.542   2.438   8.803  0.00  0.00    +0.000 A 
ATOM     32  N   UNL     1      45.293   3.517   8.411  0.00  0.00    +0.000 N 
ATOM     33  C   UNL     1      45.513   4.600   9.223  0.00  0.00    +0.000 A 
ATOM     34  O   UNL     1      46.124   5.582   8.814  0.00  0.00    +0.000 OA
ATOM     35  C   UNL     1      44.950   4.485  10.554  0.00  0.00    +0.000 A 
ATOM     36  H   UNL     1      45.676   3.576   7.480  0.00  0.00    +0.000 HD
ENDBRANCH  23  26
ENDBRANCH  21  22
ENDBRANCH   4  21
TORSDOF 7
ENDMDL
MODEL 5
REMARK VINA RESULT:    -7.438      3.281      5.234
REMARK INTER + INTRA:         -11.686
REMARK INTER:                 -10.796
REMARK INTRA:                  -0.890
REMARK UNBOUND:                -1.204
REMARK  Name = 
REMARK  7 active torsions:
REMARK  status: ('A' for Active; 'I' for Inactive)
REMARK    1  A    between atoms: C_2  and  C_4
REMARK    2  A    between atoms: C_8  and  N_9
REMARK    3  A    between atoms: N_9  and  C_10
REMARK    4  A    between atoms: C_10  and  C_11
REMARK    5  A    between atoms: C_14  and  C_15
REMARK    6  A    between atoms: C_15  and  N_16
REMARK    7  A    between atoms: C_17  and  C_19
REMARK                            x       y       z     vdW  Elec       q    Type
REMARK                         _______ _______ _______ _____ _____    ______ ____
ROOT
ATOM      1  C   UNL     1      47.613   5.853  14.234  0.00  0.00    +0.000 A 
ATOM      2  C   UNL     1      48.394   6.310  15.306  0.00  0.00    +0.000 A 
ATOM      3  C   UNL     1      48.555   5.536  16.461  0.00  0.00    +0.000 A 
ATOM      4  C   UNL     1      47.960   4.270  16.559  0.00  0.00    +0.000 A 
ATOM      5  C   UNL     1      47.161   3.825  15.494  0.00  0.00    +0.000 A 
ATOM      6  C   UNL     1      46.997   4.601  14.340  0.00  0.00    +0.000 A 
ENDROOT
BRANCH   1   7
ATOM      7  C   UNL     1      47.400   6.734  13.026  0.00  0.00    +0.000 C 
BRANCH   7   8
ATOM      8  N   UNL     1      45.990   7.074  12.832  0.00  0.00    +0.000 N 
ATOM      9  H   UNL     1      45.869   8.014  12.458  0.00  0.00    +0.000 HD
BRANCH   8  14
ATOM     10  C   UNL     1      44.735   4.838  10.130  0.00  0.00    +0.000 A 
ATOM     11  C   UNL     1      43.580   4.305  10.709  0.00  0.00    +0.000 A 
ATOM     12  C   UNL     1      43.207   4.711  11.984  0.00  0.00    +0.000 A 
ATOM     13  C   UNL     1      44.001   5.622  12.684  0.00  0.00    +0.000 A 
ATOM     14  C   UNL     1      45.199   6.128  12.150  0.00  0.00    +0.000 A 
ATOM     15  C   UNL     1      45.530   5.755  10.840  0.00  0.00    +0.000 A 
BRANCH  10  17
ATOM     16  N   UNL     1      44.368   3.504   8.127  0.00  0.00    +0.000 N 
ATOM     17  C   UNL     1      45.178   4.391   8.782  0.00  0.00    +0.000 C 
ATOM     18  O   UNL     1      46.203   4.811   8.277  0.00  0.00    +0.000 OA
ATOM     19  H   UNL     1      44.651   3.240   7.187  0.00  0.00    +0.000 HD
ATOM     20  H   UNL     1      43.415   3.319   8.400  0.00  0.00    +0.000 HD
ENDBRANCH  10  17
ENDBRANCH   8  14
ENDBRANCH   7   8
ENDBRANCH   1   7
BRANCH   4  21
ATOM     21  C   UNL     1      48.162   3.392  17.774  0.00  0.00    +0.000 C 
BRANCH  21  22
ATOM     22  N   UNL     1      49.553   3.108  18.005  0.00  0.00    +0.000 N 
ATOM     23  C   UNL     1      50.268   2.253  17.204  0.00  0.00    +0.000 C 
ATOM     24  O   UNL     1      49.781   1.698  16.224  0.00  0.00    +0.000 OA
ATOM     25  H   UNL     1      49.886   3.266  18.950  0.00  0.00    +0.000 HD
BRANCH  23  26
ATOM     26  C   UNL     1      51.684   2.093  17.557  0.00  0.00    +0.000 A 
ATOM     27  C   UNL     1      52.239   0.827  17.692  0.00  0.00    +0.000 A 
ATOM     28  S   UNL     1      53.908   0.851  18.053  0.00  0.00    +0.000 S 
ATOM     29  C   UNL     1      53.933   2.553  18.092  0.00  0.00    +0.000 A 
ATOM     30  N   UNL     1      55.074   3.234  18.382  0.00  0.00    +0.000 NA
ATOM     31  C   UNL     1      54.939   4.518  18.400  0.00  0.00    +0.000 A 
ATOM     32  N   UNL     1      53.768   5.186  18.148  0.00  0.00    +0.000 N 
ATOM     33  C   UNL     1      52.607   4.542  17.807  0.00  0.00    +0.000 A 
ATOM     34  O   UNL     1      51.597   5.173  17.513  0.00  0.00    +0.000 OA
ATOM     35  C   UNL     1      52.695   3.095  17.803  0.00  0.00    +0.000 A 
ATOM     36  H   UNL     1      53.730   6.193  18.157  0.00  0.00    +0.000 HD
ENDBRANCH  23  26
ENDBRANCH  21  22
ENDBRANCH   4  21
TORSDOF 7
ENDMDL
MODEL 6
REMARK VINA RESULT:    -7.163      3.838      8.587
REMARK INTER + INTRA:         -11.298
REMARK INTER:                  -9.650
REMARK INTRA:                  -1.648
REMARK UNBOUND:                -1.204
REMARK  Name = 
REMARK  7 active torsions:
REMARK  status: ('A' for Active; 'I' for Inactive)
REMARK    1  A    between atoms: C_2  and  C_4
REMARK    2  A    between atoms: C_8  and  N_9
REMARK    3  A    between atoms: N_9  and  C_10
REMARK    4  A    between atoms: C_10  and  C_11
REMARK    5  A    between atoms: C_14  and  C_15
REMARK    6  A    between atoms: C_15  and  N_16
REMARK    7  A    between atoms: C_17  and  C_19
REMARK                            x       y       z     vdW  Elec       q    Type
REMARK                         _______ _______ _______ _____ _____    ______ ____
ROOT
ATOM      1  C   UNL     1      50.223   7.609  18.170  0.00  0.00    +0.000 A 
ATOM      2  C   UNL     1      48.913   8.109  18.139  0.00  0.00    +0.000 A 
ATOM      3  C   UNL     1      48.323   8.507  16.934  0.00  0.00    +0.000 A 
ATOM      4  C   UNL     1      49.022   8.388  15.725  0.00  0.00    +0.000 A 
ATOM      5  C   UNL     1      50.341   7.909  15.762  0.00  0.00    +0.000 A 
ATOM      6  C   UNL     1      50.932   7.513  16.968  0.00  0.00    +0.000 A 
ENDROOT
BRANCH   1   7
ATOM      7  C   UNL     1      50.862   7.248  19.490  0.00  0.00    +0.000 C 
BRANCH   7   8
ATOM      8  N   UNL     1      50.424   5.939  19.976  0.00  0.00    +0.000 N 
ATOM      9  H   UNL     1      49.506   5.980  20.417  0.00  0.00    +0.000 HD
BRANCH   8  14
ATOM     10  C   UNL     1      49.458   3.258  17.578  0.00  0.00    +0.000 A 
ATOM     11  C   UNL     1      50.685   2.636  17.331  0.00  0.00    +0.000 A 
ATOM     12  C   UNL     1      51.824   3.091  17.983  0.00  0.00    +0.000 A 
ATOM     13  C   UNL     1      51.738   4.180  18.852  0.00  0.00    +0.000 A 
ATOM     14  C   UNL     1      50.529   4.862  19.074  0.00  0.00    +0.000 A 
ATOM     15  C   UNL     1      49.379   4.353  18.456  0.00  0.00    +0.000 A 
BRANCH  10  17
ATOM     16  N   UNL     1      47.067   2.804  17.583  0.00  0.00    +0.000 N 
ATOM     17  C   UNL     1      48.230   2.815  16.864  0.00  0.00    +0.000 C 
ATOM     18  O   UNL     1      48.257   2.498  15.689  0.00  0.00    +0.000 OA
ATOM     19  H   UNL     1      46.223   2.548  17.077  0.00  0.00    +0.000 HD
ATOM     20  H   UNL     1      46.958   3.274  18.468  0.00  0.00    +0.000 HD
ENDBRANCH  10  17
ENDBRANCH   8  14
ENDBRANCH   7   8
ENDBRANCH   1   7
BRANCH   4  21
ATOM     21  C   UNL     1      48.388   8.762  14.403  0.00  0.00    +0.000 C 
BRANCH  21  22
ATOM     22  N   UNL     1      47.414   7.791  13.982  0.00  0.00    +0.000 N 
ATOM     23  C   UNL     1      47.754   6.687  13.241  0.00  0.00    +0.000 C 
ATOM     24  O   UNL     1      48.910   6.438  12.912  0.00  0.00    +0.000 OA
ATOM     25  H   UNL     1      46.454   8.118  13.939  0.00  0.00    +0.000 HD
BRANCH  23  26
ATOM     26  C   UNL     1      46.646   5.779  12.917  0.00  0.00    +0.000 A 
ATOM     27  C   UNL     1      46.745   4.421  13.188  0.00  0.00    +0.000 A 
ATOM     28  S   UNL     1      45.335   3.543  12.791  0.00  0.00    +0.000 S 
ATOM     29  C   UNL     1      44.565   4.939  12.196  0.00  0.00    +0.000 A 
ATOM     30  N   UNL     1      43.314   4.883  11.666  0.00  0.00    +0.000 NA
ATOM     31  C   UNL     1      42.866   6.013  11.232  0.00  0.00    +0.000 A 
ATOM     32  N   UNL     1      43.551   7.199  11.285  0.00  0.00    +0.000 N 
ATOM     33  C   UNL     1      44.795   7.312  11.853  0.00  0.00    +0.000 A 
ATOM     34  O   UNL     1      45.347   8.402  11.953  0.00  0.00    +0.000 OA
ATOM     35  C   UNL     1      45.359   6.064  12.328  0.00  0.00    +0.000 A 
ATOM     36  H   UNL     1      43.139   8.056  10.948  0.00  0.00    +0.000 HD
ENDBRANCH  23  26
ENDBRANCH  21  22
ENDBRANCH   4  21
TORSDOF 7
ENDMDL
MODEL 7
REMARK VINA RESULT:    -7.147      3.685      8.225
REMARK INTER + INTRA:         -11.275
REMARK INTER:                  -9.751
REMARK INTRA:                  -1.524
REMARK UNBOUND:                -1.204
REMARK  Name = 
REMARK  7 active torsions:
REMARK  status: ('A' for Active; 'I' for Inactive)
REMARK    1  A    between atoms: C_2  and  C_4
REMARK    2  A    between atoms: C_8  and  N_9
REMARK    3  A    between atoms: N_9  and  C_10
REMARK    4  A    between atoms: C_10  and  C_11
REMARK    5  A    between atoms: C_14  and  C_15
REMARK    6  A    between atoms: C_15  and  N_16
REMARK    7  A    between atoms: C_17  and  C_19
REMARK                            x       y       z     vdW  Elec       q    Type
REMARK                         _______ _______ _______ _____ _____    ______ ____
ROOT
ATOM      1  C   UNL     1      49.281   7.685  16.096  0.00  0.00    +0.000 A 
ATOM      2  C   UNL     1      48.134   8.396  15.714  0.00  0.00    +0.000 A 
ATOM      3  C   UNL     1      47.825   8.593  14.362  0.00  0.00    +0.000 A 
ATOM      4  C   UNL     1      48.645   8.058  13.359  0.00  0.00    +0.000 A 
ATOM      5  C   UNL     1      49.804   7.367  13.744  0.00  0.00    +0.000 A 
ATOM      6  C   UNL     1      50.114   7.172  15.095  0.00  0.00    +0.000 A 
ENDROOT
BRANCH   1   7
ATOM      7  C   UNL     1      49.628   7.542  17.558  0.00  0.00    +0.000 C 
BRANCH   7   8
ATOM      8  N   UNL     1      48.611   6.793  18.297  0.00  0.00    +0.000 N 
ATOM      9  H   UNL     1      47.712   7.271  18.304  0.00  0.00    +0.000 HD
BRANCH   8  14
ATOM     10  C   UNL     1      49.515   3.282  17.439  0.00  0.00    +0.000 A 
ATOM     11  C   UNL     1      48.259   2.699  17.252  0.00  0.00    +0.000 A 
ATOM     12  C   UNL     1      47.117   3.479  17.383  0.00  0.00    +0.000 A 
ATOM     13  C   UNL     1      47.233   4.827  17.729  0.00  0.00    +0.000 A 
ATOM     14  C   UNL     1      48.480   5.426  17.982  0.00  0.00    +0.000 A 
ATOM     15  C   UNL     1      49.624   4.640  17.787  0.00  0.00    +0.000 A 
BRANCH  10  17
ATOM     16  N   UNL     1      50.604   1.170  16.912  0.00  0.00    +0.000 N 
ATOM     17  C   UNL     1      50.751   2.460  17.343  0.00  0.00    +0.000 C 
ATOM     18  O   UNL     1      51.844   2.920  17.615  0.00  0.00    +0.000 OA
ATOM     19  H   UNL     1      51.457   0.629  16.801  0.00  0.00    +0.000 HD
ATOM     20  H   UNL     1      49.770   0.829  16.459  0.00  0.00    +0.000 HD
ENDBRANCH  10  17
ENDBRANCH   8  14
ENDBRANCH   7   8
ENDBRANCH   1   7
BRANCH   4  21
ATOM     21  C   UNL     1      48.305   8.212  11.894  0.00  0.00    +0.000 C 
BRANCH  21  22
ATOM     22  N   UNL     1      47.599   7.067  11.383  0.00  0.00    +0.000 N 
ATOM     23  C   UNL     1      46.229   7.023  11.315  0.00  0.00    +0.000 C 
ATOM     24  O   UNL     1      45.517   7.963  11.656  0.00  0.00    +0.000 OA
ATOM     25  H   UNL     1      48.103   6.187  11.412  0.00  0.00    +0.000 HD
BRANCH  23  26
ATOM     26  C   UNL     1      45.665   5.795  10.743  0.00  0.00    +0.000 A 
ATOM     27  C   UNL     1      45.869   5.481   9.405  0.00  0.00    +0.000 A 
ATOM     28  S   UNL     1      45.181   3.988   8.944  0.00  0.00    +0.000 S 
ATOM     29  C   UNL     1      44.544   3.735  10.502  0.00  0.00    +0.000 A 
ATOM     30  N   UNL     1      43.802   2.632  10.790  0.00  0.00    +0.000 NA
ATOM     31  C   UNL     1      43.364   2.585  12.004  0.00  0.00    +0.000 A 
ATOM     32  N   UNL     1      43.605   3.537  12.961  0.00  0.00    +0.000 N 
ATOM     33  C   UNL     1      44.386   4.640  12.728  0.00  0.00    +0.000 A 
ATOM     34  O   UNL     1      44.644   5.432  13.628  0.00  0.00    +0.000 OA
ATOM     35  C   UNL     1      44.878   4.759  11.369  0.00  0.00    +0.000 A 
ATOM     36  H   UNL     1      43.252   3.434  13.899  0.00  0.00    +0.000 HD
ENDBRANCH  23  26
ENDBRANCH  21  22
ENDBRANCH   4  21
TORSDOF 7
ENDMDL
MODEL 8
REMARK VINA RESULT:    -6.994      1.756      2.274
REMARK INTER + INTRA:         -11.060
REMARK INTER:                 -10.481
REMARK INTRA:                  -0.579
REMARK UNBOUND:                -1.204
REMARK  Name = 
REMARK  7 active torsions:
REMARK  status: ('A' for Active; 'I' for Inactive)
REMARK    1  A    between atoms: C_2  and  C_4
REMARK    2  A    between atoms: C_8  and  N_9
REMARK    3  A    between atoms: N_9  and  C_10
REMARK    4  A    between atoms: C_10  and  C_11
REMARK    5  A    between atoms: C_14  and  C_15
REMARK    6  A    between atoms: C_15  and  N_16
REMARK    7  A    between atoms: C_17  and  C_19
REMARK                            x       y       z     vdW  Elec       q    Type
REMARK                         _______ _______ _______ _____ _____    ______ ____
ROOT
ATOM      1  C   UNL     1      45.780   6.037  11.856  0.00  0.00    +0.000 A 
ATOM      2  C   UNL     1      46.069   7.409  11.819  0.00  0.00    +0.000 A 
ATOM      3  C   UNL     1      47.134   7.941  12.557  0.00  0.00    +0.000 A 
ATOM      4  C   UNL     1      47.954   7.105  13.328  0.00  0.00    +0.000 A 
ATOM      5  C   UNL     1      47.649   5.736  13.380  0.00  0.00    +0.000 A 
ATOM      6  C   UNL     1      46.582   5.205  12.645  0.00  0.00    +0.000 A 
ENDROOT
BRANCH   1   7
ATOM      7  C   UNL     1      44.587   5.497  11.105  0.00  0.00    +0.000 C 
BRANCH   7   8
ATOM      8  N   UNL     1      44.830   5.421   9.664  0.00  0.00    +0.000 N 
ATOM      9  H   UNL     1      45.436   6.171   9.336  0.00  0.00    +0.000 HD
BRANCH   8  14
ATOM     10  C   UNL     1      46.372   2.853   7.449  0.00  0.00    +0.000 A 
ATOM     11  C   UNL     1      45.938   1.663   8.041  0.00  0.00    +0.000 A 
ATOM     12  C   UNL     1      45.111   1.718   9.156  0.00  0.00    +0.000 A 
ATOM     13  C   UNL     1      44.748   2.955   9.691  0.00  0.00    +0.000 A 
ATOM     14  C   UNL     1      45.218   4.166   9.153  0.00  0.00    +0.000 A 
ATOM     15  C   UNL     1      46.001   4.095   7.993  0.00  0.00    +0.000 A 
BRANCH  10  17
ATOM     16  N   UNL     1      48.607   2.556   6.531  0.00  0.00    +0.000 N 
ATOM     17  C   UNL     1      47.289   2.822   6.278  0.00  0.00    +0.000 C 
ATOM     18  O   UNL     1      46.882   3.005   5.146  0.00  0.00    +0.000 OA
ATOM     19  H   UNL     1      49.220   2.488   5.723  0.00  0.00    +0.000 HD
ATOM     20  H   UNL     1      48.937   2.173   7.403  0.00  0.00    +0.000 HD
ENDBRANCH  10  17
ENDBRANCH   8  14
ENDBRANCH   7   8
ENDBRANCH   1   7
BRANCH   4  21
ATOM     21  C   UNL     1      49.142   7.647  14.091  0.00  0.00    +0.000 C 
BRANCH  21  22
ATOM     22  N   UNL     1      49.450   6.843  15.244  0.00  0.00    +0.000 N 
ATOM     23  C   UNL     1      49.188   7.268  16.523  0.00  0.00    +0.000 C 
ATOM     24  O   UNL     1      48.649   8.344  16.768  0.00  0.00    +0.000 OA
ATOM     25  H   UNL     1      50.168   6.139  15.114  0.00  0.00    +0.000 HD
BRANCH  23  26
ATOM     26  C   UNL     1      49.535   6.318  17.587  0.00  0.00    +0.000 A 
ATOM     27  C   UNL     1      50.593   5.433  17.424  0.00  0.00    +0.000 A 
ATOM     28  S   UNL     1      50.873   4.449  18.791  0.00  0.00    +0.000 S 
ATOM     29  C   UNL     1      49.559   5.137  19.626  0.00  0.00    +0.000 A 
ATOM     30  N   UNL     1      49.218   4.715  20.874  0.00  0.00    +0.000 NA
ATOM     31  C   UNL     1      48.186   5.308  21.375  0.00  0.00    +0.000 A 
ATOM     32  N   UNL     1      47.466   6.291  20.745  0.00  0.00    +0.000 N 
ATOM     33  C   UNL     1      47.802   6.779  19.508  0.00  0.00    +0.000 A 
ATOM     34  O   UNL     1      47.182   7.711  19.008  0.00  0.00    +0.000 OA
ATOM     35  C   UNL     1      48.936   6.124  18.886  0.00  0.00    +0.000 A 
ATOM     36  H   UNL     1      46.680   6.732  21.197  0.00  0.00    +0.000 HD
ENDBRANCH  23  26
ENDBRANCH  21  22
ENDBRANCH   4  21
TORSDOF 7
ENDMDL
MODEL 9
REMARK VINA RESULT:    -6.964      3.987      8.396
REMARK INTER + INTRA:         -11.018
REMARK INTER:                  -9.329
REMARK INTRA:                  -1.689
REMARK UNBOUND:                -1.204
REMARK  Name = 
REMARK  7 active torsions:
REMARK  status: ('A' for Active; 'I' for Inactive)
REMARK    1  A    between atoms: C_2  and  C_4
REMARK    2  A    between atoms: C_8  and  N_9
REMARK    3  A    between atoms: N_9  and  C_10
REMARK    4  A    between atoms: C_10  and  C_11
REMARK    5  A    between atoms: C_14  and  C_15
REMARK    6  A    between atoms: C_15  and  N_16
REMARK    7  A    between atoms: C_17  and  C_19
REMARK                            x       y       z     vdW  Elec       q    Type
REMARK                         _______ _______ _______ _____ _____    ______ ____
ROOT
ATOM      1  C   UNL     1      50.482   7.059  18.614  0.00  0.00    +0.000 A 
ATOM      2  C   UNL     1      49.081   7.093  18.676  0.00  0.00    +0.000 A 
ATOM      3  C   UNL     1      48.342   7.923  17.824  0.00  0.00    +0.000 A 
ATOM      4  C   UNL     1      48.989   8.720  16.870  0.00  0.00    +0.000 A 
ATOM      5  C   UNL     1      50.392   8.701  16.826  0.00  0.00    +0.000 A 
ATOM      6  C   UNL     1      51.131   7.873  17.680  0.00  0.00    +0.000 A 
ENDROOT
BRANCH   1   7
ATOM      7  C   UNL     1      51.259   6.205  19.587  0.00  0.00    +0.000 C 
BRANCH   7   8
ATOM      8  N   UNL     1      52.376   5.511  18.944  0.00  0.00    +0.000 N 
ATOM      9  H   UNL     1      53.213   5.510  19.525  0.00  0.00    +0.000 HD
BRANCH   8  14
ATOM     10  C   UNL     1      50.527   2.674  17.392  0.00  0.00    +0.000 A 
ATOM     11  C   UNL     1      51.488   1.659  17.411  0.00  0.00    +0.000 A 
ATOM     12  C   UNL     1      52.736   1.912  17.965  0.00  0.00    +0.000 A 
ATOM     13  C   UNL     1      53.029   3.181  18.468  0.00  0.00    +0.000 A 
ATOM     14  C   UNL     1      52.104   4.237  18.408  0.00  0.00    +0.000 A 
ATOM     15  C   UNL     1      50.829   3.950  17.901  0.00  0.00    +0.000 A 
BRANCH  10  17
ATOM     16  N   UNL     1      48.149   3.174  17.257  0.00  0.00    +0.000 N 
ATOM     17  C   UNL     1      49.196   2.442  16.769  0.00  0.00    +0.000 C 
ATOM     18  O   UNL     1      49.051   1.653  15.854  0.00  0.00    +0.000 OA
ATOM     19  H   UNL     1      47.252   3.048  16.795  0.00  0.00    +0.000 HD
ATOM     20  H   UNL     1      48.266   3.991  17.836  0.00  0.00    +0.000 HD
ENDBRANCH  10  17
ENDBRANCH   8  14
ENDBRANCH   7   8
ENDBRANCH   1   7
BRANCH   4  21
ATOM     21  C   UNL     1      48.212   9.586  15.903  0.00  0.00    +0.000 C 
BRANCH  21  22
ATOM     22  N   UNL     1      47.378   8.802  15.032  0.00  0.00    +0.000 N 
ATOM     23  C   UNL     1      47.869   8.189  13.906  0.00  0.00    +0.000 C 
ATOM     24  O   UNL     1      49.051   8.243  13.582  0.00  0.00    +0.000 OA
ATOM     25  H   UNL     1      46.385   9.004  15.070  0.00  0.00    +0.000 HD
BRANCH  23  26
ATOM     26  C   UNL     1      46.894   7.402  13.141  0.00  0.00    +0.000 A 
ATOM     27  C   UNL     1      46.064   8.018  12.212  0.00  0.00    +0.000 A 
ATOM     28  S   UNL     1      45.040   6.928  11.388  0.00  0.00    +0.000 S 
ATOM     29  C   UNL     1      45.634   5.606  12.280  0.00  0.00    +0.000 A 
ATOM     30  N   UNL     1      45.148   4.350  12.088  0.00  0.00    +0.000 NA
ATOM     31  C   UNL     1      45.674   3.451  12.850  0.00  0.00    +0.000 A 
ATOM     32  N   UNL     1      46.647   3.690  13.786  0.00  0.00    +0.000 N 
ATOM     33  C   UNL     1      47.199   4.930  13.981  0.00  0.00    +0.000 A 
ATOM     34  O   UNL     1      48.122   5.094  14.772  0.00  0.00    +0.000 OA
ATOM     35  C   UNL     1      46.621   5.985  13.171  0.00  0.00    +0.000 A 
ATOM     36  H   UNL     1      47.034   2.941  14.339  0.00  0.00    +0.000 HD
ENDBRANCH  23  26
ENDBRANCH  21  22
ENDBRANCH   4  21
TORSDOF 7
ENDMDL
