MODEL 1
REMARK VINA RESULT:    -8.092      0.000      0.000
REMARK INTER + INTRA:         -11.798
REMARK INTER:                 -10.930
REMARK INTRA:                  -0.867
REMARK UNBOUND:                -0.867
REMARK  Name = 
REMARK  6 active torsions:
REMARK  status: ('A' for Active; 'I' for Inactive)
REMARK    1  A    between atoms: C_2  and  C_4
REMARK    2  A    between atoms: C_7  and  C_8
REMARK    3  A    between atoms: C_8  and  O_9
REMARK    4  A    between atoms: O_9  and  C_10
REMARK    5  A    between atoms: C_14  and  O_15
REMARK    6  A    between atoms: O_15  and  C_16
REMARK                            x       y       z     vdW  Elec       q    Type
REMARK                         _______ _______ _______ _____ _____    ______ ____
ROOT
ATOM      1  O   UNL     1      44.180   3.898  11.675  0.00  0.00    +0.000 OA
ENDROOT
BRANCH   1   2
ATOM      2  C   UNL     1      45.201   4.630  12.236  0.00  0.00    +0.000 A 
ATOM      3  C   UNL     1      45.481   5.958  11.914  0.00  0.00    +0.000 A 
ATOM      4  C   UNL     1      46.560   6.611  12.507  0.00  0.00    +0.000 A 
ATOM      5  C   UNL     1      47.341   5.949  13.454  0.00  0.00    +0.000 A 
ATOM      6  C   UNL     1      47.021   4.650  13.848  0.00  0.00    +0.000 A 
ATOM      7  C   UNL     1      45.964   3.983  13.217  0.00  0.00    +0.000 A 
BRANCH   6   8
ATOM      8  O   UNL     1      47.712   3.959  14.816  0.00  0.00    +0.000 OA
BRANCH   8   9
ATOM      9  C   UNL     1      47.413   4.362  16.165  0.00  0.00    +0.000 C 
ATOM     10  C   UNL     1      48.518   5.228  16.735  0.00  0.00    +0.000 C 
ATOM     11  C   UNL     1      49.434   4.257  17.446  0.00  0.00    +0.000 C 
ATOM     12  O   UNL     1      48.673   3.098  17.783  0.00  0.00    +0.000 OA
ATOM     13  C   UNL     1      47.417   3.151  17.094  0.00  0.00    +0.000 C 
ENDBRANCH   8   9
ENDBRANCH   6   8
ENDBRANCH   1   2
BRANCH   1  14
ATOM     14  C   UNL     1      43.827   4.268  10.335  0.00  0.00    +0.000 C 
BRANCH  14  18
ATOM     15  C   UNL     1      46.605   2.482   7.535  0.00  0.00    +0.000 A 
ATOM     16  C   UNL     1      46.449   3.873   7.572  0.00  0.00    +0.000 A 
ATOM     17  C   UNL     1      45.540   4.454   8.463  0.00  0.00    +0.000 A 
ATOM     18  C   UNL     1      44.764   3.655   9.315  0.00  0.00    +0.000 A 
ATOM     19  C   UNL     1      44.935   2.261   9.276  0.00  0.00    +0.000 A 
ATOM     20  C   UNL     1      45.841   1.679   8.385  0.00  0.00    +0.000 A 
BRANCH  15  22
ATOM     21  N   UNL     1      48.643   2.546   6.196  0.00  0.00    +0.000 N 
ATOM     22  C   UNL     1      47.558   1.821   6.604  0.00  0.00    +0.000 C 
ATOM     23  O   UNL     1      47.406   0.661   6.245  0.00  0.00    +0.000 OA
ATOM     24  H   UNL     1      49.335   2.047   5.651  0.00  0.00    +0.000 HD
ATOM     25  H   UNL     1      48.935   3.394   6.661  0.00  0.00    +0.000 HD
ENDBRANCH  15  22
ENDBRANCH  14  18
ENDBRANCH   1  14
TORSDOF 6
ENDMDL
MODEL 2
REMARK VINA RESULT:    -7.408      2.239      3.395
REMARK INTER + INTRA:         -10.874
REMARK INTER:                  -9.990
REMARK INTRA:                  -0.883
REMARK UNBOUND:                -0.867
REMARK  Name = 
REMARK  6 active torsions:
REMARK  status: ('A' for Active; 'I' for Inactive)
REMARK    1  A    between atoms: C_2  and  C_4
REMARK    2  A    between atoms: C_7  and  C_8
REMARK    3  A    between atoms: C_8  and  O_9
REMARK    4  A    between atoms: O_9  and  C_10
REMARK    5  A    between atoms: C_14  and  O_15
REMARK    6  A    between atoms: O_15  and  C_16
REMARK                            x       y       z     vdW  Elec       q    Type
REMARK                         _______ _______ _______ _____ _____    ______ ____
ROOT
ATOM      1  O   UNL     1      44.250   5.246  10.834  0.00  0.00    +0.000 OA
ENDROOT
BRANCH   1   2
ATOM      2  C   UNL     1      45.231   5.170  11.796  0.00  0.00    +0.000 A 
ATOM      3  C   UNL     1      45.487   4.036  12.568  0.00  0.00    +0.000 A 
ATOM      4  C   UNL     1      46.478   4.062  13.547  0.00  0.00    +0.000 A 
ATOM      5  C   UNL     1      47.244   5.211  13.733  0.00  0.00    +0.000 A 
ATOM      6  C   UNL     1      47.057   6.325  12.913  0.00  0.00    +0.000 A 
ATOM      7  C   UNL     1      46.030   6.310  11.961  0.00  0.00    +0.000 A 
BRANCH   6   8
ATOM      8  O   UNL     1      47.813   7.469  13.004  0.00  0.00    +0.000 OA
BRANCH   8   9
ATOM      9  C   UNL     1      49.232   7.259  12.875  0.00  0.00    +0.000 C 
ATOM     10  C   UNL     1      50.007   8.183  13.791  0.00  0.00    +0.000 C 
ATOM     11  C   UNL     1      50.317   9.392  12.936  0.00  0.00    +0.000 C 
ATOM     12  O   UNL     1      50.284   8.988  11.568  0.00  0.00    +0.000 OA
ATOM     13  C   UNL     1      49.706   7.678  11.486  0.00  0.00    +0.000 C 
ENDBRANCH   8   9
ENDBRANCH   6   8
ENDBRANCH   1   2
BRANCH   1  14
ATOM     14  C   UNL     1      43.800   3.986  10.320  0.00  0.00    +0.000 C 
BRANCH  14  18
ATOM     15  C   UNL     1      46.598   2.411   7.414  0.00  0.00    +0.000 A 
ATOM     16  C   UNL     1      46.263   3.770   7.395  0.00  0.00    +0.000 A 
ATOM     17  C   UNL     1      45.346   4.280   8.320  0.00  0.00    +0.000 A 
ATOM     18  C   UNL     1      44.740   3.439   9.265  0.00  0.00    +0.000 A 
ATOM     19  C   UNL     1      45.091   2.079   9.282  0.00  0.00    +0.000 A 
ATOM     20  C   UNL     1      46.005   1.567   8.356  0.00  0.00    +0.000 A 
BRANCH  15  22
ATOM     21  N   UNL     1      48.773   2.452   6.310  0.00  0.00    +0.000 N 
ATOM     22  C   UNL     1      47.566   1.824   6.449  0.00  0.00    +0.000 C 
ATOM     23  O   UNL     1      47.316   0.798   5.831  0.00  0.00    +0.000 OA
ATOM     24  H   UNL     1      49.457   1.982   5.732  0.00  0.00    +0.000 HD
ATOM     25  H   UNL     1      49.109   3.135   6.974  0.00  0.00    +0.000 HD
ENDBRANCH  15  22
ENDBRANCH  14  18
ENDBRANCH   1  14
TORSDOF 6
ENDMDL
MODEL 3
REMARK VINA RESULT:    -7.340      1.836      2.308
REMARK INTER + INTRA:         -10.782
REMARK INTER:                  -9.918
REMARK INTRA:                  -0.864
REMARK UNBOUND:                -0.867
REMARK  Name = 
REMARK  6 active torsions:
REMARK  status: ('A' for Active; 'I' for Inactive)
REMARK    1  A    between atoms: C_2  and  C_4
REMARK    2  A    between atoms: C_7  and  C_8
REMARK    3  A    between atoms: C_8  and  O_9
REMARK    4  A    between atoms: O_9  and  C_10
REMARK    5  A    between atoms: C_14  and  O_15
REMARK    6  A    between atoms: O_15  and  C_16
REMARK                            x       y       z     vdW  Elec       q    Type
REMARK                         _______ _______ _______ _____ _____    ______ ____
ROOT
ATOM      1  O   UNL     1      44.608   4.254  11.602  0.00  0.00    +0.000 OA
ENDROOT
BRANCH   1   2
ATOM      2  C   UNL     1      45.088   5.533  11.766  0.00  0.00    +0.000 A 
ATOM      3  C   UNL     1      44.352   6.687  11.493  0.00  0.00    +0.000 A 
ATOM      4  C   UNL     1      44.932   7.944  11.654  0.00  0.00    +0.000 A 
ATOM      5  C   UNL     1      46.240   8.053  12.124  0.00  0.00    +0.000 A 
ATOM      6  C   UNL     1      46.959   6.911  12.482  0.00  0.00    +0.000 A 
ATOM      7  C   UNL     1      46.388   5.650  12.276  0.00  0.00    +0.000 A 
BRANCH   6   8
ATOM      8  O   UNL     1      48.230   6.949  13.004  0.00  0.00    +0.000 OA
BRANCH   8   9
ATOM      9  C   UNL     1      48.318   7.528  14.319  0.00  0.00    +0.000 C 
ATOM     10  C   UNL     1      49.512   8.453  14.431  0.00  0.00    +0.000 C 
ATOM     11  C   UNL     1      50.623   7.577  14.967  0.00  0.00    +0.000 C 
ATOM     12  O   UNL     1      50.027   6.477  15.654  0.00  0.00    +0.000 OA
ATOM     13  C   UNL     1      48.625   6.449  15.354  0.00  0.00    +0.000 C 
ENDBRANCH   8   9
ENDBRANCH   6   8
ENDBRANCH   1   2
BRANCH   1  14
ATOM     14  C   UNL     1      43.903   4.018  10.376  0.00  0.00    +0.000 C 
BRANCH  14  18
ATOM     15  C   UNL     1      46.623   2.433   7.402  0.00  0.00    +0.000 A 
ATOM     16  C   UNL     1      46.322   3.800   7.414  0.00  0.00    +0.000 A 
ATOM     17  C   UNL     1      45.430   4.314   8.362  0.00  0.00    +0.000 A 
ATOM     18  C   UNL     1      44.815   3.470   9.298  0.00  0.00    +0.000 A 
ATOM     19  C   UNL     1      45.131   2.101   9.283  0.00  0.00    +0.000 A 
ATOM     20  C   UNL     1      46.020   1.585   8.335  0.00  0.00    +0.000 A 
BRANCH  15  22
ATOM     21  N   UNL     1      48.749   2.490   6.208  0.00  0.00    +0.000 N 
ATOM     22  C   UNL     1      47.563   1.841   6.413  0.00  0.00    +0.000 C 
ATOM     23  O   UNL     1      47.310   0.794   5.832  0.00  0.00    +0.000 OA
ATOM     24  H   UNL     1      49.419   2.019   5.615  0.00  0.00    +0.000 HD
ATOM     25  H   UNL     1      49.097   3.197   6.841  0.00  0.00    +0.000 HD
ENDBRANCH  15  22
ENDBRANCH  14  18
ENDBRANCH   1  14
TORSDOF 6
ENDMDL
MODEL 4
REMARK VINA RESULT:    -6.663      3.355      8.517
REMARK INTER + INTRA:          -9.867
REMARK INTER:                  -9.361
REMARK INTRA:                  -0.506
REMARK UNBOUND:                -0.867
REMARK  Name = 
REMARK  6 active torsions:
REMARK  status: ('A' for Active; 'I' for Inactive)
REMARK    1  A    between atoms: C_2  and  C_4
REMARK    2  A    between atoms: C_7  and  C_8
REMARK    3  A    between atoms: C_8  and  O_9
REMARK    4  A    between atoms: O_9  and  C_10
REMARK    5  A    between atoms: C_14  and  O_15
REMARK    6  A    between atoms: O_15  and  C_16
REMARK                            x       y       z     vdW  Elec       q    Type
REMARK                         _______ _______ _______ _____ _____    ______ ____
ROOT
ATOM      1  O   UNL     1      45.574   4.038  14.001  0.00  0.00    +0.000 OA
ENDROOT
BRANCH   1   2
ATOM      2  C   UNL     1      44.803   4.438  12.935  0.00  0.00    +0.000 A 
ATOM      3  C   UNL     1      43.503   4.932  13.049  0.00  0.00    +0.000 A 
ATOM      4  C   UNL     1      42.782   5.279  11.908  0.00  0.00    +0.000 A 
ATOM      5  C   UNL     1      43.372   5.171  10.650  0.00  0.00    +0.000 A 
ATOM      6  C   UNL     1      44.700   4.759  10.527  0.00  0.00    +0.000 A 
ATOM      7  C   UNL     1      45.405   4.368  11.671  0.00  0.00    +0.000 A 
BRANCH   6   8
ATOM      8  O   UNL     1      45.361   4.683   9.324  0.00  0.00    +0.000 OA
BRANCH   8   9
ATOM      9  C   UNL     1      44.763   3.785   8.370  0.00  0.00    +0.000 C 
ATOM     10  C   UNL     1      44.530   2.417   8.978  0.00  0.00    +0.000 C 
ATOM     11  C   UNL     1      45.773   1.629   8.629  0.00  0.00    +0.000 C 
ATOM     12  O   UNL     1      46.365   2.224   7.475  0.00  0.00    +0.000 OA
ATOM     13  C   UNL     1      45.739   3.491   7.234  0.00  0.00    +0.000 C 
ENDBRANCH   8   9
ENDBRANCH   6   8
ENDBRANCH   1   2
BRANCH   1  14
ATOM     14  C   UNL     1      46.908   4.563  14.023  0.00  0.00    +0.000 C 
BRANCH  14  18
ATOM     15  C   UNL     1      48.387   4.704  18.091  0.00  0.00    +0.000 A 
ATOM     16  C   UNL     1      48.658   5.760  17.213  0.00  0.00    +0.000 A 
ATOM     17  C   UNL     1      48.197   5.711  15.892  0.00  0.00    +0.000 A 
ATOM     18  C   UNL     1      47.476   4.602  15.427  0.00  0.00    +0.000 A 
ATOM     19  C   UNL     1      47.201   3.552  16.318  0.00  0.00    +0.000 A 
ATOM     20  C   UNL     1      47.662   3.598  17.638  0.00  0.00    +0.000 A 
BRANCH  15  22
ATOM     21  N   UNL     1      48.492   3.656  20.290  0.00  0.00    +0.000 N 
ATOM     22  C   UNL     1      48.857   4.712  19.502  0.00  0.00    +0.000 C 
ATOM     23  O   UNL     1      49.577   5.602  19.935  0.00  0.00    +0.000 OA
ATOM     24  H   UNL     1      48.907   3.623  21.213  0.00  0.00    +0.000 HD
ATOM     25  H   UNL     1      48.125   2.796  19.909  0.00  0.00    +0.000 HD
ENDBRANCH  15  22
ENDBRANCH  14  18
ENDBRANCH   1  14
TORSDOF 6
ENDMDL
MODEL 5
REMARK VINA RESULT:    -6.377      2.893      4.342
REMARK INTER + INTRA:          -9.481
REMARK INTER:                  -8.551
REMARK INTRA:                  -0.931
REMARK UNBOUND:                -0.867
REMARK  Name = 
REMARK  6 active torsions:
REMARK  status: ('A' for Active; 'I' for Inactive)
REMARK    1  A    between atoms: C_2  and  C_4
REMARK    2  A    between atoms: C_7  and  C_8
REMARK    3  A    between atoms: C_8  and  O_9
REMARK    4  A    between atoms: O_9  and  C_10
REMARK    5  A    between atoms: C_14  and  O_15
REMARK    6  A    between atoms: O_15  and  C_16
REMARK                            x       y       z     vdW  Elec       q    Type
REMARK                         _______ _______ _______ _____ _____    ______ ____
ROOT
ATOM      1  O   UNL     1      47.720   7.961  12.619  0.00  0.00    +0.000 OA
ENDROOT
BRANCH   1   2
ATOM      2  C   UNL     1      48.105   7.959  13.939  0.00  0.00    +0.000 A 
ATOM      3  C   UNL     1      47.967   9.051  14.798  0.00  0.00    +0.000 A 
ATOM      4  C   UNL     1      48.420   8.970  16.113  0.00  0.00    +0.000 A 
ATOM      5  C   UNL     1      48.979   7.784  16.587  0.00  0.00    +0.000 A 
ATOM      6  C   UNL     1      49.046   6.658  15.765  0.00  0.00    +0.000 A 
ATOM      7  C   UNL     1      48.632   6.758  14.432  0.00  0.00    +0.000 A 
BRANCH   6   8
ATOM      8  O   UNL     1      49.533   5.443  16.184  0.00  0.00    +0.000 OA
BRANCH   8   9
ATOM      9  C   UNL     1      48.799   4.848  17.270  0.00  0.00    +0.000 C 
ATOM     10  C   UNL     1      49.401   3.518  17.674  0.00  0.00    +0.000 C 
ATOM     11  C   UNL     1      48.634   2.493  16.867  0.00  0.00    +0.000 C 
ATOM     12  O   UNL     1      47.371   3.058  16.520  0.00  0.00    +0.000 OA
ATOM     13  C   UNL     1      47.395   4.462  16.814  0.00  0.00    +0.000 C 
ENDBRANCH   8   9
ENDBRANCH   6   8
ENDBRANCH   1   2
BRANCH   1  14
ATOM     14  C   UNL     1      46.305   8.024  12.395  0.00  0.00    +0.000 C 
BRANCH  14  18
ATOM     15  C   UNL     1      44.535   4.208  11.367  0.00  0.00    +0.000 A 
ATOM     16  C   UNL     1      44.461   4.679  12.682  0.00  0.00    +0.000 A 
ATOM     17  C   UNL     1      45.047   5.904  13.023  0.00  0.00    +0.000 A 
ATOM     18  C   UNL     1      45.727   6.664  12.062  0.00  0.00    +0.000 A 
ATOM     19  C   UNL     1      45.788   6.186  10.742  0.00  0.00    +0.000 A 
ATOM     20  C   UNL     1      45.205   4.962  10.400  0.00  0.00    +0.000 A 
BRANCH  15  22
ATOM     21  N   UNL     1      44.532   2.232   9.938  0.00  0.00    +0.000 N 
ATOM     22  C   UNL     1      43.929   2.912  10.958  0.00  0.00    +0.000 C 
ATOM     23  O   UNL     1      42.954   2.448  11.535  0.00  0.00    +0.000 OA
ATOM     24  H   UNL     1      44.173   1.306   9.745  0.00  0.00    +0.000 HD
ATOM     25  H   UNL     1      45.465   2.450   9.617  0.00  0.00    +0.000 HD
ENDBRANCH  15  22
ENDBRANCH  14  18
ENDBRANCH   1  14
TORSDOF 6
ENDMDL
MODEL 6
REMARK VINA RESULT:    -5.986      3.981      8.090
REMARK INTER + INTRA:          -8.953
REMARK INTER:                  -8.103
REMARK INTRA:                  -0.850
REMARK UNBOUND:                -0.867
REMARK  Name = 
REMARK  6 active torsions:
REMARK  status: ('A' for Active; 'I' for Inactive)
REMARK    1  A    between atoms: C_2  and  C_4
REMARK    2  A    between atoms: C_7  and  C_8
REMARK    3  A    between atoms: C_8  and  O_9
REMARK    4  A    between atoms: O_9  and  C_10
REMARK    5  A    between atoms: C_14  and  O_15
REMARK    6  A    between atoms: O_15  and  C_16
REMARK                            x       y       z     vdW  Elec       q    Type
REMARK                         _______ _______ _______ _____ _____    ______ ____
ROOT
ATOM      1  O   UNL     1      48.764   6.598  16.105  0.00  0.00    +0.000 OA
ENDROOT
BRANCH   1   2
ATOM      2  C   UNL     1      48.527   6.739  14.757  0.00  0.00    +0.000 A 
ATOM      3  C   UNL     1      49.229   7.612  13.925  0.00  0.00    +0.000 A 
ATOM      4  C   UNL     1      48.895   7.716  12.576  0.00  0.00    +0.000 A 
ATOM      5  C   UNL     1      47.883   6.918  12.044  0.00  0.00    +0.000 A 
ATOM      6  C   UNL     1      47.231   5.980  12.845  0.00  0.00    +0.000 A 
ATOM      7  C   UNL     1      47.538   5.911  14.209  0.00  0.00    +0.000 A 
BRANCH   6   8
ATOM      8  O   UNL     1      46.264   5.123  12.374  0.00  0.00    +0.000 OA
BRANCH   8   9
ATOM      9  C   UNL     1      45.039   5.766  11.976  0.00  0.00    +0.000 C 
ATOM     10  C   UNL     1      43.929   5.493  12.969  0.00  0.00    +0.000 C 
ATOM     11  C   UNL     1      43.223   4.271  12.424  0.00  0.00    +0.000 C 
ATOM     12  O   UNL     1      43.471   4.206  11.021  0.00  0.00    +0.000 OA
ATOM     13  C   UNL     1      44.506   5.141  10.689  0.00  0.00    +0.000 C 
ENDBRANCH   8   9
ENDBRANCH   6   8
ENDBRANCH   1   2
BRANCH   1  14
ATOM     14  C   UNL     1      48.148   5.458  16.718  0.00  0.00    +0.000 C 
BRANCH  14  18
ATOM     15  C   UNL     1      51.103   2.377  17.445  0.00  0.00    +0.000 A 
ATOM     16  C   UNL     1      49.819   2.024  17.015  0.00  0.00    +0.000 A 
ATOM     17  C   UNL     1      48.855   3.015  16.795  0.00  0.00    +0.000 A 
ATOM     18  C   UNL     1      49.155   4.366  17.018  0.00  0.00    +0.000 A 
ATOM     19  C   UNL     1      50.449   4.711  17.441  0.00  0.00    +0.000 A 
ATOM     20  C   UNL     1      51.413   3.722  17.663  0.00  0.00    +0.000 A 
BRANCH  15  22
ATOM     21  N   UNL     1      51.754   0.128  18.128  0.00  0.00    +0.000 N 
ATOM     22  C   UNL     1      52.159   1.359  17.692  0.00  0.00    +0.000 C 
ATOM     23  O   UNL     1      53.341   1.593  17.478  0.00  0.00    +0.000 OA
ATOM     24  H   UNL     1      52.471  -0.583  18.189  0.00  0.00    +0.000 HD
ATOM     25  H   UNL     1      50.793  -0.178  18.072  0.00  0.00    +0.000 HD
ENDBRANCH  15  22
ENDBRANCH  14  18
ENDBRANCH   1  14
TORSDOF 6
ENDMDL
MODEL 7
REMARK VINA RESULT:    -5.876      4.311      7.356
REMARK INTER + INTRA:          -8.805
REMARK INTER:                  -7.890
REMARK INTRA:                  -0.915
REMARK UNBOUND:                -0.867
REMARK  Name = 
REMARK  6 active torsions:
REMARK  status: ('A' for Active; 'I' for Inactive)
REMARK    1  A    between atoms: C_2  and  C_4
REMARK    2  A    between atoms: C_7  and  C_8
REMARK    3  A    between atoms: C_8  and  O_9
REMARK    4  A    between atoms: O_9  and  C_10
REMARK    5  A    between atoms: C_14  and  O_15
REMARK    6  A    between atoms: O_15  and  C_16
REMARK                            x       y       z     vdW  Elec       q    Type
REMARK                         _______ _______ _______ _____ _____    ______ ____
ROOT
ATOM      1  O   UNL     1      46.780   8.112  13.526  0.00  0.00    +0.000 OA
ENDROOT
BRANCH   1   2
ATOM      2  C   UNL     1      46.818   9.209  12.697  0.00  0.00    +0.000 A 
ATOM      3  C   UNL     1      47.994   9.799  12.231  0.00  0.00    +0.000 A 
ATOM      4  C   UNL     1      47.938  10.933  11.423  0.00  0.00    +0.000 A 
ATOM      5  C   UNL     1      46.704  11.460  11.046  0.00  0.00    +0.000 A 
ATOM      6  C   UNL     1      45.520  10.832  11.434  0.00  0.00    +0.000 A 
ATOM      7  C   UNL     1      45.581   9.719  12.282  0.00  0.00    +0.000 A 
BRANCH   6   8
ATOM      8  O   UNL     1      44.272  11.264  11.052  0.00  0.00    +0.000 OA
BRANCH   8   9
ATOM      9  C   UNL     1      43.580  10.373  10.158  0.00  0.00    +0.000 C 
ATOM     10  C   UNL     1      43.460  10.973   8.772  0.00  0.00    +0.000 C 
ATOM     11  C   UNL     1      42.122  11.677   8.776  0.00  0.00    +0.000 C 
ATOM     12  O   UNL     1      41.305  11.069   9.775  0.00  0.00    +0.000 OA
ATOM     13  C   UNL     1      42.123  10.216  10.587  0.00  0.00    +0.000 C 
ENDBRANCH   8   9
ENDBRANCH   6   8
ENDBRANCH   1   2
BRANCH   1  14
ATOM     14  C   UNL     1      47.540   6.981  13.079  0.00  0.00    +0.000 C 
BRANCH  14  18
ATOM     15  C   UNL     1      44.901   4.072  11.254  0.00  0.00    +0.000 A 
ATOM     16  C   UNL     1      45.392   3.855  12.547  0.00  0.00    +0.000 A 
ATOM     17  C   UNL     1      46.259   4.784  13.134  0.00  0.00    +0.000 A 
ATOM     18  C   UNL     1      46.660   5.930  12.434  0.00  0.00    +0.000 A 
ATOM     19  C   UNL     1      46.155   6.143  11.140  0.00  0.00    +0.000 A 
ATOM     20  C   UNL     1      45.291   5.215  10.551  0.00  0.00    +0.000 A 
BRANCH  15  22
ATOM     21  N   UNL     1      44.187   2.861   9.262  0.00  0.00    +0.000 N 
ATOM     22  C   UNL     1      43.980   3.113  10.589  0.00  0.00    +0.000 C 
ATOM     23  O   UNL     1      43.095   2.536  11.208  0.00  0.00    +0.000 OA
ATOM     24  H   UNL     1      43.621   2.129   8.852  0.00  0.00    +0.000 HD
ATOM     25  H   UNL     1      45.043   3.113   8.789  0.00  0.00    +0.000 HD
ENDBRANCH  15  22
ENDBRANCH  14  18
ENDBRANCH   1  14
TORSDOF 6
ENDMDL
MODEL 8
REMARK VINA RESULT:    -5.853      3.432      5.084
REMARK INTER + INTRA:          -8.774
REMARK INTER:                  -7.960
REMARK INTRA:                  -0.814
REMARK UNBOUND:                -0.867
REMARK  Name = 
REMARK  6 active torsions:
REMARK  status: ('A' for Active; 'I' for Inactive)
REMARK    1  A    between atoms: C_2  and  C_4
REMARK    2  A    between atoms: C_7  and  C_8
REMARK    3  A    between atoms: C_8  and  O_9
REMARK    4  A    between atoms: O_9  and  C_10
REMARK    5  A    between atoms: C_14  and  O_15
REMARK    6  A    between atoms: O_15  and  C_16
REMARK                            x       y       z     vdW  Elec       q    Type
REMARK                         _______ _______ _______ _____ _____    ______ ____
ROOT
ATOM      1  O   UNL     1      48.991   6.604  14.051  0.00  0.00    +0.000 OA
ENDROOT
BRANCH   1   2
ATOM      2  C   UNL     1      48.799   7.287  15.230  0.00  0.00    +0.000 A 
ATOM      3  C   UNL     1      48.331   8.600  15.307  0.00  0.00    +0.000 A 
ATOM      4  C   UNL     1      48.202   9.227  16.545  0.00  0.00    +0.000 A 
ATOM      5  C   UNL     1      48.505   8.531  17.714  0.00  0.00    +0.000 A 
ATOM      6  C   UNL     1      48.893   7.191  17.657  0.00  0.00    +0.000 A 
ATOM      7  C   UNL     1      49.064   6.580  16.409  0.00  0.00    +0.000 A 
BRANCH   6   8
ATOM      8  O   UNL     1      49.153   6.430  18.772  0.00  0.00    +0.000 OA
BRANCH   8   9
ATOM      9  C   UNL     1      48.051   5.612  19.206  0.00  0.00    +0.000 C 
ATOM     10  C   UNL     1      47.399   6.185  20.447  0.00  0.00    +0.000 C 
ATOM     11  C   UNL     1      48.097   5.493  21.597  0.00  0.00    +0.000 C 
ATOM     12  O   UNL     1      48.628   4.260  21.115  0.00  0.00    +0.000 OA
ATOM     13  C   UNL     1      48.555   4.252  19.682  0.00  0.00    +0.000 C 
ENDBRANCH   8   9
ENDBRANCH   6   8
ENDBRANCH   1   2
BRANCH   1  14
ATOM     14  C   UNL     1      48.214   7.071  12.940  0.00  0.00    +0.000 C 
BRANCH  14  18
ATOM     15  C   UNL     1      45.125   4.222  11.894  0.00  0.00    +0.000 A 
ATOM     16  C   UNL     1      45.320   5.361  11.104  0.00  0.00    +0.000 A 
ATOM     17  C   UNL     1      46.305   6.293  11.448  0.00  0.00    +0.000 A 
ATOM     18  C   UNL     1      47.096   6.110  12.592  0.00  0.00    +0.000 A 
ATOM     19  C   UNL     1      46.898   4.959  13.373  0.00  0.00    +0.000 A 
ATOM     20  C   UNL     1      45.912   4.028  13.032  0.00  0.00    +0.000 A 
BRANCH  15  22
ATOM     21  N   UNL     1      43.682   2.379  12.579  0.00  0.00    +0.000 N 
ATOM     22  C   UNL     1      44.089   3.205  11.568  0.00  0.00    +0.000 C 
ATOM     23  O   UNL     1      43.586   3.132  10.455  0.00  0.00    +0.000 OA
ATOM     24  H   UNL     1      42.903   1.767  12.369  0.00  0.00    +0.000 HD
ATOM     25  H   UNL     1      43.879   2.572  13.550  0.00  0.00    +0.000 HD
ENDBRANCH  15  22
ENDBRANCH  14  18
ENDBRANCH   1  14
TORSDOF 6
ENDMDL
MODEL 9
REMARK VINA RESULT:    -5.694      4.156      8.861
REMARK INTER + INTRA:          -8.558
REMARK INTER:                  -7.625
REMARK INTRA:                  -0.933
REMARK UNBOUND:                -0.867
REMARK  Name = 
REMARK  6 active torsions:
REMARK  status: ('A' for Active; 'I' for Inactive)
REMARK    1  A    between atoms: C_2  and  C_4
REMARK    2  A    between atoms: C_7  and  C_8
REMARK    3  A    between atoms: C_8  and  O_9
REMARK    4  A    between atoms: O_9  and  C_10
REMARK    5  A    between atoms: C_14  and  O_15
REMARK    6  A    between atoms: O_15  and  C_16
REMARK                            x       y       z     vdW  Elec       q    Type
REMARK                         _______ _______ _______ _____ _____    ______ ____
ROOT
ATOM      1  O   UNL     1      49.482   6.860  14.063  0.00  0.00    +0.000 OA
ENDROOT
BRANCH   1   2
ATOM      2  C   UNL     1      48.196   7.027  13.605  0.00  0.00    +0.000 A 
ATOM      3  C   UNL     1      47.512   8.243  13.616  0.00  0.00    +0.000 A 
ATOM      4  C   UNL     1      46.195   8.311  13.166  0.00  0.00    +0.000 A 
ATOM      5  C   UNL     1      45.568   7.169  12.667  0.00  0.00    +0.000 A 
ATOM      6  C   UNL     1      46.267   5.966  12.572  0.00  0.00    +0.000 A 
ATOM      7  C   UNL     1      47.575   5.892  13.067  0.00  0.00    +0.000 A 
BRANCH   6   8
ATOM      8  O   UNL     1      45.731   4.817  12.040  0.00  0.00    +0.000 OA
BRANCH   8   9
ATOM      9  C   UNL     1      44.338   4.917  11.688  0.00  0.00    +0.000 C 
ATOM     10  C   UNL     1      43.487   4.023  12.567  0.00  0.00    +0.000 C 
ATOM     11  C   UNL     1      43.376   2.726  11.797  0.00  0.00    +0.000 C 
ATOM     12  O   UNL     1      43.592   3.012  10.416  0.00  0.00    +0.000 OA
ATOM     13  C   UNL     1      44.101   4.346  10.292  0.00  0.00    +0.000 C 
ENDBRANCH   8   9
ENDBRANCH   6   8
ENDBRANCH   1   2
BRANCH   1  14
ATOM     14  C   UNL     1      49.828   7.643  15.213  0.00  0.00    +0.000 C 
BRANCH  14  18
ATOM     15  C   UNL     1      48.773   5.783  18.978  0.00  0.00    +0.000 A 
ATOM     16  C   UNL     1      49.574   5.094  18.060  0.00  0.00    +0.000 A 
ATOM     17  C   UNL     1      49.904   5.684  16.834  0.00  0.00    +0.000 A 
ATOM     18  C   UNL     1      49.425   6.960  16.502  0.00  0.00    +0.000 A 
ATOM     19  C   UNL     1      48.629   7.646  17.435  0.00  0.00    +0.000 A 
ATOM     20  C   UNL     1      48.297   7.057  18.659  0.00  0.00    +0.000 A 
BRANCH  15  22
ATOM     21  N   UNL     1      48.523   3.841  20.432  0.00  0.00    +0.000 N 
ATOM     22  C   UNL     1      48.396   5.195  20.291  0.00  0.00    +0.000 C 
ATOM     23  O   UNL     1      48.026   5.893  21.226  0.00  0.00    +0.000 OA
ATOM     24  H   UNL     1      48.365   3.472  21.361  0.00  0.00    +0.000 HD
ATOM     25  H   UNL     1      49.056   3.276  19.787  0.00  0.00    +0.000 HD
ENDBRANCH  15  22
ENDBRANCH  14  18
ENDBRANCH   1  14
TORSDOF 6
ENDMDL
