MODEL 1
REMARK VINA RESULT:    -7.523      0.000      0.000
REMARK INTER + INTRA:         -10.134
REMARK INTER:                  -9.282
REMARK INTRA:                  -0.852
REMARK UNBOUND:                -0.852
REMARK  Name = 
REMARK  4 active torsions:
REMARK  status: ('A' for Active; 'I' for Inactive)
REMARK    1  A    between atoms: C_5  and  N_6
REMARK    2  A    between atoms: N_6  and  C_7
REMARK    3  A    between atoms: C_7  and  C_8
REMARK    4  A    between atoms: C_12  and  C_13
REMARK                            x       y       z     vdW  Elec       q    Type
REMARK                         _______ _______ _______ _____ _____    ______ ____
ROOT
ATOM      1  C   UNL     1      43.557   4.941  11.003  0.00  0.00    +0.000 A 
ATOM      2  C   UNL     1      43.114   3.916  11.838  0.00  0.00    +0.000 A 
ATOM      3  C   UNL     1      43.338   2.606  11.449  0.00  0.00    +0.000 A 
ATOM      4  N   UNL     1      43.973   2.254  10.309  0.00  0.00    +0.000 NA
ATOM      5  C   UNL     1      44.389   3.250   9.490  0.00  0.00    +0.000 A 
ATOM      6  C   UNL     1      44.164   4.593   9.792  0.00  0.00    +0.000 A 
ENDROOT
BRANCH   5   7
ATOM      7  C   UNL     1      45.177   2.832   8.264  0.00  0.00    +0.000 C 
ATOM      8  C   UNL     1      45.978   1.546   8.518  0.00  0.00    +0.000 C 
ATOM      9  C   UNL     1      46.851   1.202   7.322  0.00  0.00    +0.000 C 
ATOM     10  O   UNL     1      47.694   2.304   6.986  0.00  0.00    +0.000 OA
ATOM     11  C   UNL     1      46.942   3.451   6.591  0.00  0.00    +0.000 C 
ATOM     12  C   UNL     1      46.086   3.953   7.745  0.00  0.00    +0.000 C 
ENDBRANCH   5   7
BRANCH   1  13
ATOM     13  C   UNL     1      43.447   6.390  11.407  0.00  0.00    +0.000 C 
BRANCH  13  14
ATOM     14  N   UNL     1      44.067   6.617  12.697  0.00  0.00    +0.000 N 
ATOM     15  H   UNL     1      43.772   5.972  13.427  0.00  0.00    +0.000 HD
BRANCH  14  20
ATOM     16  F   UNL     1      49.524   6.757  13.227  0.00  0.00    +0.000 F 
ATOM     17  C   UNL     1      48.198   6.767  13.048  0.00  0.00    +0.000 A 
ATOM     18  C   UNL     1      47.416   5.748  13.549  0.00  0.00    +0.000 A 
ATOM     19  N   UNL     1      46.066   5.692  13.408  0.00  0.00    +0.000 NA
ATOM     20  C   UNL     1      45.452   6.697  12.749  0.00  0.00    +0.000 A 
ATOM     21  C   UNL     1      46.172   7.764  12.224  0.00  0.00    +0.000 A 
ATOM     22  C   UNL     1      47.558   7.788  12.370  0.00  0.00    +0.000 A 
ATOM     23 CL   UNL     1      48.453   9.099  11.704  0.00  0.00    +0.000 Cl
ENDBRANCH  14  20
ENDBRANCH  13  14
ENDBRANCH   1  13
TORSDOF 4
ENDMDL
MODEL 2
REMARK VINA RESULT:    -7.473      3.743      6.532
REMARK INTER + INTRA:         -10.073
REMARK INTER:                  -9.270
REMARK INTRA:                  -0.803
REMARK UNBOUND:                -0.852
REMARK  Name = 
REMARK  4 active torsions:
REMARK  status: ('A' for Active; 'I' for Inactive)
REMARK    1  A    between atoms: C_5  and  N_6
REMARK    2  A    between atoms: N_6  and  C_7
REMARK    3  A    between atoms: C_7  and  C_8
REMARK    4  A    between atoms: C_12  and  C_13
REMARK                            x       y       z     vdW  Elec       q    Type
REMARK                         _______ _______ _______ _____ _____    ______ ____
ROOT
ATOM      1  C   UNL     1      44.799   4.293  11.600  0.00  0.00    +0.000 A 
ATOM      2  C   UNL     1      45.495   3.504  12.514  0.00  0.00    +0.000 A 
ATOM      3  C   UNL     1      46.341   4.130  13.416  0.00  0.00    +0.000 A 
ATOM      4  N   UNL     1      46.527   5.467  13.474  0.00  0.00    +0.000 NA
ATOM      5  C   UNL     1      45.864   6.232  12.574  0.00  0.00    +0.000 A 
ATOM      6  C   UNL     1      45.026   5.674  11.608  0.00  0.00    +0.000 A 
ENDROOT
BRANCH   5   7
ATOM      7  C   UNL     1      46.020   7.734  12.717  0.00  0.00    +0.000 C 
ATOM      8  C   UNL     1      44.909   8.491  11.973  0.00  0.00    +0.000 C 
ATOM      9  C   UNL     1      45.141   9.993  12.028  0.00  0.00    +0.000 C 
ATOM     10  O   UNL     1      46.439  10.315  11.531  0.00  0.00    +0.000 OA
ATOM     11  C   UNL     1      47.475   9.740  12.327  0.00  0.00    +0.000 C 
ATOM     12  C   UNL     1      47.406   8.221  12.279  0.00  0.00    +0.000 C 
ENDBRANCH   5   7
BRANCH   1  13
ATOM     13  C   UNL     1      43.781   3.699  10.659  0.00  0.00    +0.000 C 
BRANCH  13  14
ATOM     14  N   UNL     1      44.022   4.128   9.296  0.00  0.00    +0.000 N 
ATOM     15  H   UNL     1      44.072   5.138   9.174  0.00  0.00    +0.000 HD
BRANCH  14  20
ATOM     16  F   UNL     1      48.251   2.211   6.378  0.00  0.00    +0.000 F 
ATOM     17  C   UNL     1      47.218   2.621   7.123  0.00  0.00    +0.000 A 
ATOM     18  C   UNL     1      46.911   3.961   7.218  0.00  0.00    +0.000 A 
ATOM     19  N   UNL     1      45.879   4.450   7.953  0.00  0.00    +0.000 NA
ATOM     20  C   UNL     1      45.100   3.573   8.620  0.00  0.00    +0.000 A 
ATOM     21  C   UNL     1      45.340   2.205   8.565  0.00  0.00    +0.000 A 
ATOM     22  C   UNL     1      46.416   1.732   7.816  0.00  0.00    +0.000 A 
ATOM     23 CL   UNL     1      46.726   0.040   7.761  0.00  0.00    +0.000 Cl
ENDBRANCH  14  20
ENDBRANCH  13  14
ENDBRANCH   1  13
TORSDOF 4
ENDMDL
MODEL 3
REMARK VINA RESULT:    -7.116      3.438      6.273
REMARK INTER + INTRA:          -9.632
REMARK INTER:                  -8.848
REMARK INTRA:                  -0.784
REMARK UNBOUND:                -0.852
REMARK  Name = 
REMARK  4 active torsions:
REMARK  status: ('A' for Active; 'I' for Inactive)
REMARK    1  A    between atoms: C_5  and  N_6
REMARK    2  A    between atoms: N_6  and  C_7
REMARK    3  A    between atoms: C_7  and  C_8
REMARK    4  A    between atoms: C_12  and  C_13
REMARK                            x       y       z     vdW  Elec       q    Type
REMARK                         _______ _______ _______ _____ _____    ______ ____
ROOT
ATOM      1  C   UNL     1      45.173   5.381  12.288  0.00  0.00    +0.000 A 
ATOM      2  C   UNL     1      45.659   4.345  13.084  0.00  0.00    +0.000 A 
ATOM      3  C   UNL     1      46.910   4.490  13.663  0.00  0.00    +0.000 A 
ATOM      4  N   UNL     1      47.688   5.585  13.514  0.00  0.00    +0.000 NA
ATOM      5  C   UNL     1      47.222   6.584  12.727  0.00  0.00    +0.000 A 
ATOM      6  C   UNL     1      45.992   6.495  12.076  0.00  0.00    +0.000 A 
ENDROOT
BRANCH   5   7
ATOM      7  C   UNL     1      48.074   7.837  12.649  0.00  0.00    +0.000 C 
ATOM      8  C   UNL     1      47.221   9.083  12.367  0.00  0.00    +0.000 C 
ATOM      9  C   UNL     1      48.096  10.312  12.178  0.00  0.00    +0.000 C 
ATOM     10  O   UNL     1      49.065  10.081  11.156  0.00  0.00    +0.000 OA
ATOM     11  C   UNL     1      49.961   9.024  11.498  0.00  0.00    +0.000 C 
ATOM     12  C   UNL     1      49.210   7.706  11.628  0.00  0.00    +0.000 C 
ENDBRANCH   5   7
BRANCH   1  13
ATOM     13  C   UNL     1      43.780   5.344  11.711  0.00  0.00    +0.000 C 
BRANCH  13  14
ATOM     14  N   UNL     1      43.819   5.334  10.262  0.00  0.00    +0.000 N 
ATOM     15  H   UNL     1      44.230   6.167   9.845  0.00  0.00    +0.000 HD
BRANCH  14  20
ATOM     16  F   UNL     1      46.015   0.799   8.099  0.00  0.00    +0.000 F 
ATOM     17  C   UNL     1      45.501   1.939   8.574  0.00  0.00    +0.000 A 
ATOM     18  C   UNL     1      44.542   1.916   9.564  0.00  0.00    +0.000 A 
ATOM     19  N   UNL     1      43.976   3.031  10.093  0.00  0.00    +0.000 NA
ATOM     20  C   UNL     1      44.383   4.232   9.634  0.00  0.00    +0.000 A 
ATOM     21  C   UNL     1      45.354   4.337   8.644  0.00  0.00    +0.000 A 
ATOM     22  C   UNL     1      45.907   3.176   8.107  0.00  0.00    +0.000 A 
ATOM     23 CL   UNL     1      47.095   3.302   6.868  0.00  0.00    +0.000 Cl
ENDBRANCH  14  20
ENDBRANCH  13  14
ENDBRANCH   1  13
TORSDOF 4
ENDMDL
MODEL 4
REMARK VINA RESULT:    -7.039      2.655      3.145
REMARK INTER + INTRA:          -9.537
REMARK INTER:                  -8.883
REMARK INTRA:                  -0.654
REMARK UNBOUND:                -0.852
REMARK  Name = 
REMARK  4 active torsions:
REMARK  status: ('A' for Active; 'I' for Inactive)
REMARK    1  A    between atoms: C_5  and  N_6
REMARK    2  A    between atoms: N_6  and  C_7
REMARK    3  A    between atoms: C_7  and  C_8
REMARK    4  A    between atoms: C_12  and  C_13
REMARK                            x       y       z     vdW  Elec       q    Type
REMARK                         _______ _______ _______ _____ _____    ______ ____
ROOT
ATOM      1  C   UNL     1      44.875   4.968  12.031  0.00  0.00    +0.000 A 
ATOM      2  C   UNL     1      43.803   4.260  12.573  0.00  0.00    +0.000 A 
ATOM      3  C   UNL     1      43.219   3.262  11.810  0.00  0.00    +0.000 A 
ATOM      4  N   UNL     1      43.632   2.921  10.569  0.00  0.00    +0.000 NA
ATOM      5  C   UNL     1      44.662   3.621  10.036  0.00  0.00    +0.000 A 
ATOM      6  C   UNL     1      45.276   4.666  10.725  0.00  0.00    +0.000 A 
ENDROOT
BRANCH   5   7
ATOM      7  C   UNL     1      45.164   3.159   8.681  0.00  0.00    +0.000 C 
ATOM      8  C   UNL     1      45.863   1.794   8.772  0.00  0.00    +0.000 C 
ATOM      9  C   UNL     1      46.460   1.397   7.431  0.00  0.00    +0.000 C 
ATOM     10  O   UNL     1      47.334   2.418   6.953  0.00  0.00    +0.000 OA
ATOM     11  C   UNL     1      46.644   3.644   6.714  0.00  0.00    +0.000 C 
ATOM     12  C   UNL     1      46.071   4.197   8.011  0.00  0.00    +0.000 C 
ENDBRANCH   5   7
BRANCH   1  13
ATOM     13  C   UNL     1      45.631   5.994  12.837  0.00  0.00    +0.000 C 
BRANCH  13  14
ATOM     14  N   UNL     1      47.001   5.574  13.055  0.00  0.00    +0.000 N 
ATOM     15  H   UNL     1      47.698   6.138  12.571  0.00  0.00    +0.000 HD
BRANCH  14  20
ATOM     16  F   UNL     1      49.029   5.105  18.129  0.00  0.00    +0.000 F 
ATOM     17  C   UNL     1      48.485   5.178  16.909  0.00  0.00    +0.000 A 
ATOM     18  C   UNL     1      48.819   6.206  16.053  0.00  0.00    +0.000 A 
ATOM     19  N   UNL     1      48.309   6.345  14.802  0.00  0.00    +0.000 NA
ATOM     20  C   UNL     1      47.433   5.416  14.365  0.00  0.00    +0.000 A 
ATOM     21  C   UNL     1      47.055   4.345  15.165  0.00  0.00    +0.000 A 
ATOM     22  C   UNL     1      47.582   4.236  16.451  0.00  0.00    +0.000 A 
ATOM     23 CL   UNL     1      47.100   2.920  17.451  0.00  0.00    +0.000 Cl
ENDBRANCH  14  20
ENDBRANCH  13  14
ENDBRANCH   1  13
TORSDOF 4
ENDMDL
MODEL 5
REMARK VINA RESULT:    -6.989      3.722      6.555
REMARK INTER + INTRA:          -9.475
REMARK INTER:                  -8.783
REMARK INTRA:                  -0.692
REMARK UNBOUND:                -0.852
REMARK  Name = 
REMARK  4 active torsions:
REMARK  status: ('A' for Active; 'I' for Inactive)
REMARK    1  A    between atoms: C_5  and  N_6
REMARK    2  A    between atoms: N_6  and  C_7
REMARK    3  A    between atoms: C_7  and  C_8
REMARK    4  A    between atoms: C_12  and  C_13
REMARK                            x       y       z     vdW  Elec       q    Type
REMARK                         _______ _______ _______ _____ _____    ______ ____
ROOT
ATOM      1  C   UNL     1      44.698   5.184  11.456  0.00  0.00    +0.000 A 
ATOM      2  C   UNL     1      43.961   6.361  11.337  0.00  0.00    +0.000 A 
ATOM      3  C   UNL     1      44.576   7.559  11.665  0.00  0.00    +0.000 A 
ATOM      4  N   UNL     1      45.857   7.660  12.086  0.00  0.00    +0.000 NA
ATOM      5  C   UNL     1      46.566   6.514  12.218  0.00  0.00    +0.000 A 
ATOM      6  C   UNL     1      46.005   5.266  11.946  0.00  0.00    +0.000 A 
ENDROOT
BRANCH   5   7
ATOM      7  C   UNL     1      48.025   6.663  12.604  0.00  0.00    +0.000 C 
ATOM      8  C   UNL     1      48.184   6.990  14.097  0.00  0.00    +0.000 C 
ATOM      9  C   UNL     1      49.641   7.248  14.446  0.00  0.00    +0.000 C 
ATOM     10  O   UNL     1      50.180   8.272  13.611  0.00  0.00    +0.000 OA
ATOM     11  C   UNL     1      50.180   7.894  12.235  0.00  0.00    +0.000 C 
ATOM     12  C   UNL     1      48.756   7.693  11.735  0.00  0.00    +0.000 C 
ENDBRANCH   5   7
BRANCH   1  13
ATOM     13  C   UNL     1      44.136   3.855  11.018  0.00  0.00    +0.000 C 
BRANCH  13  14
ATOM     14  N   UNL     1      43.970   3.812   9.579  0.00  0.00    +0.000 N 
ATOM     15  H   UNL     1      43.657   4.687   9.163  0.00  0.00    +0.000 HD
BRANCH  14  20
ATOM     16  F   UNL     1      48.099   2.249   6.326  0.00  0.00    +0.000 F 
ATOM     17  C   UNL     1      47.097   2.572   7.150  0.00  0.00    +0.000 A 
ATOM     18  C   UNL     1      46.712   3.886   7.305  0.00  0.00    +0.000 A 
ATOM     19  N   UNL     1      45.704   4.288   8.122  0.00  0.00    +0.000 NA
ATOM     20  C   UNL     1      45.032   3.346   8.815  0.00  0.00    +0.000 A 
ATOM     21  C   UNL     1      45.355   1.998   8.704  0.00  0.00    +0.000 A 
ATOM     22  C   UNL     1      46.404   1.615   7.871  0.00  0.00    +0.000 A 
ATOM     23 CL   UNL     1      46.818  -0.051   7.746  0.00  0.00    +0.000 Cl
ENDBRANCH  14  20
ENDBRANCH  13  14
ENDBRANCH   1  13
TORSDOF 4
ENDMDL
MODEL 6
REMARK VINA RESULT:    -6.774      3.967      6.945
REMARK INTER + INTRA:          -9.210
REMARK INTER:                  -8.534
REMARK INTRA:                  -0.676
REMARK UNBOUND:                -0.852
REMARK  Name = 
REMARK  4 active torsions:
REMARK  status: ('A' for Active; 'I' for Inactive)
REMARK    1  A    between atoms: C_5  and  N_6
REMARK    2  A    between atoms: N_6  and  C_7
REMARK    3  A    between atoms: C_7  and  C_8
REMARK    4  A    between atoms: C_12  and  C_13
REMARK                            x       y       z     vdW  Elec       q    Type
REMARK                         _______ _______ _______ _____ _____    ______ ____
ROOT
ATOM      1  C   UNL     1      45.912   6.065  12.333  0.00  0.00    +0.000 A 
ATOM      2  C   UNL     1      47.011   6.723  11.781  0.00  0.00    +0.000 A 
ATOM      3  C   UNL     1      48.192   6.754  12.504  0.00  0.00    +0.000 A 
ATOM      4  N   UNL     1      48.353   6.173  13.714  0.00  0.00    +0.000 NA
ATOM      5  C   UNL     1      47.280   5.549  14.257  0.00  0.00    +0.000 A 
ATOM      6  C   UNL     1      46.045   5.510  13.610  0.00  0.00    +0.000 A 
ENDROOT
BRANCH   5   7
ATOM      7  C   UNL     1      47.512   4.830  15.572  0.00  0.00    +0.000 C 
ATOM      8  C   UNL     1      48.656   5.470  16.373  0.00  0.00    +0.000 C 
ATOM      9  C   UNL     1      48.953   4.673  17.633  0.00  0.00    +0.000 C 
ATOM     10  O   UNL     1      49.220   3.309  17.309  0.00  0.00    +0.000 OA
ATOM     11  C   UNL     1      48.093   2.671  16.710  0.00  0.00    +0.000 C 
ATOM     12  C   UNL     1      47.749   3.328  15.381  0.00  0.00    +0.000 C 
ENDBRANCH   5   7
BRANCH   1  13
ATOM     13  C   UNL     1      44.626   5.896  11.564  0.00  0.00    +0.000 C 
BRANCH  13  14
ATOM     14  N   UNL     1      44.880   5.822  10.139  0.00  0.00    +0.000 N 
ATOM     15  H   UNL     1      45.640   6.417   9.814  0.00  0.00    +0.000 HD
BRANCH  14  20
ATOM     16  F   UNL     1      45.620   0.725   8.255  0.00  0.00    +0.000 F 
ATOM     17  C   UNL     1      45.454   1.991   8.654  0.00  0.00    +0.000 A 
ATOM     18  C   UNL     1      44.759   2.276   9.809  0.00  0.00    +0.000 A 
ATOM     19  N   UNL     1      44.552   3.535  10.276  0.00  0.00    +0.000 NA
ATOM     20  C   UNL     1      45.066   4.567   9.575  0.00  0.00    +0.000 A 
ATOM     21  C   UNL     1      45.789   4.359   8.406  0.00  0.00    +0.000 A 
ATOM     22  C   UNL     1      45.972   3.058   7.941  0.00  0.00    +0.000 A 
ATOM     23 CL   UNL     1      46.850   2.799   6.483  0.00  0.00    +0.000 Cl
ENDBRANCH  14  20
ENDBRANCH  13  14
ENDBRANCH   1  13
TORSDOF 4
ENDMDL
MODEL 7
REMARK VINA RESULT:    -6.653      3.593      6.572
REMARK INTER + INTRA:          -9.060
REMARK INTER:                  -8.433
REMARK INTRA:                  -0.628
REMARK UNBOUND:                -0.852
REMARK  Name = 
REMARK  4 active torsions:
REMARK  status: ('A' for Active; 'I' for Inactive)
REMARK    1  A    between atoms: C_5  and  N_6
REMARK    2  A    between atoms: N_6  and  C_7
REMARK    3  A    between atoms: C_7  and  C_8
REMARK    4  A    between atoms: C_12  and  C_13
REMARK                            x       y       z     vdW  Elec       q    Type
REMARK                         _______ _______ _______ _____ _____    ______ ____
ROOT
ATOM      1  C   UNL     1      44.141   4.101  10.922  0.00  0.00    +0.000 A 
ATOM      2  C   UNL     1      43.285   4.085  12.022  0.00  0.00    +0.000 A 
ATOM      3  C   UNL     1      43.423   5.078  12.979  0.00  0.00    +0.000 A 
ATOM      4  N   UNL     1      44.333   6.074  12.907  0.00  0.00    +0.000 NA
ATOM      5  C   UNL     1      45.176   6.079  11.846  0.00  0.00    +0.000 A 
ATOM      6  C   UNL     1      45.127   5.091  10.863  0.00  0.00    +0.000 A 
ENDROOT
BRANCH   5   7
ATOM      7  C   UNL     1      46.126   7.257  11.743  0.00  0.00    +0.000 C 
ATOM      8  C   UNL     1      47.510   6.918  12.319  0.00  0.00    +0.000 C 
ATOM      9  C   UNL     1      48.416   8.138  12.314  0.00  0.00    +0.000 C 
ATOM     10  O   UNL     1      47.797   9.222  13.006  0.00  0.00    +0.000 OA
ATOM     11  C   UNL     1      46.590   9.641  12.370  0.00  0.00    +0.000 C 
ATOM     12  C   UNL     1      45.557   8.524  12.392  0.00  0.00    +0.000 C 
ENDBRANCH   5   7
BRANCH   1  13
ATOM     13  C   UNL     1      43.984   3.120   9.787  0.00  0.00    +0.000 C 
BRANCH  13  14
ATOM     14  N   UNL     1      45.066   2.155   9.782  0.00  0.00    +0.000 N 
ATOM     15  H   UNL     1      44.821   1.243  10.163  0.00  0.00    +0.000 HD
BRANCH  14  20
ATOM     16  F   UNL     1      47.938   1.053   5.242  0.00  0.00    +0.000 F 
ATOM     17  C   UNL     1      47.213   1.376   6.319  0.00  0.00    +0.000 A 
ATOM     18  C   UNL     1      46.950   0.437   7.294  0.00  0.00    +0.000 A 
ATOM     19  N   UNL     1      46.223   0.692   8.413  0.00  0.00    +0.000 NA
ATOM     20  C   UNL     1      45.741   1.940   8.588  0.00  0.00    +0.000 A 
ATOM     21  C   UNL     1      45.973   2.943   7.655  0.00  0.00    +0.000 A 
ATOM     22  C   UNL     1      46.708   2.650   6.508  0.00  0.00    +0.000 A 
ATOM     23 CL   UNL     1      46.981   3.886   5.341  0.00  0.00    +0.000 Cl
ENDBRANCH  14  20
ENDBRANCH  13  14
ENDBRANCH   1  13
TORSDOF 4
ENDMDL
MODEL 8
REMARK VINA RESULT:    -6.541      1.669      2.168
REMARK INTER + INTRA:          -8.922
REMARK INTER:                  -8.232
REMARK INTRA:                  -0.690
REMARK UNBOUND:                -0.852
REMARK  Name = 
REMARK  4 active torsions:
REMARK  status: ('A' for Active; 'I' for Inactive)
REMARK    1  A    between atoms: C_5  and  N_6
REMARK    2  A    between atoms: N_6  and  C_7
REMARK    3  A    between atoms: C_7  and  C_8
REMARK    4  A    between atoms: C_12  and  C_13
REMARK                            x       y       z     vdW  Elec       q    Type
REMARK                         _______ _______ _______ _____ _____    ______ ____
ROOT
ATOM      1  C   UNL     1      44.652   6.189  11.978  0.00  0.00    +0.000 A 
ATOM      2  C   UNL     1      43.512   5.734  12.639  0.00  0.00    +0.000 A 
ATOM      3  C   UNL     1      42.827   4.655  12.104  0.00  0.00    +0.000 A 
ATOM      4  N   UNL     1      43.202   4.004  10.980  0.00  0.00    +0.000 NA
ATOM      5  C   UNL     1      44.300   4.457  10.329  0.00  0.00    +0.000 A 
ATOM      6  C   UNL     1      45.020   5.563  10.782  0.00  0.00    +0.000 A 
ENDROOT
BRANCH   5   7
ATOM      7  C   UNL     1      44.751   3.655   9.124  0.00  0.00    +0.000 C 
ATOM      8  C   UNL     1      45.194   2.238   9.521  0.00  0.00    +0.000 C 
ATOM      9  C   UNL     1      45.750   1.485   8.323  0.00  0.00    +0.000 C 
ATOM     10  O   UNL     1      46.804   2.227   7.713  0.00  0.00    +0.000 OA
ATOM     11  C   UNL     1      46.350   3.478   7.198  0.00  0.00    +0.000 C 
ATOM     12  C   UNL     1      45.847   4.369   8.325  0.00  0.00    +0.000 C 
ENDBRANCH   5   7
BRANCH   1  13
ATOM     13  C   UNL     1      45.512   7.287  12.553  0.00  0.00    +0.000 C 
BRANCH  13  14
ATOM     14  N   UNL     1      46.404   6.767  13.570  0.00  0.00    +0.000 N 
ATOM     15  H   UNL     1      46.388   5.754  13.668  0.00  0.00    +0.000 HD
BRANCH  14  20
ATOM     16  F   UNL     1      51.583   8.565  13.681  0.00  0.00    +0.000 F 
ATOM     17  C   UNL     1      50.334   8.095  13.597  0.00  0.00    +0.000 A 
ATOM     18  C   UNL     1      49.517   8.076  14.707  0.00  0.00    +0.000 A 
ATOM     19  N   UNL     1      48.239   7.615  14.697  0.00  0.00    +0.000 NA
ATOM     20  C   UNL     1      47.735   7.160  13.531  0.00  0.00    +0.000 A 
ATOM     21  C   UNL     1      48.493   7.158  12.366  0.00  0.00    +0.000 A 
ATOM     22  C   UNL     1      49.807   7.621  12.408  0.00  0.00    +0.000 A 
ATOM     23 CL   UNL     1      50.755   7.602  10.972  0.00  0.00    +0.000 Cl
ENDBRANCH  14  20
ENDBRANCH  13  14
ENDBRANCH   1  13
TORSDOF 4
ENDMDL
MODEL 9
REMARK VINA RESULT:    -6.365      4.185      7.410
REMARK INTER + INTRA:          -8.705
REMARK INTER:                  -8.026
REMARK INTRA:                  -0.679
REMARK UNBOUND:                -0.852
REMARK  Name = 
REMARK  4 active torsions:
REMARK  status: ('A' for Active; 'I' for Inactive)
REMARK    1  A    between atoms: C_5  and  N_6
REMARK    2  A    between atoms: N_6  and  C_7
REMARK    3  A    between atoms: C_7  and  C_8
REMARK    4  A    between atoms: C_12  and  C_13
REMARK                            x       y       z     vdW  Elec       q    Type
REMARK                         _______ _______ _______ _____ _____    ______ ____
ROOT
ATOM      1  C   UNL     1      47.974   6.839  12.963  0.00  0.00    +0.000 A 
ATOM      2  C   UNL     1      49.169   7.557  12.924  0.00  0.00    +0.000 A 
ATOM      3  C   UNL     1      49.985   7.540  14.044  0.00  0.00    +0.000 A 
ATOM      4  N   UNL     1      49.700   6.859  15.176  0.00  0.00    +0.000 NA
ATOM      5  C   UNL     1      48.531   6.175  15.220  0.00  0.00    +0.000 A 
ATOM      6  C   UNL     1      47.637   6.177  14.148  0.00  0.00    +0.000 A 
ENDROOT
BRANCH   5   7
ATOM      7  C   UNL     1      48.277   5.347  16.465  0.00  0.00    +0.000 C 
ATOM      8  C   UNL     1      49.588   4.997  17.187  0.00  0.00    +0.000 C 
ATOM      9  C   UNL     1      49.330   4.073  18.366  0.00  0.00    +0.000 C 
ATOM     10  O   UNL     1      48.621   2.909  17.943  0.00  0.00    +0.000 OA
ATOM     11  C   UNL     1      47.332   3.229  17.420  0.00  0.00    +0.000 C 
ATOM     12  C   UNL     1      47.459   4.085  16.169  0.00  0.00    +0.000 C 
ENDBRANCH   5   7
BRANCH   1  13
ATOM     13  C   UNL     1      47.086   6.721  11.750  0.00  0.00    +0.000 C 
BRANCH  13  14
ATOM     14  N   UNL     1      45.688   6.693  12.132  0.00  0.00    +0.000 N 
ATOM     15  H   UNL     1      45.132   7.459  11.756  0.00  0.00    +0.000 HD
BRANCH  14  20
ATOM     16  F   UNL     1      42.904   1.994  11.649  0.00  0.00    +0.000 F 
ATOM     17  C   UNL     1      43.590   3.140  11.700  0.00  0.00    +0.000 A 
ATOM     18  C   UNL     1      43.528   3.945  12.819  0.00  0.00    +0.000 A 
ATOM     19  N   UNL     1      44.196   5.120  12.943  0.00  0.00    +0.000 NA
ATOM     20  C   UNL     1      44.978   5.520  11.918  0.00  0.00    +0.000 A 
ATOM     21  C   UNL     1      45.101   4.758  10.762  0.00  0.00    +0.000 A 
ATOM     22  C   UNL     1      44.390   3.564  10.654  0.00  0.00    +0.000 A 
ATOM     23 CL   UNL     1      44.526   2.628   9.216  0.00  0.00    +0.000 Cl
ENDBRANCH  14  20
ENDBRANCH  13  14
ENDBRANCH   1  13
TORSDOF 4
ENDMDL
