MODEL 1
REMARK VINA RESULT:    -6.952      0.000      0.000
REMARK INTER + INTRA:         -12.323
REMARK INTER:                 -11.016
REMARK INTRA:                  -1.307
REMARK UNBOUND:                -1.307
REMARK  Name = 
REMARK  12 active torsions:
REMARK  status: ('A' for Active; 'I' for Inactive)
REMARK    1  A    between atoms: C_1  and  N_2
REMARK    2  A    between atoms: N_2  and  C_3
REMARK    3  A    between atoms: N_2  and  C_4
REMARK    4  A    between atoms: C_4  and  C_5
REMARK    5  A    between atoms: C_5  and  C_6
REMARK    6  A    between atoms: C_6  and  C_7
REMARK    7  A    between atoms: C_6  and  C_18
REMARK    8  A    between atoms: C_7  and  O_8
REMARK    9  A    between atoms: O_8  and  C_9
REMARK   10  A    between atoms: C_12  and  C_13
REMARK   11  A    between atoms: C_22  and  O_23
REMARK   12  A    between atoms: O_23  and  C_24
REMARK                            x       y       z     vdW  Elec       q    Type
REMARK                         _______ _______ _______ _____ _____    ______ ____
ROOT
ATOM      1  C   UNL     1      45.553   5.157  12.036  0.00  0.00    +0.000 C 
ENDROOT
BRANCH   1   2
ATOM      2  C   UNL     1      46.033   6.608  12.096  0.00  0.00    +0.000 A 
ATOM      3  C   UNL     1      47.363   6.974  11.851  0.00  0.00    +0.000 A 
ATOM      4  C   UNL     1      47.744   8.318  11.863  0.00  0.00    +0.000 A 
ATOM      5  C   UNL     1      46.804   9.317  12.115  0.00  0.00    +0.000 A 
ATOM      6  C   UNL     1      45.481   8.971  12.373  0.00  0.00    +0.000 A 
ATOM      7  C   UNL     1      45.098   7.626  12.354  0.00  0.00    +0.000 A 
BRANCH   6   8
ATOM      8  O   UNL     1      44.476   9.875  12.613  0.00  0.00    +0.000 OA
BRANCH   8   9
ATOM      9  C   UNL     1      44.005  10.697  11.521  0.00  0.00    +0.000 C 
ATOM     10  C   UNL     1      42.496  11.040  11.503  0.00  0.00    +0.000 C 
ATOM     11  C   UNL     1      42.437  10.630  10.026  0.00  0.00    +0.000 C 
ATOM     12  C   UNL     1      43.791   9.930  10.195  0.00  0.00    +0.000 C 
ENDBRANCH   8   9
ENDBRANCH   6   8
ENDBRANCH   1   2
BRANCH   1  13
ATOM     13  C   UNL     1      45.547   4.585  13.475  0.00  0.00    +0.000 C 
BRANCH  13  14
ATOM     14  C   UNL     1      46.912   4.124  14.012  0.00  0.00    +0.000 C 
BRANCH  14  16
ATOM     15  C   UNL     1      47.747   3.445  16.194  0.00  0.00    +0.000 C 
ATOM     16  N   UNL     1      47.196   4.541  15.395  0.00  0.00    +0.000 NA
ATOM     17  C   UNL     1      48.135   5.668  15.400  0.00  0.00    +0.000 C 
ENDBRANCH  14  16
ENDBRANCH  13  14
ENDBRANCH   1  13
BRANCH   1  18
ATOM     18  C   UNL     1      44.178   4.975  11.366  0.00  0.00    +0.000 C 
BRANCH  18  19
ATOM     19  O   UNL     1      44.283   5.181   9.950  0.00  0.00    +0.000 OA
BRANCH  19  20
ATOM     20  C   UNL     1      44.900   4.128   9.309  0.00  0.00    +0.000 A 
ATOM     21  C   UNL     1      45.803   4.445   8.308  0.00  0.00    +0.000 A 
ATOM     22  C   UNL     1      46.477   3.402   7.672  0.00  0.00    +0.000 A 
ATOM     23  C   UNL     1      46.229   2.079   8.054  0.00  0.00    +0.000 A 
ATOM     24  C   UNL     1      45.294   1.870   9.055  0.00  0.00    +0.000 A 
ATOM     25  N   UNL     1      44.622   2.861   9.688  0.00  0.00    +0.000 NA
BRANCH  23  26
ATOM     26  C   UNL     1      46.974   0.979   7.397  0.00  0.00    +0.000 C 
ATOM     27  N   UNL     1      47.891   1.279   6.431  0.00  0.00    +0.000 N 
ATOM     28  O   UNL     1      46.773  -0.192   7.705  0.00  0.00    +0.000 OA
ATOM     29  H   UNL     1      48.119   2.200   6.086  0.00  0.00    +0.000 HD
ATOM     30  H   UNL     1      48.358   0.493   5.995  0.00  0.00    +0.000 HD
ENDBRANCH  23  26
ENDBRANCH  19  20
ENDBRANCH  18  19
ENDBRANCH   1  18
TORSDOF 10
ENDMDL
MODEL 2
REMARK VINA RESULT:    -6.924      3.044      7.989
REMARK INTER + INTRA:         -12.278
REMARK INTER:                 -11.276
REMARK INTRA:                  -1.002
REMARK UNBOUND:                -1.307
REMARK  Name = 
REMARK  12 active torsions:
REMARK  status: ('A' for Active; 'I' for Inactive)
REMARK    1  A    between atoms: C_1  and  N_2
REMARK    2  A    between atoms: N_2  and  C_3
REMARK    3  A    between atoms: N_2  and  C_4
REMARK    4  A    between atoms: C_4  and  C_5
REMARK    5  A    between atoms: C_5  and  C_6
REMARK    6  A    between atoms: C_6  and  C_7
REMARK    7  A    between atoms: C_6  and  C_18
REMARK    8  A    between atoms: C_7  and  O_8
REMARK    9  A    between atoms: O_8  and  C_9
REMARK   10  A    between atoms: C_12  and  C_13
REMARK   11  A    between atoms: C_22  and  O_23
REMARK   12  A    between atoms: O_23  and  C_24
REMARK                            x       y       z     vdW  Elec       q    Type
REMARK                         _______ _______ _______ _____ _____    ______ ____
ROOT
ATOM      1  C   UNL     1      45.895   6.640  11.765  0.00  0.00    +0.000 C 
ENDROOT
BRANCH   1   2
ATOM      2  C   UNL     1      45.382   5.525  10.853  0.00  0.00    +0.000 A 
ATOM      3  C   UNL     1      44.309   4.696  11.204  0.00  0.00    +0.000 A 
ATOM      4  C   UNL     1      43.839   3.726  10.315  0.00  0.00    +0.000 A 
ATOM      5  C   UNL     1      44.430   3.572   9.061  0.00  0.00    +0.000 A 
ATOM      6  C   UNL     1      45.504   4.379   8.699  0.00  0.00    +0.000 A 
ATOM      7  C   UNL     1      45.970   5.354   9.587  0.00  0.00    +0.000 A 
BRANCH   6   8
ATOM      8  O   UNL     1      46.143   4.322   7.486  0.00  0.00    +0.000 OA
BRANCH   8   9
ATOM      9  C   UNL     1      46.194   3.057   6.785  0.00  0.00    +0.000 C 
ATOM     10  C   UNL     1      47.255   2.036   7.259  0.00  0.00    +0.000 C 
ATOM     11  C   UNL     1      47.685   1.831   5.801  0.00  0.00    +0.000 C 
ATOM     12  C   UNL     1      46.932   3.113   5.427  0.00  0.00    +0.000 C 
ENDBRANCH   8   9
ENDBRANCH   6   8
ENDBRANCH   1   2
BRANCH   1  13
ATOM     13  C   UNL     1      44.909   7.831  11.683  0.00  0.00    +0.000 C 
BRANCH  13  14
ATOM     14  C   UNL     1      45.295   9.070  12.507  0.00  0.00    +0.000 C 
BRANCH  14  16
ATOM     15  C   UNL     1      45.584  11.333  11.660  0.00  0.00    +0.000 C 
ATOM     16  N   UNL     1      44.625  10.312  12.089  0.00  0.00    +0.000 NA
ATOM     17  C   UNL     1      43.685  10.037  10.997  0.00  0.00    +0.000 C 
ENDBRANCH  14  16
ENDBRANCH  13  14
ENDBRANCH   1  13
BRANCH   1  18
ATOM     18  C   UNL     1      46.115   6.207  13.228  0.00  0.00    +0.000 C 
BRANCH  18  19
ATOM     19  O   UNL     1      47.417   5.626  13.385  0.00  0.00    +0.000 OA
BRANCH  19  20
ATOM     20  C   UNL     1      47.719   5.363  14.704  0.00  0.00    +0.000 A 
ATOM     21  C   UNL     1      47.027   4.330  15.313  0.00  0.00    +0.000 A 
ATOM     22  C   UNL     1      47.343   4.010  16.633  0.00  0.00    +0.000 A 
ATOM     23  C   UNL     1      48.340   4.729  17.303  0.00  0.00    +0.000 A 
ATOM     24  C   UNL     1      48.960   5.756  16.608  0.00  0.00    +0.000 A 
ATOM     25  N   UNL     1      48.671   6.091  15.328  0.00  0.00    +0.000 NA
BRANCH  23  26
ATOM     26  C   UNL     1      48.694   4.362  18.695  0.00  0.00    +0.000 C 
ATOM     27  N   UNL     1      48.390   3.111  19.150  0.00  0.00    +0.000 N 
ATOM     28  O   UNL     1      49.249   5.165  19.439  0.00  0.00    +0.000 OA
ATOM     29  H   UNL     1      47.919   2.382  18.635  0.00  0.00    +0.000 HD
ATOM     30  H   UNL     1      48.632   2.913  20.115  0.00  0.00    +0.000 HD
ENDBRANCH  23  26
ENDBRANCH  19  20
ENDBRANCH  18  19
ENDBRANCH   1  18
TORSDOF 10
ENDMDL
MODEL 3
REMARK VINA RESULT:    -6.903      2.177      5.307
REMARK INTER + INTRA:         -12.245
REMARK INTER:                 -11.404
REMARK INTRA:                  -0.841
REMARK UNBOUND:                -1.307
REMARK  Name = 
REMARK  12 active torsions:
REMARK  status: ('A' for Active; 'I' for Inactive)
REMARK    1  A    between atoms: C_1  and  N_2
REMARK    2  A    between atoms: N_2  and  C_3
REMARK    3  A    between atoms: N_2  and  C_4
REMARK    4  A    between atoms: C_4  and  C_5
REMARK    5  A    between atoms: C_5  and  C_6
REMARK    6  A    between atoms: C_6  and  C_7
REMARK    7  A    between atoms: C_6  and  C_18
REMARK    8  A    between atoms: C_7  and  O_8
REMARK    9  A    between atoms: O_8  and  C_9
REMARK   10  A    between atoms: C_12  and  C_13
REMARK   11  A    between atoms: C_22  and  O_23
REMARK   12  A    between atoms: O_23  and  C_24
REMARK                            x       y       z     vdW  Elec       q    Type
REMARK                         _______ _______ _______ _____ _____    ______ ____
ROOT
ATOM      1  C   UNL     1      44.741   5.846  12.120  0.00  0.00    +0.000 C 
ENDROOT
BRANCH   1   2
ATOM      2  C   UNL     1      46.196   6.103  12.514  0.00  0.00    +0.000 A 
ATOM      3  C   UNL     1      47.072   6.851  11.718  0.00  0.00    +0.000 A 
ATOM      4  C   UNL     1      48.378   7.108  12.144  0.00  0.00    +0.000 A 
ATOM      5  C   UNL     1      48.827   6.625  13.374  0.00  0.00    +0.000 A 
ATOM      6  C   UNL     1      47.974   5.870  14.173  0.00  0.00    +0.000 A 
ATOM      7  C   UNL     1      46.665   5.620  13.748  0.00  0.00    +0.000 A 
BRANCH   6   8
ATOM      8  O   UNL     1      48.309   5.366  15.405  0.00  0.00    +0.000 OA
BRANCH   8   9
ATOM      9  C   UNL     1      47.422   4.409  16.029  0.00  0.00    +0.000 C 
ATOM     10  C   UNL     1      47.270   4.494  17.566  0.00  0.00    +0.000 C 
ATOM     11  C   UNL     1      47.497   2.980  17.656  0.00  0.00    +0.000 C 
ATOM     12  C   UNL     1      48.039   3.004  16.222  0.00  0.00    +0.000 C 
ENDBRANCH   8   9
ENDBRANCH   6   8
ENDBRANCH   1   2
BRANCH   1  13
ATOM     13  C   UNL     1      44.275   6.997  11.195  0.00  0.00    +0.000 C 
BRANCH  13  14
ATOM     14  C   UNL     1      44.423   8.414  11.772  0.00  0.00    +0.000 C 
BRANCH  14  16
ATOM     15  C   UNL     1      42.738   9.640  10.516  0.00  0.00    +0.000 C 
ATOM     16  N   UNL     1      44.166   9.495  10.807  0.00  0.00    +0.000 NA
ATOM     17  C   UNL     1      44.690  10.765  11.319  0.00  0.00    +0.000 C 
ENDBRANCH  14  16
ENDBRANCH  13  14
ENDBRANCH   1  13
BRANCH   1  18
ATOM     18  C   UNL     1      44.500   4.475  11.458  0.00  0.00    +0.000 C 
BRANCH  18  19
ATOM     19  O   UNL     1      44.101   4.645  10.091  0.00  0.00    +0.000 OA
BRANCH  19  20
ATOM     20  C   UNL     1      44.972   4.041   9.210  0.00  0.00    +0.000 A 
ATOM     21  C   UNL     1      45.026   2.657   9.230  0.00  0.00    +0.000 A 
ATOM     22  C   UNL     1      45.865   2.015   8.319  0.00  0.00    +0.000 A 
ATOM     23  C   UNL     1      46.621   2.773   7.417  0.00  0.00    +0.000 A 
ATOM     24  C   UNL     1      46.506   4.152   7.492  0.00  0.00    +0.000 A 
ATOM     25  N   UNL     1      45.703   4.803   8.367  0.00  0.00    +0.000 NA
BRANCH  23  26
ATOM     26  C   UNL     1      47.484   2.083   6.429  0.00  0.00    +0.000 C 
ATOM     27  N   UNL     1      48.822   2.353   6.411  0.00  0.00    +0.000 N 
ATOM     28  O   UNL     1      47.011   1.283   5.627  0.00  0.00    +0.000 OA
ATOM     29  H   UNL     1      49.311   3.005   7.006  0.00  0.00    +0.000 HD
ATOM     30  H   UNL     1      49.368   1.874   5.703  0.00  0.00    +0.000 HD
ENDBRANCH  23  26
ENDBRANCH  19  20
ENDBRANCH  18  19
ENDBRANCH   1  18
TORSDOF 10
ENDMDL
MODEL 4
REMARK VINA RESULT:    -6.814      1.742      3.613
REMARK INTER + INTRA:         -12.105
REMARK INTER:                 -10.678
REMARK INTRA:                  -1.427
REMARK UNBOUND:                -1.307
REMARK  Name = 
REMARK  12 active torsions:
REMARK  status: ('A' for Active; 'I' for Inactive)
REMARK    1  A    between atoms: C_1  and  N_2
REMARK    2  A    between atoms: N_2  and  C_3
REMARK    3  A    between atoms: N_2  and  C_4
REMARK    4  A    between atoms: C_4  and  C_5
REMARK    5  A    between atoms: C_5  and  C_6
REMARK    6  A    between atoms: C_6  and  C_7
REMARK    7  A    between atoms: C_6  and  C_18
REMARK    8  A    between atoms: C_7  and  O_8
REMARK    9  A    between atoms: O_8  and  C_9
REMARK   10  A    between atoms: C_12  and  C_13
REMARK   11  A    between atoms: C_22  and  O_23
REMARK   12  A    between atoms: O_23  and  C_24
REMARK                            x       y       z     vdW  Elec       q    Type
REMARK                         _______ _______ _______ _____ _____    ______ ____
ROOT
ATOM      1  C   UNL     1      45.625   5.023  12.065  0.00  0.00    +0.000 C 
ENDROOT
BRANCH   1   2
ATOM      2  C   UNL     1      45.961   6.515  12.071  0.00  0.00    +0.000 A 
ATOM      3  C   UNL     1      45.043   7.494  12.473  0.00  0.00    +0.000 A 
ATOM      4  C   UNL     1      45.412   8.841  12.515  0.00  0.00    +0.000 A 
ATOM      5  C   UNL     1      46.704   9.231  12.160  0.00  0.00    +0.000 A 
ATOM      6  C   UNL     1      47.625   8.273  11.746  0.00  0.00    +0.000 A 
ATOM      7  C   UNL     1      47.258   6.925  11.712  0.00  0.00    +0.000 A 
BRANCH   6   8
ATOM      8  O   UNL     1      48.924   8.548  11.395  0.00  0.00    +0.000 OA
BRANCH   8   9
ATOM      9  C   UNL     1      49.993   7.935  12.152  0.00  0.00    +0.000 C 
ATOM     10  C   UNL     1      50.311   8.547  13.537  0.00  0.00    +0.000 C 
ATOM     11  C   UNL     1      51.800   8.564  13.168  0.00  0.00    +0.000 C 
ATOM     12  C   UNL     1      51.412   8.355  11.700  0.00  0.00    +0.000 C 
ENDBRANCH   8   9
ENDBRANCH   6   8
ENDBRANCH   1   2
BRANCH   1  13
ATOM     13  C   UNL     1      45.738   4.492  13.515  0.00  0.00    +0.000 C 
BRANCH  13  14
ATOM     14  C   UNL     1      47.020   3.707  13.837  0.00  0.00    +0.000 C 
BRANCH  14  16
ATOM     15  C   UNL     1      47.780   5.697  15.013  0.00  0.00    +0.000 C 
ATOM     16  N   UNL     1      47.786   4.233  14.979  0.00  0.00    +0.000 NA
ATOM     17  C   UNL     1      47.239   3.714  16.237  0.00  0.00    +0.000 C 
ENDBRANCH  14  16
ENDBRANCH  13  14
ENDBRANCH   1  13
BRANCH   1  18
ATOM     18  C   UNL     1      44.247   4.689  11.462  0.00  0.00    +0.000 C 
BRANCH  18  19
ATOM     19  O   UNL     1      44.215   5.036  10.071  0.00  0.00    +0.000 OA
BRANCH  19  20
ATOM     20  C   UNL     1      45.012   4.213   9.304  0.00  0.00    +0.000 A 
ATOM     21  C   UNL     1      44.896   2.850   9.518  0.00  0.00    +0.000 A 
ATOM     22  C   UNL     1      45.656   1.990   8.726  0.00  0.00    +0.000 A 
ATOM     23  C   UNL     1      46.507   2.516   7.747  0.00  0.00    +0.000 A 
ATOM     24  C   UNL     1      46.562   3.895   7.626  0.00  0.00    +0.000 A 
ATOM     25  N   UNL     1      45.838   4.755   8.382  0.00  0.00    +0.000 NA
BRANCH  23  26
ATOM     26  C   UNL     1      47.286   1.594   6.886  0.00  0.00    +0.000 C 
ATOM     27  N   UNL     1      48.346   2.083   6.177  0.00  0.00    +0.000 N 
ATOM     28  O   UNL     1      46.987   0.407   6.799  0.00  0.00    +0.000 OA
ATOM     29  H   UNL     1      48.665   3.040   6.157  0.00  0.00    +0.000 HD
ATOM     30  H   UNL     1      48.834   1.420   5.586  0.00  0.00    +0.000 HD
ENDBRANCH  23  26
ENDBRANCH  19  20
ENDBRANCH  18  19
ENDBRANCH   1  18
TORSDOF 10
ENDMDL
MODEL 5
REMARK VINA RESULT:    -6.675      3.773      7.572
REMARK INTER + INTRA:         -11.885
REMARK INTER:                 -10.758
REMARK INTRA:                  -1.127
REMARK UNBOUND:                -1.307
REMARK  Name = 
REMARK  12 active torsions:
REMARK  status: ('A' for Active; 'I' for Inactive)
REMARK    1  A    between atoms: C_1  and  N_2
REMARK    2  A    between atoms: N_2  and  C_3
REMARK    3  A    between atoms: N_2  and  C_4
REMARK    4  A    between atoms: C_4  and  C_5
REMARK    5  A    between atoms: C_5  and  C_6
REMARK    6  A    between atoms: C_6  and  C_7
REMARK    7  A    between atoms: C_6  and  C_18
REMARK    8  A    between atoms: C_7  and  O_8
REMARK    9  A    between atoms: O_8  and  C_9
REMARK   10  A    between atoms: C_12  and  C_13
REMARK   11  A    between atoms: C_22  and  O_23
REMARK   12  A    between atoms: O_23  and  C_24
REMARK                            x       y       z     vdW  Elec       q    Type
REMARK                         _______ _______ _______ _____ _____    ______ ____
ROOT
ATOM      1  C   UNL     1      46.775   4.765  13.631  0.00  0.00    +0.000 C 
ENDROOT
BRANCH   1   2
ATOM      2  C   UNL     1      45.446   4.607  12.890  0.00  0.00    +0.000 A 
ATOM      3  C   UNL     1      44.376   5.494  13.063  0.00  0.00    +0.000 A 
ATOM      4  C   UNL     1      43.200   5.342  12.323  0.00  0.00    +0.000 A 
ATOM      5  C   UNL     1      43.076   4.305  11.399  0.00  0.00    +0.000 A 
ATOM      6  C   UNL     1      44.125   3.408  11.223  0.00  0.00    +0.000 A 
ATOM      7  C   UNL     1      45.304   3.565  11.958  0.00  0.00    +0.000 A 
BRANCH   6   8
ATOM      8  O   UNL     1      44.113   2.367  10.328  0.00  0.00    +0.000 OA
BRANCH   8   9
ATOM      9  C   UNL     1      44.451   2.634   8.947  0.00  0.00    +0.000 C 
ATOM     10  C   UNL     1      45.790   2.054   8.430  0.00  0.00    +0.000 C 
ATOM     11  C   UNL     1      46.134   3.426   7.835  0.00  0.00    +0.000 C 
ATOM     12  C   UNL     1      45.028   4.047   8.697  0.00  0.00    +0.000 C 
ENDBRANCH   8   9
ENDBRANCH   6   8
ENDBRANCH   1   2
BRANCH   1  13
ATOM     13  C   UNL     1      47.138   6.270  13.667  0.00  0.00    +0.000 C 
BRANCH  13  14
ATOM     14  C   UNL     1      48.180   6.726  12.632  0.00  0.00    +0.000 C 
BRANCH  14  16
ATOM     15  C   UNL     1      49.366   7.726  14.507  0.00  0.00    +0.000 C 
ATOM     16  N   UNL     1      49.042   7.831  13.082  0.00  0.00    +0.000 NA
ATOM     17  C   UNL     1      50.284   7.853  12.301  0.00  0.00    +0.000 C 
ENDBRANCH  14  16
ENDBRANCH  13  14
ENDBRANCH   1  13
BRANCH   1  18
ATOM     18  C   UNL     1      46.781   4.164  15.050  0.00  0.00    +0.000 C 
BRANCH  18  19
ATOM     19  O   UNL     1      47.613   4.945  15.919  0.00  0.00    +0.000 OA
BRANCH  19  20
ATOM     20  C   UNL     1      48.649   4.211  16.456  0.00  0.00    +0.000 A 
ATOM     21  C   UNL     1      48.477   2.839  16.521  0.00  0.00    +0.000 A 
ATOM     22  C   UNL     1      49.526   2.064  17.018  0.00  0.00    +0.000 A 
ATOM     23  C   UNL     1      50.711   2.683  17.433  0.00  0.00    +0.000 A 
ATOM     24  C   UNL     1      50.773   4.065  17.341  0.00  0.00    +0.000 A 
ATOM     25  N   UNL     1      49.771   4.842  16.866  0.00  0.00    +0.000 NA
BRANCH  23  26
ATOM     26  C   UNL     1      51.834   1.852  17.927  0.00  0.00    +0.000 C 
ATOM     27  N   UNL     1      51.691   0.494  17.964  0.00  0.00    +0.000 N 
ATOM     28  O   UNL     1      52.881   2.366  18.308  0.00  0.00    +0.000 OA
ATOM     29  H   UNL     1      50.871  -0.031  17.697  0.00  0.00    +0.000 HD
ATOM     30  H   UNL     1      52.476  -0.031  18.330  0.00  0.00    +0.000 HD
ENDBRANCH  23  26
ENDBRANCH  19  20
ENDBRANCH  18  19
ENDBRANCH   1  18
TORSDOF 10
ENDMDL
MODEL 6
REMARK VINA RESULT:    -6.549      3.029      7.123
REMARK INTER + INTRA:         -11.685
REMARK INTER:                 -10.397
REMARK INTRA:                  -1.288
REMARK UNBOUND:                -1.307
REMARK  Name = 
REMARK  12 active torsions:
REMARK  status: ('A' for Active; 'I' for Inactive)
REMARK    1  A    between atoms: C_1  and  N_2
REMARK    2  A    between atoms: N_2  and  C_3
REMARK    3  A    between atoms: N_2  and  C_4
REMARK    4  A    between atoms: C_4  and  C_5
REMARK    5  A    between atoms: C_5  and  C_6
REMARK    6  A    between atoms: C_6  and  C_7
REMARK    7  A    between atoms: C_6  and  C_18
REMARK    8  A    between atoms: C_7  and  O_8
REMARK    9  A    between atoms: O_8  and  C_9
REMARK   10  A    between atoms: C_12  and  C_13
REMARK   11  A    between atoms: C_22  and  O_23
REMARK   12  A    between atoms: O_23  and  C_24
REMARK                            x       y       z     vdW  Elec       q    Type
REMARK                         _______ _______ _______ _____ _____    ______ ____
ROOT
ATOM      1  C   UNL     1      46.329   5.435  13.762  0.00  0.00    +0.000 C 
ENDROOT
BRANCH   1   2
ATOM      2  C   UNL     1      45.165   4.917  12.914  0.00  0.00    +0.000 A 
ATOM      3  C   UNL     1      43.875   5.455  12.997  0.00  0.00    +0.000 A 
ATOM      4  C   UNL     1      42.855   4.988  12.164  0.00  0.00    +0.000 A 
ATOM      5  C   UNL     1      43.109   3.980  11.234  0.00  0.00    +0.000 A 
ATOM      6  C   UNL     1      44.382   3.425  11.146  0.00  0.00    +0.000 A 
ATOM      7  C   UNL     1      45.404   3.899  11.975  0.00  0.00    +0.000 A 
BRANCH   6   8
ATOM      8  O   UNL     1      44.742   2.445  10.255  0.00  0.00    +0.000 OA
BRANCH   8   9
ATOM      9  C   UNL     1      44.826   2.780   8.851  0.00  0.00    +0.000 C 
ATOM     10  C   UNL     1      46.017   2.187   8.060  0.00  0.00    +0.000 C 
ATOM     11  C   UNL     1      46.303   3.578   7.480  0.00  0.00    +0.000 C 
ATOM     12  C   UNL     1      45.406   4.185   8.566  0.00  0.00    +0.000 C 
ENDBRANCH   8   9
ENDBRANCH   6   8
ENDBRANCH   1   2
BRANCH   1  13
ATOM     13  C   UNL     1      47.081   4.218  14.354  0.00  0.00    +0.000 C 
BRANCH  13  14
ATOM     14  C   UNL     1      47.210   4.199  15.885  0.00  0.00    +0.000 C 
BRANCH  14  16
ATOM     15  C   UNL     1      48.892   5.785  16.645  0.00  0.00    +0.000 C 
ATOM     16  N   UNL     1      48.584   4.377  16.383  0.00  0.00    +0.000 NA
ATOM     17  C   UNL     1      48.782   3.598  17.610  0.00  0.00    +0.000 C 
ENDBRANCH  14  16
ENDBRANCH  13  14
ENDBRANCH   1  13
BRANCH   1  18
ATOM     18  C   UNL     1      47.296   6.365  13.004  0.00  0.00    +0.000 C 
BRANCH  18  19
ATOM     19  O   UNL     1      47.470   7.594  13.721  0.00  0.00    +0.000 OA
BRANCH  19  20
ATOM     20  C   UNL     1      46.922   8.672  13.058  0.00  0.00    +0.000 A 
ATOM     21  C   UNL     1      45.548   8.671  12.889  0.00  0.00    +0.000 A 
ATOM     22  C   UNL     1      44.959   9.770  12.262  0.00  0.00    +0.000 A 
ATOM     23  C   UNL     1      45.758  10.833  11.826  0.00  0.00    +0.000 A 
ATOM     24  C   UNL     1      47.125  10.725  12.029  0.00  0.00    +0.000 A 
ATOM     25  N   UNL     1      47.725   9.671  12.631  0.00  0.00    +0.000 NA
BRANCH  23  26
ATOM     26  C   UNL     1      45.122  12.011  11.192  0.00  0.00    +0.000 C 
ATOM     27  N   UNL     1      45.420  12.311   9.893  0.00  0.00    +0.000 N 
ATOM     28  O   UNL     1      44.341  12.721  11.819  0.00  0.00    +0.000 OA
ATOM     29  H   UNL     1      46.061  11.812   9.294  0.00  0.00    +0.000 HD
ATOM     30  H   UNL     1      44.978  13.138   9.510  0.00  0.00    +0.000 HD
ENDBRANCH  23  26
ENDBRANCH  19  20
ENDBRANCH  18  19
ENDBRANCH   1  18
TORSDOF 10
ENDMDL
MODEL 7
REMARK VINA RESULT:    -6.538      2.977      7.825
REMARK INTER + INTRA:         -11.668
REMARK INTER:                 -10.564
REMARK INTRA:                  -1.104
REMARK UNBOUND:                -1.307
REMARK  Name = 
REMARK  12 active torsions:
REMARK  status: ('A' for Active; 'I' for Inactive)
REMARK    1  A    between atoms: C_1  and  N_2
REMARK    2  A    between atoms: N_2  and  C_3
REMARK    3  A    between atoms: N_2  and  C_4
REMARK    4  A    between atoms: C_4  and  C_5
REMARK    5  A    between atoms: C_5  and  C_6
REMARK    6  A    between atoms: C_6  and  C_7
REMARK    7  A    between atoms: C_6  and  C_18
REMARK    8  A    between atoms: C_7  and  O_8
REMARK    9  A    between atoms: O_8  and  C_9
REMARK   10  A    between atoms: C_12  and  C_13
REMARK   11  A    between atoms: C_22  and  O_23
REMARK   12  A    between atoms: O_23  and  C_24
REMARK                            x       y       z     vdW  Elec       q    Type
REMARK                         _______ _______ _______ _____ _____    ______ ____
ROOT
ATOM      1  C   UNL     1      46.114   7.192  12.134  0.00  0.00    +0.000 C 
ENDROOT
BRANCH   1   2
ATOM      2  C   UNL     1      45.137   6.034  11.930  0.00  0.00    +0.000 A 
ATOM      3  C   UNL     1      44.153   5.703  12.871  0.00  0.00    +0.000 A 
ATOM      4  C   UNL     1      43.246   4.671  12.618  0.00  0.00    +0.000 A 
ATOM      5  C   UNL     1      43.305   3.955  11.422  0.00  0.00    +0.000 A 
ATOM      6  C   UNL     1      44.283   4.262  10.481  0.00  0.00    +0.000 A 
ATOM      7  C   UNL     1      45.186   5.301  10.732  0.00  0.00    +0.000 A 
BRANCH   6   8
ATOM      8  O   UNL     1      44.416   3.635   9.268  0.00  0.00    +0.000 OA
BRANCH   8   9
ATOM      9  C   UNL     1      45.732   3.206   8.848  0.00  0.00    +0.000 C 
ATOM     10  C   UNL     1      46.124   3.486   7.377  0.00  0.00    +0.000 C 
ATOM     11  C   UNL     1      46.597   2.033   7.244  0.00  0.00    +0.000 C 
ATOM     12  C   UNL     1      45.835   1.695   8.530  0.00  0.00    +0.000 C 
ENDBRANCH   8   9
ENDBRANCH   6   8
ENDBRANCH   1   2
BRANCH   1  13
ATOM     13  C   UNL     1      45.304   8.450  12.535  0.00  0.00    +0.000 C 
BRANCH  13  14
ATOM     14  C   UNL     1      45.895   9.793  12.078  0.00  0.00    +0.000 C 
BRANCH  14  16
ATOM     15  C   UNL     1      45.438  11.925  10.998  0.00  0.00    +0.000 C 
ATOM     16  N   UNL     1      44.895  10.844  11.824  0.00  0.00    +0.000 NA
ATOM     17  C   UNL     1      43.717  10.271  11.163  0.00  0.00    +0.000 C 
ENDBRANCH  14  16
ENDBRANCH  13  14
ENDBRANCH   1  13
BRANCH   1  18
ATOM     18  C   UNL     1      47.228   6.905  13.158  0.00  0.00    +0.000 C 
BRANCH  18  19
ATOM     19  O   UNL     1      47.281   5.504  13.459  0.00  0.00    +0.000 OA
BRANCH  19  20
ATOM     20  C   UNL     1      47.638   5.259  14.767  0.00  0.00    +0.000 A 
ATOM     21  C   UNL     1      47.011   4.199  15.401  0.00  0.00    +0.000 A 
ATOM     22  C   UNL     1      47.384   3.898  16.711  0.00  0.00    +0.000 A 
ATOM     23  C   UNL     1      48.370   4.663  17.346  0.00  0.00    +0.000 A 
ATOM     24  C   UNL     1      48.922   5.712  16.628  0.00  0.00    +0.000 A 
ATOM     25  N   UNL     1      48.578   6.029  15.358  0.00  0.00    +0.000 NA
BRANCH  23  26
ATOM     26  C   UNL     1      48.786   4.316  18.726  0.00  0.00    +0.000 C 
ATOM     27  N   UNL     1      48.363   3.138  19.272  0.00  0.00    +0.000 N 
ATOM     28  O   UNL     1      49.496   5.073  19.381  0.00  0.00    +0.000 OA
ATOM     29  H   UNL     1      47.763   2.454  18.834  0.00  0.00    +0.000 HD
ATOM     30  H   UNL     1      48.654   2.955  20.225  0.00  0.00    +0.000 HD
ENDBRANCH  23  26
ENDBRANCH  19  20
ENDBRANCH  18  19
ENDBRANCH   1  18
TORSDOF 10
ENDMDL
MODEL 8
REMARK VINA RESULT:    -6.379      3.355      8.095
REMARK INTER + INTRA:         -11.415
REMARK INTER:                 -10.388
REMARK INTRA:                  -1.026
REMARK UNBOUND:                -1.307
REMARK  Name = 
REMARK  12 active torsions:
REMARK  status: ('A' for Active; 'I' for Inactive)
REMARK    1  A    between atoms: C_1  and  N_2
REMARK    2  A    between atoms: N_2  and  C_3
REMARK    3  A    between atoms: N_2  and  C_4
REMARK    4  A    between atoms: C_4  and  C_5
REMARK    5  A    between atoms: C_5  and  C_6
REMARK    6  A    between atoms: C_6  and  C_7
REMARK    7  A    between atoms: C_6  and  C_18
REMARK    8  A    between atoms: C_7  and  O_8
REMARK    9  A    between atoms: O_8  and  C_9
REMARK   10  A    between atoms: C_12  and  C_13
REMARK   11  A    between atoms: C_22  and  O_23
REMARK   12  A    between atoms: O_23  and  C_24
REMARK                            x       y       z     vdW  Elec       q    Type
REMARK                         _______ _______ _______ _____ _____    ______ ____
ROOT
ATOM      1  C   UNL     1      46.875   5.209  13.075  0.00  0.00    +0.000 C 
ENDROOT
BRANCH   1   2
ATOM      2  C   UNL     1      45.493   4.801  12.563  0.00  0.00    +0.000 A 
ATOM      3  C   UNL     1      44.321   5.470  12.940  0.00  0.00    +0.000 A 
ATOM      4  C   UNL     1      43.086   5.098  12.404  0.00  0.00    +0.000 A 
ATOM      5  C   UNL     1      43.001   4.054  11.482  0.00  0.00    +0.000 A 
ATOM      6  C   UNL     1      44.154   3.370  11.106  0.00  0.00    +0.000 A 
ATOM      7  C   UNL     1      45.391   3.749  11.637  0.00  0.00    +0.000 A 
BRANCH   6   8
ATOM      8  O   UNL     1      44.184   2.345  10.194  0.00  0.00    +0.000 OA
BRANCH   8   9
ATOM      9  C   UNL     1      44.449   2.655   8.807  0.00  0.00    +0.000 C 
ATOM     10  C   UNL     1      45.819   2.212   8.240  0.00  0.00    +0.000 C 
ATOM     11  C   UNL     1      46.010   3.616   7.652  0.00  0.00    +0.000 C 
ATOM     12  C   UNL     1      44.879   4.119   8.555  0.00  0.00    +0.000 C 
ENDBRANCH   8   9
ENDBRANCH   6   8
ENDBRANCH   1   2
BRANCH   1  13
ATOM     13  C   UNL     1      47.247   6.573  12.442  0.00  0.00    +0.000 C 
BRANCH  13  14
ATOM     14  C   UNL     1      47.524   7.712  13.437  0.00  0.00    +0.000 C 
BRANCH  14  16
ATOM     15  C   UNL     1      47.804   9.662  12.009  0.00  0.00    +0.000 C 
ATOM     16  N   UNL     1      46.979   9.019  13.034  0.00  0.00    +0.000 NA
ATOM     17  C   UNL     1      45.611   8.862  12.531  0.00  0.00    +0.000 C 
ENDBRANCH  14  16
ENDBRANCH  13  14
ENDBRANCH   1  13
BRANCH   1  18
ATOM     18  C   UNL     1      46.988   5.266  14.611  0.00  0.00    +0.000 C 
BRANCH  18  19
ATOM     19  O   UNL     1      47.308   3.970  15.135  0.00  0.00    +0.000 OA
BRANCH  19  20
ATOM     20  C   UNL     1      47.809   4.030  16.418  0.00  0.00    +0.000 A 
ATOM     21  C   UNL     1      48.306   5.252  16.841  0.00  0.00    +0.000 A 
ATOM     22  C   UNL     1      48.778   5.356  18.150  0.00  0.00    +0.000 A 
ATOM     23  C   UNL     1      48.738   4.240  18.994  0.00  0.00    +0.000 A 
ATOM     24  C   UNL     1      48.236   3.060  18.466  0.00  0.00    +0.000 A 
ATOM     25  N   UNL     1      47.775   2.929  17.200  0.00  0.00    +0.000 NA
BRANCH  23  26
ATOM     26  C   UNL     1      49.209   4.367  20.394  0.00  0.00    +0.000 C 
ATOM     27  N   UNL     1      50.517   4.681  20.630  0.00  0.00    +0.000 N 
ATOM     28  O   UNL     1      48.444   4.187  21.336  0.00  0.00    +0.000 OA
ATOM     29  H   UNL     1      51.234   4.828  19.935  0.00  0.00    +0.000 HD
ATOM     30  H   UNL     1      50.797   4.735  21.602  0.00  0.00    +0.000 HD
ENDBRANCH  23  26
ENDBRANCH  19  20
ENDBRANCH  18  19
ENDBRANCH   1  18
TORSDOF 10
ENDMDL
MODEL 9
REMARK VINA RESULT:    -6.153      2.685      6.427
REMARK INTER + INTRA:         -11.057
REMARK INTER:                  -9.798
REMARK INTRA:                  -1.259
REMARK UNBOUND:                -1.307
REMARK  Name = 
REMARK  12 active torsions:
REMARK  status: ('A' for Active; 'I' for Inactive)
REMARK    1  A    between atoms: C_1  and  N_2
REMARK    2  A    between atoms: N_2  and  C_3
REMARK    3  A    between atoms: N_2  and  C_4
REMARK    4  A    between atoms: C_4  and  C_5
REMARK    5  A    between atoms: C_5  and  C_6
REMARK    6  A    between atoms: C_6  and  C_7
REMARK    7  A    between atoms: C_6  and  C_18
REMARK    8  A    between atoms: C_7  and  O_8
REMARK    9  A    between atoms: O_8  and  C_9
REMARK   10  A    between atoms: C_12  and  C_13
REMARK   11  A    between atoms: C_22  and  O_23
REMARK   12  A    between atoms: O_23  and  C_24
REMARK                            x       y       z     vdW  Elec       q    Type
REMARK                         _______ _______ _______ _____ _____    ______ ____
ROOT
ATOM      1  C   UNL     1      45.725   5.777  12.657  0.00  0.00    +0.000 C 
ENDROOT
BRANCH   1   2
ATOM      2  C   UNL     1      46.175   7.232  12.513  0.00  0.00    +0.000 A 
ATOM      3  C   UNL     1      47.525   7.602  12.460  0.00  0.00    +0.000 A 
ATOM      4  C   UNL     1      47.889   8.938  12.272  0.00  0.00    +0.000 A 
ATOM      5  C   UNL     1      46.911   9.923  12.131  0.00  0.00    +0.000 A 
ATOM      6  C   UNL     1      45.565   9.575  12.193  0.00  0.00    +0.000 A 
ATOM      7  C   UNL     1      45.202   8.237  12.374  0.00  0.00    +0.000 A 
BRANCH   6   8
ATOM      8  O   UNL     1      44.528  10.461  12.047  0.00  0.00    +0.000 OA
BRANCH   8   9
ATOM      9  C   UNL     1      43.450  10.127  11.143  0.00  0.00    +0.000 C 
ATOM     10  C   UNL     1      43.581  10.622   9.683  0.00  0.00    +0.000 C 
ATOM     11  C   UNL     1      42.146  11.160   9.754  0.00  0.00    +0.000 C 
ATOM     12  C   UNL     1      42.202  11.031  11.280  0.00  0.00    +0.000 C 
ENDBRANCH   8   9
ENDBRANCH   6   8
ENDBRANCH   1   2
BRANCH   1  13
ATOM     13  C   UNL     1      45.299   5.257  11.262  0.00  0.00    +0.000 C 
BRANCH  13  14
ATOM     14  C   UNL     1      43.796   4.984  11.087  0.00  0.00    +0.000 C 
BRANCH  14  16
ATOM     15  C   UNL     1      44.395   2.910   9.963  0.00  0.00    +0.000 C 
ATOM     16  N   UNL     1      43.455   3.568  10.874  0.00  0.00    +0.000 NA
ATOM     17  C   UNL     1      43.439   2.854  12.155  0.00  0.00    +0.000 C 
ENDBRANCH  14  16
ENDBRANCH  13  14
ENDBRANCH   1  13
BRANCH   1  18
ATOM     18  C   UNL     1      46.780   4.850  13.291  0.00  0.00    +0.000 C 
BRANCH  18  19
ATOM     19  O   UNL     1      46.313   4.352  14.552  0.00  0.00    +0.000 OA
BRANCH  19  20
ATOM     20  C   UNL     1      47.254   4.484  15.551  0.00  0.00    +0.000 A 
ATOM     21  C   UNL     1      47.273   3.504  16.529  0.00  0.00    +0.000 A 
ATOM     22  C   UNL     1      48.242   3.586  17.529  0.00  0.00    +0.000 A 
ATOM     23  C   UNL     1      49.161   4.642  17.521  0.00  0.00    +0.000 A 
ATOM     24  C   UNL     1      49.044   5.579  16.507  0.00  0.00    +0.000 A 
ATOM     25  N   UNL     1      48.112   5.527  15.526  0.00  0.00    +0.000 NA
BRANCH  23  26
ATOM     26  C   UNL     1      50.210   4.704  18.566  0.00  0.00    +0.000 C 
ATOM     27  N   UNL     1      51.088   3.666  18.690  0.00  0.00    +0.000 N 
ATOM     28  O   UNL     1      50.293   5.668  19.321  0.00  0.00    +0.000 OA
ATOM     29  H   UNL     1      51.099   2.820  18.140  0.00  0.00    +0.000 HD
ATOM     30  H   UNL     1      51.773   3.743  19.433  0.00  0.00    +0.000 HD
ENDBRANCH  23  26
ENDBRANCH  19  20
ENDBRANCH  18  19
ENDBRANCH   1  18
TORSDOF 10
ENDMDL
