MODEL 1
REMARK VINA RESULT:    -8.136      0.000      0.000
REMARK INTER + INTRA:         -11.188
REMARK INTER:                 -10.514
REMARK INTRA:                  -0.674
REMARK UNBOUND:                -0.674
REMARK  Name = 
REMARK  5 active torsions:
REMARK  status: ('A' for Active; 'I' for Inactive)
REMARK    1  A    between atoms: C_2  and  C_4
REMARK    2  A    between atoms: N_8  and  C_9
REMARK    3  A    between atoms: C_9  and  C_10
REMARK    4  A    between atoms: C_10  and  C_11
REMARK    5  A    between atoms: C_15  and  C_16
REMARK                            x       y       z     vdW  Elec       q    Type
REMARK                         _______ _______ _______ _____ _____    ______ ____
ROOT
ATOM      1  C   UNL     1      43.231   4.930  10.680  0.00  0.00    +0.000 C 
ENDROOT
BRANCH   1   6
ATOM      2  C   UNL     1      46.279   2.134   7.953  0.00  0.00    +0.000 A 
ATOM      3  C   UNL     1      46.228   3.412   7.447  0.00  0.00    +0.000 A 
ATOM      4  N   UNL     1      45.591   4.435   8.064  0.00  0.00    +0.000 NA
ATOM      5  C   UNL     1      44.979   4.163   9.225  0.00  0.00    +0.000 A 
ATOM      6  N   UNL     1      44.398   5.244   9.867  0.00  0.00    +0.000 N 
ATOM      7  N   UNL     1      44.935   2.938   9.772  0.00  0.00    +0.000 NA
ATOM      8  C   UNL     1      45.579   1.945   9.120  0.00  0.00    +0.000 A 
ATOM      9  H   UNL     1      44.271   5.963   9.163  0.00  0.00    +0.000 HD
BRANCH   2  11
ATOM     10  N   UNL     1      47.919   1.331   6.354  0.00  0.00    +0.000 N 
ATOM     11  C   UNL     1      47.007   1.025   7.325  0.00  0.00    +0.000 C 
ATOM     12  O   UNL     1      46.840  -0.133   7.696  0.00  0.00    +0.000 OA
ATOM     13  H   UNL     1      48.498   0.566   6.031  0.00  0.00    +0.000 HD
ATOM     14  H   UNL     1      48.282   2.266   6.213  0.00  0.00    +0.000 HD
ENDBRANCH   2  11
ENDBRANCH   1   6
BRANCH   1  15
ATOM     15  C   UNL     1      43.309   5.682  12.016  0.00  0.00    +0.000 C 
BRANCH  15  16
ATOM     16  C   UNL     1      44.708   5.684  12.582  0.00  0.00    +0.000 A 
ATOM     17  C   UNL     1      45.196   4.581  13.285  0.00  0.00    +0.000 A 
ATOM     18  C   UNL     1      46.499   4.587  13.776  0.00  0.00    +0.000 A 
ATOM     19  C   UNL     1      47.333   5.685  13.545  0.00  0.00    +0.000 A 
ATOM     20  C   UNL     1      46.895   6.795  12.800  0.00  0.00    +0.000 A 
ATOM     21  C   UNL     1      45.560   6.778  12.352  0.00  0.00    +0.000 A 
BRANCH  20  22
ATOM     22  C   UNL     1      47.818   7.889  12.409  0.00  0.00    +0.000 A 
ATOM     23  C   UNL     1      49.137   7.610  11.999  0.00  0.00    +0.000 A 
ATOM     24  C   UNL     1      49.980   8.611  11.508  0.00  0.00    +0.000 A 
ATOM     25  C   UNL     1      49.524   9.921  11.415  0.00  0.00    +0.000 A 
ATOM     26  C   UNL     1      48.237  10.234  11.840  0.00  0.00    +0.000 A 
ATOM     27  C   UNL     1      47.400   9.231  12.343  0.00  0.00    +0.000 A 
ENDBRANCH  20  22
ENDBRANCH  15  16
ENDBRANCH   1  15
TORSDOF 5
ENDMDL
MODEL 2
REMARK VINA RESULT:    -8.132      1.964      3.811
REMARK INTER + INTRA:         -11.183
REMARK INTER:                 -10.385
REMARK INTRA:                  -0.797
REMARK UNBOUND:                -0.674
REMARK  Name = 
REMARK  5 active torsions:
REMARK  status: ('A' for Active; 'I' for Inactive)
REMARK    1  A    between atoms: C_2  and  C_4
REMARK    2  A    between atoms: N_8  and  C_9
REMARK    3  A    between atoms: C_9  and  C_10
REMARK    4  A    between atoms: C_10  and  C_11
REMARK    5  A    between atoms: C_15  and  C_16
REMARK                            x       y       z     vdW  Elec       q    Type
REMARK                         _______ _______ _______ _____ _____    ______ ____
ROOT
ATOM      1  C   UNL     1      43.773   5.172  10.475  0.00  0.00    +0.000 C 
ENDROOT
BRANCH   1   6
ATOM      2  C   UNL     1      46.569   2.382   7.484  0.00  0.00    +0.000 A 
ATOM      3  C   UNL     1      45.896   1.587   8.383  0.00  0.00    +0.000 A 
ATOM      4  N   UNL     1      44.950   2.053   9.231  0.00  0.00    +0.000 NA
ATOM      5  C   UNL     1      44.675   3.364   9.180  0.00  0.00    +0.000 A 
ATOM      6  N   UNL     1      43.652   3.798  10.008  0.00  0.00    +0.000 N 
ATOM      7  N   UNL     1      45.311   4.225   8.370  0.00  0.00    +0.000 NA
ATOM      8  C   UNL     1      46.253   3.718   7.543  0.00  0.00    +0.000 A 
ATOM      9  H   UNL     1      43.543   3.090  10.725  0.00  0.00    +0.000 HD
BRANCH   2  11
ATOM     10  N   UNL     1      48.696   2.628   6.341  0.00  0.00    +0.000 N 
ATOM     11  C   UNL     1      47.560   1.887   6.522  0.00  0.00    +0.000 C 
ATOM     12  O   UNL     1      47.400   0.819   5.940  0.00  0.00    +0.000 OA
ATOM     13  H   UNL     1      49.417   2.201   5.774  0.00  0.00    +0.000 HD
ATOM     14  H   UNL     1      48.991   3.351   6.984  0.00  0.00    +0.000 HD
ENDBRANCH   2  11
ENDBRANCH   1   6
BRANCH   1  15
ATOM     15  C   UNL     1      43.928   5.190  12.002  0.00  0.00    +0.000 C 
BRANCH  15  16
ATOM     16  C   UNL     1      45.338   5.524  12.423  0.00  0.00    +0.000 A 
ATOM     17  C   UNL     1      46.121   6.400  11.668  0.00  0.00    +0.000 A 
ATOM     18  C   UNL     1      47.410   6.721  12.086  0.00  0.00    +0.000 A 
ATOM     19  C   UNL     1      47.917   6.191  13.276  0.00  0.00    +0.000 A 
ATOM     20  C   UNL     1      47.142   5.345  14.091  0.00  0.00    +0.000 A 
ATOM     21  C   UNL     1      45.859   5.005  13.622  0.00  0.00    +0.000 A 
BRANCH  20  22
ATOM     22  C   UNL     1      47.606   4.909  15.431  0.00  0.00    +0.000 A 
ATOM     23  C   UNL     1      48.380   5.764  16.241  0.00  0.00    +0.000 A 
ATOM     24  C   UNL     1      48.719   5.423  17.553  0.00  0.00    +0.000 A 
ATOM     25  C   UNL     1      48.292   4.215  18.091  0.00  0.00    +0.000 A 
ATOM     26  C   UNL     1      47.551   3.336  17.307  0.00  0.00    +0.000 A 
ATOM     27  C   UNL     1      47.224   3.675  15.989  0.00  0.00    +0.000 A 
ENDBRANCH  20  22
ENDBRANCH  15  16
ENDBRANCH   1  15
TORSDOF 5
ENDMDL
MODEL 3
REMARK VINA RESULT:    -7.934      3.797      7.162
REMARK INTER + INTRA:         -10.927
REMARK INTER:                 -10.127
REMARK INTRA:                  -0.800
REMARK UNBOUND:                -0.674
REMARK  Name = 
REMARK  5 active torsions:
REMARK  status: ('A' for Active; 'I' for Inactive)
REMARK    1  A    between atoms: C_2  and  C_4
REMARK    2  A    between atoms: N_8  and  C_9
REMARK    3  A    between atoms: C_9  and  C_10
REMARK    4  A    between atoms: C_10  and  C_11
REMARK    5  A    between atoms: C_15  and  C_16
REMARK                            x       y       z     vdW  Elec       q    Type
REMARK                         _______ _______ _______ _____ _____    ______ ____
ROOT
ATOM      1  C   UNL     1      47.568   7.208  12.202  0.00  0.00    +0.000 C 
ENDROOT
BRANCH   1   6
ATOM      2  C   UNL     1      47.779   4.402  16.279  0.00  0.00    +0.000 A 
ATOM      3  C   UNL     1      48.553   5.529  16.437  0.00  0.00    +0.000 A 
ATOM      4  N   UNL     1      48.579   6.549  15.549  0.00  0.00    +0.000 NA
ATOM      5  C   UNL     1      47.806   6.430  14.459  0.00  0.00    +0.000 A 
ATOM      6  N   UNL     1      47.798   7.521  13.605  0.00  0.00    +0.000 N 
ATOM      7  N   UNL     1      47.054   5.350  14.196  0.00  0.00    +0.000 NA
ATOM      8  C   UNL     1      47.062   4.352  15.108  0.00  0.00    +0.000 A 
ATOM      9  H   UNL     1      48.636   8.054  13.812  0.00  0.00    +0.000 HD
BRANCH   2  11
ATOM     10  N   UNL     1      48.858   2.916  17.866  0.00  0.00    +0.000 N 
ATOM     11  C   UNL     1      47.699   3.310  17.256  0.00  0.00    +0.000 C 
ATOM     12  O   UNL     1      46.622   2.802  17.552  0.00  0.00    +0.000 OA
ATOM     13  H   UNL     1      48.756   2.255  18.626  0.00  0.00    +0.000 HD
ATOM     14  H   UNL     1      49.702   3.474  17.859  0.00  0.00    +0.000 HD
ENDBRANCH   2  11
ENDBRANCH   1   6
BRANCH   1  15
ATOM     15  C   UNL     1      46.191   7.731  11.771  0.00  0.00    +0.000 C 
BRANCH  15  16
ATOM     16  C   UNL     1      45.293   6.622  11.281  0.00  0.00    +0.000 A 
ATOM     17  C   UNL     1      43.936   6.602  11.610  0.00  0.00    +0.000 A 
ATOM     18  C   UNL     1      43.115   5.587  11.125  0.00  0.00    +0.000 A 
ATOM     19  C   UNL     1      43.637   4.600  10.285  0.00  0.00    +0.000 A 
ATOM     20  C   UNL     1      44.988   4.612   9.890  0.00  0.00    +0.000 A 
ATOM     21  C   UNL     1      45.803   5.626  10.429  0.00  0.00    +0.000 A 
BRANCH  20  22
ATOM     22  C   UNL     1      45.514   3.668   8.873  0.00  0.00    +0.000 A 
ATOM     23  C   UNL     1      46.196   4.141   7.734  0.00  0.00    +0.000 A 
ATOM     24  C   UNL     1      46.808   3.267   6.831  0.00  0.00    +0.000 A 
ATOM     25  C   UNL     1      46.755   1.895   7.044  0.00  0.00    +0.000 A 
ATOM     26  C   UNL     1      46.063   1.396   8.143  0.00  0.00    +0.000 A 
ATOM     27  C   UNL     1      45.440   2.273   9.039  0.00  0.00    +0.000 A 
ENDBRANCH  20  22
ENDBRANCH  15  16
ENDBRANCH   1  15
TORSDOF 5
ENDMDL
MODEL 4
REMARK VINA RESULT:    -7.774      1.529      2.118
REMARK INTER + INTRA:         -10.721
REMARK INTER:                  -9.933
REMARK INTRA:                  -0.788
REMARK UNBOUND:                -0.674
REMARK  Name = 
REMARK  5 active torsions:
REMARK  status: ('A' for Active; 'I' for Inactive)
REMARK    1  A    between atoms: C_2  and  C_4
REMARK    2  A    between atoms: N_8  and  C_9
REMARK    3  A    between atoms: C_9  and  C_10
REMARK    4  A    between atoms: C_10  and  C_11
REMARK    5  A    between atoms: C_15  and  C_16
REMARK                            x       y       z     vdW  Elec       q    Type
REMARK                         _______ _______ _______ _____ _____    ______ ____
ROOT
ATOM      1  C   UNL     1      43.466   4.346  11.103  0.00  0.00    +0.000 C 
ENDROOT
BRANCH   1   6
ATOM      2  C   UNL     1      46.335   2.790   7.376  0.00  0.00    +0.000 A 
ATOM      3  C   UNL     1      46.112   1.764   8.265  0.00  0.00    +0.000 A 
ATOM      4  N   UNL     1      45.251   1.849   9.305  0.00  0.00    +0.000 NA
ATOM      5  C   UNL     1      44.596   3.008   9.464  0.00  0.00    +0.000 A 
ATOM      6  N   UNL     1      43.669   3.040  10.492  0.00  0.00    +0.000 N 
ATOM      7  N   UNL     1      44.782   4.080   8.677  0.00  0.00    +0.000 NA
ATOM      8  C   UNL     1      45.655   3.952   7.653  0.00  0.00    +0.000 A 
ATOM      9  H   UNL     1      43.914   2.285  11.124  0.00  0.00    +0.000 HD
BRANCH   2  11
ATOM     10  N   UNL     1      48.560   2.513   6.448  0.00  0.00    +0.000 N 
ATOM     11  C   UNL     1      47.225   2.700   6.214  0.00  0.00    +0.000 C 
ATOM     12  O   UNL     1      46.781   2.738   5.070  0.00  0.00    +0.000 OA
ATOM     13  H   UNL     1      49.130   2.324   5.633  0.00  0.00    +0.000 HD
ATOM     14  H   UNL     1      48.925   2.206   7.340  0.00  0.00    +0.000 HD
ENDBRANCH   2  11
ENDBRANCH   1   6
BRANCH   1  15
ATOM     15  C   UNL     1      43.827   4.286  12.594  0.00  0.00    +0.000 C 
BRANCH  15  16
ATOM     16  C   UNL     1      45.042   5.120  12.915  0.00  0.00    +0.000 A 
ATOM     17  C   UNL     1      46.209   4.527  13.403  0.00  0.00    +0.000 A 
ATOM     18  C   UNL     1      47.331   5.307  13.666  0.00  0.00    +0.000 A 
ATOM     19  C   UNL     1      47.306   6.683  13.419  0.00  0.00    +0.000 A 
ATOM     20  C   UNL     1      46.167   7.311  12.883  0.00  0.00    +0.000 A 
ATOM     21  C   UNL     1      45.034   6.504  12.666  0.00  0.00    +0.000 A 
BRANCH  20  22
ATOM     22  C   UNL     1      46.183   8.735  12.465  0.00  0.00    +0.000 A 
ATOM     23  C   UNL     1      47.400   9.405  12.229  0.00  0.00    +0.000 A 
ATOM     24  C   UNL     1      47.433  10.704  11.714  0.00  0.00    +0.000 A 
ATOM     25  C   UNL     1      46.248  11.368  11.421  0.00  0.00    +0.000 A 
ATOM     26  C   UNL     1      45.030  10.744  11.671  0.00  0.00    +0.000 A 
ATOM     27  C   UNL     1      44.999   9.448  12.198  0.00  0.00    +0.000 A 
ENDBRANCH  20  22
ENDBRANCH  15  16
ENDBRANCH   1  15
TORSDOF 5
ENDMDL
MODEL 5
REMARK VINA RESULT:    -7.765      4.406      7.637
REMARK INTER + INTRA:         -10.708
REMARK INTER:                 -10.336
REMARK INTRA:                  -0.372
REMARK UNBOUND:                -0.674
REMARK  Name = 
REMARK  5 active torsions:
REMARK  status: ('A' for Active; 'I' for Inactive)
REMARK    1  A    between atoms: C_2  and  C_4
REMARK    2  A    between atoms: N_8  and  C_9
REMARK    3  A    between atoms: C_9  and  C_10
REMARK    4  A    between atoms: C_10  and  C_11
REMARK    5  A    between atoms: C_15  and  C_16
REMARK                            x       y       z     vdW  Elec       q    Type
REMARK                         _______ _______ _______ _____ _____    ______ ____
ROOT
ATOM      1  C   UNL     1      46.930   6.583  13.309  0.00  0.00    +0.000 C 
ENDROOT
BRANCH   1   6
ATOM      2  C   UNL     1      48.510   4.355  17.443  0.00  0.00    +0.000 A 
ATOM      3  C   UNL     1      47.474   3.642  16.885  0.00  0.00    +0.000 A 
ATOM      4  N   UNL     1      46.934   3.927  15.677  0.00  0.00    +0.000 NA
ATOM      5  C   UNL     1      47.448   4.971  15.010  0.00  0.00    +0.000 A 
ATOM      6  N   UNL     1      46.925   5.194  13.747  0.00  0.00    +0.000 N 
ATOM      7  N   UNL     1      48.426   5.753  15.493  0.00  0.00    +0.000 NA
ATOM      8  C   UNL     1      48.932   5.435  16.705  0.00  0.00    +0.000 A 
ATOM      9  H   UNL     1      46.028   4.721  13.719  0.00  0.00    +0.000 HD
BRANCH   2  11
ATOM     10  N   UNL     1      48.392   3.355  19.652  0.00  0.00    +0.000 N 
ATOM     11  C   UNL     1      49.141   4.029  18.727  0.00  0.00    +0.000 C 
ATOM     12  O   UNL     1      50.317   4.307  18.944  0.00  0.00    +0.000 OA
ATOM     13  H   UNL     1      48.888   3.030  20.472  0.00  0.00    +0.000 HD
ATOM     14  H   UNL     1      47.532   2.876  19.420  0.00  0.00    +0.000 HD
ENDBRANCH   2  11
ENDBRANCH   1   6
BRANCH   1  15
ATOM     15  C   UNL     1      45.522   6.993  12.858  0.00  0.00    +0.000 C 
BRANCH  15  16
ATOM     16  C   UNL     1      44.788   5.854  12.193  0.00  0.00    +0.000 A 
ATOM     17  C   UNL     1      43.483   5.528  12.569  0.00  0.00    +0.000 A 
ATOM     18  C   UNL     1      42.809   4.494  11.925  0.00  0.00    +0.000 A 
ATOM     19  C   UNL     1      43.423   3.795  10.883  0.00  0.00    +0.000 A 
ATOM     20  C   UNL     1      44.718   4.124  10.441  0.00  0.00    +0.000 A 
ATOM     21  C   UNL     1      45.390   5.147  11.138  0.00  0.00    +0.000 A 
BRANCH  20  22
ATOM     22  C   UNL     1      45.315   3.502   9.234  0.00  0.00    +0.000 A 
ATOM     23  C   UNL     1      45.859   4.298   8.205  0.00  0.00    +0.000 A 
ATOM     24  C   UNL     1      46.538   3.732   7.122  0.00  0.00    +0.000 A 
ATOM     25  C   UNL     1      46.691   2.353   7.039  0.00  0.00    +0.000 A 
ATOM     26  C   UNL     1      46.139   1.539   8.024  0.00  0.00    +0.000 A 
ATOM     27  C   UNL     1      45.449   2.108   9.101  0.00  0.00    +0.000 A 
ENDBRANCH  20  22
ENDBRANCH  15  16
ENDBRANCH   1  15
TORSDOF 5
ENDMDL
MODEL 6
REMARK VINA RESULT:    -7.486      4.306      7.430
REMARK INTER + INTRA:         -10.348
REMARK INTER:                  -9.409
REMARK INTRA:                  -0.939
REMARK UNBOUND:                -0.674
REMARK  Name = 
REMARK  5 active torsions:
REMARK  status: ('A' for Active; 'I' for Inactive)
REMARK    1  A    between atoms: C_2  and  C_4
REMARK    2  A    between atoms: N_8  and  C_9
REMARK    3  A    between atoms: C_9  and  C_10
REMARK    4  A    between atoms: C_10  and  C_11
REMARK    5  A    between atoms: C_15  and  C_16
REMARK                            x       y       z     vdW  Elec       q    Type
REMARK                         _______ _______ _______ _____ _____    ______ ____
ROOT
ATOM      1  C   UNL     1      49.409   7.301  13.042  0.00  0.00    +0.000 C 
ENDROOT
BRANCH   1   6
ATOM      2  C   UNL     1      48.087   4.489  16.901  0.00  0.00    +0.000 A 
ATOM      3  C   UNL     1      49.079   5.367  17.271  0.00  0.00    +0.000 A 
ATOM      4  N   UNL     1      49.541   6.355  16.469  0.00  0.00    +0.000 NA
ATOM      5  C   UNL     1      48.993   6.460  15.250  0.00  0.00    +0.000 A 
ATOM      6  N   UNL     1      49.434   7.523  14.480  0.00  0.00    +0.000 N 
ATOM      7  N   UNL     1      48.054   5.621  14.784  0.00  0.00    +0.000 NA
ATOM      8  C   UNL     1      47.625   4.646  15.616  0.00  0.00    +0.000 A 
ATOM      9  H   UNL     1      50.323   7.812  14.873  0.00  0.00    +0.000 HD
BRANCH   2  11
ATOM     10  N   UNL     1      48.220   3.154  18.923  0.00  0.00    +0.000 N 
ATOM     11  C   UNL     1      47.539   3.445  17.774  0.00  0.00    +0.000 C 
ATOM     12  O   UNL     1      46.478   2.888  17.507  0.00  0.00    +0.000 OA
ATOM     13  H   UNL     1      47.755   2.527  19.568  0.00  0.00    +0.000 HD
ATOM     14  H   UNL     1      48.930   3.762  19.312  0.00  0.00    +0.000 HD
ENDBRANCH   2  11
ENDBRANCH   1   6
BRANCH   1  15
ATOM     15  C   UNL     1      48.589   8.404  12.358  0.00  0.00    +0.000 C 
BRANCH  15  16
ATOM     16  C   UNL     1      47.166   7.974  12.102  0.00  0.00    +0.000 A 
ATOM     17  C   UNL     1      46.097   8.817  12.415  0.00  0.00    +0.000 A 
ATOM     18  C   UNL     1      44.791   8.417  12.145  0.00  0.00    +0.000 A 
ATOM     19  C   UNL     1      44.544   7.183  11.536  0.00  0.00    +0.000 A 
ATOM     20  C   UNL     1      45.595   6.327  11.161  0.00  0.00    +0.000 A 
ATOM     21  C   UNL     1      46.902   6.739  11.483  0.00  0.00    +0.000 A 
BRANCH  20  22
ATOM     22  C   UNL     1      45.356   5.094  10.369  0.00  0.00    +0.000 A 
ATOM     23  C   UNL     1      44.672   3.997  10.930  0.00  0.00    +0.000 A 
ATOM     24  C   UNL     1      44.327   2.880  10.165  0.00  0.00    +0.000 A 
ATOM     25  C   UNL     1      44.657   2.830   8.816  0.00  0.00    +0.000 A 
ATOM     26  C   UNL     1      45.359   3.885   8.240  0.00  0.00    +0.000 A 
ATOM     27  C   UNL     1      45.715   4.997   9.012  0.00  0.00    +0.000 A 
ENDBRANCH  20  22
ENDBRANCH  15  16
ENDBRANCH   1  15
TORSDOF 5
ENDMDL
MODEL 7
REMARK VINA RESULT:    -7.378      3.693      7.280
REMARK INTER + INTRA:         -10.209
REMARK INTER:                  -9.847
REMARK INTRA:                  -0.362
REMARK UNBOUND:                -0.674
REMARK  Name = 
REMARK  5 active torsions:
REMARK  status: ('A' for Active; 'I' for Inactive)
REMARK    1  A    between atoms: C_2  and  C_4
REMARK    2  A    between atoms: N_8  and  C_9
REMARK    3  A    between atoms: C_9  and  C_10
REMARK    4  A    between atoms: C_10  and  C_11
REMARK    5  A    between atoms: C_15  and  C_16
REMARK                            x       y       z     vdW  Elec       q    Type
REMARK                         _______ _______ _______ _____ _____    ______ ____
ROOT
ATOM      1  C   UNL     1      43.689   4.136  12.749  0.00  0.00    +0.000 C 
ENDROOT
BRANCH   1   6
ATOM      2  C   UNL     1      47.847   6.118  14.572  0.00  0.00    +0.000 A 
ATOM      3  C   UNL     1      47.611   4.893  15.152  0.00  0.00    +0.000 A 
ATOM      4  N   UNL     1      46.627   4.053  14.753  0.00  0.00    +0.000 NA
ATOM      5  C   UNL     1      45.850   4.461  13.739  0.00  0.00    +0.000 A 
ATOM      6  N   UNL     1      44.900   3.551  13.305  0.00  0.00    +0.000 N 
ATOM      7  N   UNL     1      45.975   5.657  13.142  0.00  0.00    +0.000 NA
ATOM      8  C   UNL     1      46.967   6.466  13.576  0.00  0.00    +0.000 A 
ATOM      9  H   UNL     1      44.770   2.888  14.062  0.00  0.00    +0.000 HD
BRANCH   2  11
ATOM     10  N   UNL     1      48.704   8.365  14.901  0.00  0.00    +0.000 N 
ATOM     11  C   UNL     1      48.939   7.019  14.958  0.00  0.00    +0.000 C 
ATOM     12  O   UNL     1      50.010   6.579  15.367  0.00  0.00    +0.000 OA
ATOM     13  H   UNL     1      49.424   8.958  15.294  0.00  0.00    +0.000 HD
ATOM     14  H   UNL     1      47.774   8.759  14.837  0.00  0.00    +0.000 HD
ENDBRANCH   2  11
ENDBRANCH   1   6
BRANCH   1  15
ATOM     15  C   UNL     1      43.404   3.531  11.368  0.00  0.00    +0.000 C 
BRANCH  15  16
ATOM     16  C   UNL     1      44.358   4.045  10.318  0.00  0.00    +0.000 A 
ATOM     17  C   UNL     1      44.888   5.334  10.403  0.00  0.00    +0.000 A 
ATOM     18  C   UNL     1      45.791   5.782   9.442  0.00  0.00    +0.000 A 
ATOM     19  C   UNL     1      46.191   4.937   8.404  0.00  0.00    +0.000 A 
ATOM     20  C   UNL     1      45.718   3.615   8.310  0.00  0.00    +0.000 A 
ATOM     21  C   UNL     1      44.776   3.203   9.271  0.00  0.00    +0.000 A 
BRANCH  20  22
ATOM     22  C   UNL     1      46.258   2.659   7.311  0.00  0.00    +0.000 A 
ATOM     23  C   UNL     1      46.553   3.076   5.998  0.00  0.00    +0.000 A 
ATOM     24  C   UNL     1      47.178   2.226   5.081  0.00  0.00    +0.000 A 
ATOM     25  C   UNL     1      47.526   0.934   5.456  0.00  0.00    +0.000 A 
ATOM     26  C   UNL     1      47.221   0.483   6.736  0.00  0.00    +0.000 A 
ATOM     27  C   UNL     1      46.583   1.332   7.648  0.00  0.00    +0.000 A 
ENDBRANCH  20  22
ENDBRANCH  15  16
ENDBRANCH   1  15
TORSDOF 5
ENDMDL
MODEL 8
REMARK VINA RESULT:    -7.186      3.596      7.122
REMARK INTER + INTRA:          -9.960
REMARK INTER:                  -9.359
REMARK INTRA:                  -0.601
REMARK UNBOUND:                -0.674
REMARK  Name = 
REMARK  5 active torsions:
REMARK  status: ('A' for Active; 'I' for Inactive)
REMARK    1  A    between atoms: C_2  and  C_4
REMARK    2  A    between atoms: N_8  and  C_9
REMARK    3  A    between atoms: C_9  and  C_10
REMARK    4  A    between atoms: C_10  and  C_11
REMARK    5  A    between atoms: C_15  and  C_16
REMARK                            x       y       z     vdW  Elec       q    Type
REMARK                         _______ _______ _______ _____ _____    ______ ____
ROOT
ATOM      1  C   UNL     1      44.771   6.719  12.889  0.00  0.00    +0.000 C 
ENDROOT
BRANCH   1   6
ATOM      2  C   UNL     1      49.541   8.058  12.923  0.00  0.00    +0.000 A 
ATOM      3  C   UNL     1      49.334   7.017  13.797  0.00  0.00    +0.000 A 
ATOM      4  N   UNL     1      48.162   6.347  13.898  0.00  0.00    +0.000 NA
ATOM      5  C   UNL     1      47.161   6.741  13.098  0.00  0.00    +0.000 A 
ATOM      6  N   UNL     1      45.999   5.991  13.173  0.00  0.00    +0.000 N 
ATOM      7  N   UNL     1      47.254   7.775  12.248  0.00  0.00    +0.000 NA
ATOM      8  C   UNL     1      48.440   8.420  12.183  0.00  0.00    +0.000 A 
ATOM      9  H   UNL     1      46.032   5.497  14.059  0.00  0.00    +0.000 HD
BRANCH   2  11
ATOM     10  N   UNL     1      51.966   8.062  13.008  0.00  0.00    +0.000 N 
ATOM     11  C   UNL     1      50.818   8.763  12.763  0.00  0.00    +0.000 C 
ATOM     12  O   UNL     1      50.855   9.926  12.373  0.00  0.00    +0.000 OA
ATOM     13  H   UNL     1      52.831   8.529  12.766  0.00  0.00    +0.000 HD
ATOM     14  H   UNL     1      51.994   7.052  13.061  0.00  0.00    +0.000 HD
ENDBRANCH   2  11
ENDBRANCH   1   6
BRANCH   1  15
ATOM     15  C   UNL     1      44.362   6.501  11.426  0.00  0.00    +0.000 C 
BRANCH  15  16
ATOM     16  C   UNL     1      44.295   5.036  11.070  0.00  0.00    +0.000 A 
ATOM     17  C   UNL     1      43.418   4.178  11.737  0.00  0.00    +0.000 A 
ATOM     18  C   UNL     1      43.347   2.835  11.376  0.00  0.00    +0.000 A 
ATOM     19  C   UNL     1      44.131   2.345  10.329  0.00  0.00    +0.000 A 
ATOM     20  C   UNL     1      44.991   3.187   9.600  0.00  0.00    +0.000 A 
ATOM     21  C   UNL     1      45.073   4.530  10.014  0.00  0.00    +0.000 A 
BRANCH  20  22
ATOM     22  C   UNL     1      45.703   2.717   8.386  0.00  0.00    +0.000 A 
ATOM     23  C   UNL     1      45.979   3.600   7.323  0.00  0.00    +0.000 A 
ATOM     24  C   UNL     1      46.757   3.211   6.229  0.00  0.00    +0.000 A 
ATOM     25  C   UNL     1      47.280   1.925   6.169  0.00  0.00    +0.000 A 
ATOM     26  C   UNL     1      47.000   1.020   7.188  0.00  0.00    +0.000 A 
ATOM     27  C   UNL     1      46.210   1.409   8.277  0.00  0.00    +0.000 A 
ENDBRANCH  20  22
ENDBRANCH  15  16
ENDBRANCH   1  15
TORSDOF 5
ENDMDL
MODEL 9
REMARK VINA RESULT:    -6.699      4.966      6.910
REMARK INTER + INTRA:          -9.331
REMARK INTER:                  -8.715
REMARK INTRA:                  -0.616
REMARK UNBOUND:                -0.674
REMARK  Name = 
REMARK  5 active torsions:
REMARK  status: ('A' for Active; 'I' for Inactive)
REMARK    1  A    between atoms: C_2  and  C_4
REMARK    2  A    between atoms: N_8  and  C_9
REMARK    3  A    between atoms: C_9  and  C_10
REMARK    4  A    between atoms: C_10  and  C_11
REMARK    5  A    between atoms: C_15  and  C_16
REMARK                            x       y       z     vdW  Elec       q    Type
REMARK                         _______ _______ _______ _____ _____    ______ ____
ROOT
ATOM      1  C   UNL     1      48.393   6.535  14.571  0.00  0.00    +0.000 C 
ENDROOT
BRANCH   1   6
ATOM      2  C   UNL     1      45.120   4.361  11.552  0.00  0.00    +0.000 A 
ATOM      3  C   UNL     1      45.431   3.523  12.599  0.00  0.00    +0.000 A 
ATOM      4  N   UNL     1      46.187   3.897  13.657  0.00  0.00    +0.000 NA
ATOM      5  C   UNL     1      46.654   5.154  13.661  0.00  0.00    +0.000 A 
ATOM      6  N   UNL     1      47.363   5.529  14.790  0.00  0.00    +0.000 N 
ATOM      7  N   UNL     1      46.443   6.028  12.664  0.00  0.00    +0.000 NA
ATOM      8  C   UNL     1      45.686   5.611  11.624  0.00  0.00    +0.000 A 
ATOM      9  H   UNL     1      47.665   4.671  15.238  0.00  0.00    +0.000 HD
BRANCH   2  11
ATOM     10  N   UNL     1      44.330   4.756   9.292  0.00  0.00    +0.000 N 
ATOM     11  C   UNL     1      44.260   3.990  10.423  0.00  0.00    +0.000 C 
ATOM     12  O   UNL     1      43.542   2.996  10.472  0.00  0.00    +0.000 OA
ATOM     13  H   UNL     1      43.827   4.404   8.487  0.00  0.00    +0.000 HD
ATOM     14  H   UNL     1      45.087   5.402   9.109  0.00  0.00    +0.000 HD
ENDBRANCH   2  11
ENDBRANCH   1   6
BRANCH   1  15
ATOM     15  C   UNL     1      48.680   7.281  15.881  0.00  0.00    +0.000 C 
BRANCH  15  16
ATOM     16  C   UNL     1      48.916   6.333  17.031  0.00  0.00    +0.000 A 
ATOM     17  C   UNL     1      48.059   6.320  18.134  0.00  0.00    +0.000 A 
ATOM     18  C   UNL     1      48.273   5.419  19.173  0.00  0.00    +0.000 A 
ATOM     19  C   UNL     1      49.329   4.505  19.106  0.00  0.00    +0.000 A 
ATOM     20  C   UNL     1      50.185   4.453  17.991  0.00  0.00    +0.000 A 
ATOM     21  C   UNL     1      49.969   5.404  16.975  0.00  0.00    +0.000 A 
BRANCH  20  22
ATOM     22  C   UNL     1      51.203   3.385  17.835  0.00  0.00    +0.000 A 
ATOM     23  C   UNL     1      52.537   3.595  18.236  0.00  0.00    +0.000 A 
ATOM     24  C   UNL     1      53.481   2.564  18.214  0.00  0.00    +0.000 A 
ATOM     25  C   UNL     1      53.113   1.293  17.790  0.00  0.00    +0.000 A 
ATOM     26  C   UNL     1      51.810   1.061  17.359  0.00  0.00    +0.000 A 
ATOM     27  C   UNL     1      50.871   2.099  17.370  0.00  0.00    +0.000 A 
ENDBRANCH  20  22
ENDBRANCH  15  16
ENDBRANCH   1  15
TORSDOF 5
ENDMDL
