MODEL 1
REMARK VINA RESULT:    -7.401      0.000      0.000
REMARK INTER + INTRA:         -10.929
REMARK INTER:                  -9.564
REMARK INTRA:                  -1.365
REMARK UNBOUND:                -1.365
REMARK  Name = 
REMARK  6 active torsions:
REMARK  status: ('A' for Active; 'I' for Inactive)
REMARK    1  A    between atoms: C_1  and  C_2
REMARK    2  A    between atoms: C_2  and  N_3
REMARK    3  A    between atoms: C_2  and  C_16
REMARK    4  A    between atoms: C_4  and  C_6
REMARK    5  A    between atoms: C_19  and  O_20
REMARK    6  A    between atoms: O_20  and  C_21
REMARK                            x       y       z     vdW  Elec       q    Type
REMARK                         _______ _______ _______ _____ _____    ______ ____
ROOT
ATOM      1  C   UNL     1      48.405   9.267  13.217  0.00  0.00    +0.000 C 
ATOM      2  C   UNL     1      47.560   8.254  13.999  0.00  0.00    +0.000 C 
ENDROOT
BRANCH   2   3
ATOM      3  C   UNL     1      46.614   7.454  13.121  0.00  0.00    +0.000 A 
ATOM      4  C   UNL     1      45.739   8.136  12.260  0.00  0.00    +0.000 A 
ATOM      5  C   UNL     1      44.834   7.435  11.460  0.00  0.00    +0.000 A 
ATOM      6  C   UNL     1      44.831   6.039  11.469  0.00  0.00    +0.000 A 
ATOM      7  C   UNL     1      45.648   5.353  12.365  0.00  0.00    +0.000 A 
ATOM      8  C   UNL     1      46.525   6.055  13.193  0.00  0.00    +0.000 A 
BRANCH   6   9
ATOM      9  O   UNL     1      44.019   5.254  10.687  0.00  0.00    +0.000 OA
BRANCH   9  10
ATOM     10  C   UNL     1      44.569   4.324   9.830  0.00  0.00    +0.000 A 
ATOM     11  C   UNL     1      45.419   4.661   8.770  0.00  0.00    +0.000 A 
ATOM     12  C   UNL     1      45.906   3.673   7.913  0.00  0.00    +0.000 A 
ATOM     13  C   UNL     1      45.598   2.335   8.148  0.00  0.00    +0.000 A 
ATOM     14  C   UNL     1      44.816   1.981   9.247  0.00  0.00    +0.000 A 
ATOM     15  C   UNL     1      44.303   2.973  10.088  0.00  0.00    +0.000 A 
ATOM     16 CL   UNL     1      43.346   2.482  11.441  0.00  0.00    +0.000 Cl
ENDBRANCH   9  10
ENDBRANCH   6   9
ENDBRANCH   2   3
BRANCH   2  17
ATOM     17  N   UNL     1      48.399   7.329  14.734  0.00  0.00    +0.000 N 
ATOM     18  C   UNL     1      48.851   7.568  16.002  0.00  0.00    +0.000 C 
ATOM     19  O   UNL     1      48.549   8.594  16.610  0.00  0.00    +0.000 OA
ATOM     20  H   UNL     1      48.657   6.475  14.250  0.00  0.00    +0.000 HD
BRANCH  18  21
ATOM     21  C   UNL     1      49.720   6.547  16.611  0.00  0.00    +0.000 A 
ATOM     22  C   UNL     1      51.007   6.898  17.000  0.00  0.00    +0.000 A 
ATOM     23  S   UNL     1      51.913   5.610  17.648  0.00  0.00    +0.000 S 
ATOM     24  C   UNL     1      50.623   4.527  17.433  0.00  0.00    +0.000 A 
ATOM     25  N   UNL     1      50.757   3.215  17.770  0.00  0.00    +0.000 NA
ATOM     26  C   UNL     1      49.707   2.496  17.559  0.00  0.00    +0.000 A 
ATOM     27  N   UNL     1      48.526   2.975  17.055  0.00  0.00    +0.000 N 
ATOM     28  C   UNL     1      48.340   4.294  16.713  0.00  0.00    +0.000 A 
ATOM     29  O   UNL     1      47.258   4.685  16.285  0.00  0.00    +0.000 OA
ATOM     30  C   UNL     1      49.501   5.143  16.902  0.00  0.00    +0.000 A 
ATOM     31  H   UNL     1      47.733   2.367  16.929  0.00  0.00    +0.000 HD
ENDBRANCH  18  21
ENDBRANCH   2  17
TORSDOF 5
ENDMDL
MODEL 2
REMARK VINA RESULT:    -7.141      1.855      1.973
REMARK INTER + INTRA:         -10.593
REMARK INTER:                  -9.381
REMARK INTRA:                  -1.212
REMARK UNBOUND:                -1.365
REMARK  Name = 
REMARK  6 active torsions:
REMARK  status: ('A' for Active; 'I' for Inactive)
REMARK    1  A    between atoms: C_1  and  C_2
REMARK    2  A    between atoms: C_2  and  N_3
REMARK    3  A    between atoms: C_2  and  C_16
REMARK    4  A    between atoms: C_4  and  C_6
REMARK    5  A    between atoms: C_19  and  O_20
REMARK    6  A    between atoms: O_20  and  C_21
REMARK                            x       y       z     vdW  Elec       q    Type
REMARK                         _______ _______ _______ _____ _____    ______ ____
ROOT
ATOM      1  C   UNL     1      49.757   7.719  13.357  0.00  0.00    +0.000 C 
ATOM      2  C   UNL     1      48.340   8.011  13.865  0.00  0.00    +0.000 C 
ENDROOT
BRANCH   2   3
ATOM      3  C   UNL     1      47.258   7.299  13.073  0.00  0.00    +0.000 A 
ATOM      4  C   UNL     1      46.440   8.045  12.210  0.00  0.00    +0.000 A 
ATOM      5  C   UNL     1      45.415   7.430  11.488  0.00  0.00    +0.000 A 
ATOM      6  C   UNL     1      45.229   6.050  11.579  0.00  0.00    +0.000 A 
ATOM      7  C   UNL     1      45.990   5.309  12.480  0.00  0.00    +0.000 A 
ATOM      8  C   UNL     1      46.990   5.930  13.230  0.00  0.00    +0.000 A 
BRANCH   6   9
ATOM      9  O   UNL     1      44.286   5.339  10.876  0.00  0.00    +0.000 OA
BRANCH   9  10
ATOM     10  C   UNL     1      44.676   4.394   9.951  0.00  0.00    +0.000 A 
ATOM     11  C   UNL     1      45.495   4.682   8.853  0.00  0.00    +0.000 A 
ATOM     12  C   UNL     1      45.815   3.686   7.930  0.00  0.00    +0.000 A 
ATOM     13  C   UNL     1      45.371   2.381   8.132  0.00  0.00    +0.000 A 
ATOM     14  C   UNL     1      44.620   2.067   9.264  0.00  0.00    +0.000 A 
ATOM     15  C   UNL     1      44.273   3.070  10.173  0.00  0.00    +0.000 A 
ATOM     16 CL   UNL     1      43.347   2.629  11.564  0.00  0.00    +0.000 Cl
ENDBRANCH   9  10
ENDBRANCH   6   9
ENDBRANCH   2   3
BRANCH   2  17
ATOM     17  N   UNL     1      48.200   7.651  15.263  0.00  0.00    +0.000 N 
ATOM     18  C   UNL     1      48.633   8.442  16.290  0.00  0.00    +0.000 C 
ATOM     19  O   UNL     1      49.160   9.535  16.083  0.00  0.00    +0.000 OA
ATOM     20  H   UNL     1      47.765   6.754  15.454  0.00  0.00    +0.000 HD
BRANCH  18  21
ATOM     21  C   UNL     1      48.448   7.931  17.659  0.00  0.00    +0.000 A 
ATOM     22  C   UNL     1      48.105   8.819  18.672  0.00  0.00    +0.000 A 
ATOM     23  S   UNL     1      47.967   8.098  20.208  0.00  0.00    +0.000 S 
ATOM     24  C   UNL     1      48.362   6.569  19.584  0.00  0.00    +0.000 A 
ATOM     25  N   UNL     1      48.446   5.487  20.406  0.00  0.00    +0.000 NA
ATOM     26  C   UNL     1      48.753   4.384  19.811  0.00  0.00    +0.000 A 
ATOM     27  N   UNL     1      48.969   4.263  18.463  0.00  0.00    +0.000 N 
ATOM     28  C   UNL     1      48.882   5.324  17.594  0.00  0.00    +0.000 A 
ATOM     29  O   UNL     1      49.061   5.166  16.390  0.00  0.00    +0.000 OA
ATOM     30  C   UNL     1      48.568   6.597  18.214  0.00  0.00    +0.000 A 
ATOM     31  H   UNL     1      49.188   3.369  18.054  0.00  0.00    +0.000 HD
ENDBRANCH  18  21
ENDBRANCH   2  17
TORSDOF 5
ENDMDL
MODEL 3
REMARK VINA RESULT:    -6.829      1.432      1.758
REMARK INTER + INTRA:         -10.190
REMARK INTER:                  -9.106
REMARK INTRA:                  -1.084
REMARK UNBOUND:                -1.365
REMARK  Name = 
REMARK  6 active torsions:
REMARK  status: ('A' for Active; 'I' for Inactive)
REMARK    1  A    between atoms: C_1  and  C_2
REMARK    2  A    between atoms: C_2  and  N_3
REMARK    3  A    between atoms: C_2  and  C_16
REMARK    4  A    between atoms: C_4  and  C_6
REMARK    5  A    between atoms: C_19  and  O_20
REMARK    6  A    between atoms: O_20  and  C_21
REMARK                            x       y       z     vdW  Elec       q    Type
REMARK                         _______ _______ _______ _____ _____    ______ ____
ROOT
ATOM      1  C   UNL     1      48.398   9.515  13.219  0.00  0.00    +0.000 C 
ATOM      2  C   UNL     1      47.466   8.583  14.004  0.00  0.00    +0.000 C 
ENDROOT
BRANCH   2   3
ATOM      3  C   UNL     1      46.581   7.728  13.115  0.00  0.00    +0.000 A 
ATOM      4  C   UNL     1      46.813   6.346  13.047  0.00  0.00    +0.000 A 
ATOM      5  C   UNL     1      46.039   5.532  12.217  0.00  0.00    +0.000 A 
ATOM      6  C   UNL     1      44.986   6.082  11.485  0.00  0.00    +0.000 A 
ATOM      7  C   UNL     1      44.787   7.461  11.494  0.00  0.00    +0.000 A 
ATOM      8  C   UNL     1      45.585   8.280  12.294  0.00  0.00    +0.000 A 
BRANCH   6   9
ATOM      9  O   UNL     1      44.134   5.366  10.679  0.00  0.00    +0.000 OA
BRANCH   9  10
ATOM     10  C   UNL     1      44.627   4.382   9.849  0.00  0.00    +0.000 A 
ATOM     11  C   UNL     1      45.485   4.640   8.773  0.00  0.00    +0.000 A 
ATOM     12  C   UNL     1      45.912   3.601   7.945  0.00  0.00    +0.000 A 
ATOM     13  C   UNL     1      45.536   2.289   8.224  0.00  0.00    +0.000 A 
ATOM     14  C   UNL     1      44.745   2.012   9.339  0.00  0.00    +0.000 A 
ATOM     15  C   UNL     1      44.292   3.055  10.151  0.00  0.00    +0.000 A 
ATOM     16 CL   UNL     1      43.322   2.659  11.525  0.00  0.00    +0.000 Cl
ENDBRANCH   9  10
ENDBRANCH   6   9
ENDBRANCH   2   3
BRANCH   2  17
ATOM     17  N   UNL     1      48.217   7.709  14.882  0.00  0.00    +0.000 N 
ATOM     18  C   UNL     1      48.574   8.050  16.157  0.00  0.00    +0.000 C 
ATOM     19  O   UNL     1      48.254   9.132  16.647  0.00  0.00    +0.000 OA
ATOM     20  H   UNL     1      48.488   6.810  14.497  0.00  0.00    +0.000 HD
BRANCH  18  21
ATOM     21  C   UNL     1      49.362   7.068  16.922  0.00  0.00    +0.000 A 
ATOM     22  C   UNL     1      50.606   6.678  16.441  0.00  0.00    +0.000 A 
ATOM     23  S   UNL     1      51.385   5.507  17.401  0.00  0.00    +0.000 S 
ATOM     24  C   UNL     1      50.090   5.470  18.499  0.00  0.00    +0.000 A 
ATOM     25  N   UNL     1      50.114   4.630  19.570  0.00  0.00    +0.000 NA
ATOM     26  C   UNL     1      49.072   4.697  20.328  0.00  0.00    +0.000 A 
ATOM     27  N   UNL     1      48.014   5.542  20.120  0.00  0.00    +0.000 N 
ATOM     28  C   UNL     1      47.952   6.417  19.061  0.00  0.00    +0.000 A 
ATOM     29  O   UNL     1      46.994   7.173  18.926  0.00  0.00    +0.000 OA
ATOM     30  C   UNL     1      49.086   6.363  18.158  0.00  0.00    +0.000 A 
ATOM     31  H   UNL     1      47.235   5.562  20.759  0.00  0.00    +0.000 HD
ENDBRANCH  18  21
ENDBRANCH   2  17
TORSDOF 5
ENDMDL
MODEL 4
REMARK VINA RESULT:    -6.790      3.619      7.883
REMARK INTER + INTRA:         -10.139
REMARK INTER:                  -9.033
REMARK INTRA:                  -1.106
REMARK UNBOUND:                -1.365
REMARK  Name = 
REMARK  6 active torsions:
REMARK  status: ('A' for Active; 'I' for Inactive)
REMARK    1  A    between atoms: C_1  and  C_2
REMARK    2  A    between atoms: C_2  and  N_3
REMARK    3  A    between atoms: C_2  and  C_16
REMARK    4  A    between atoms: C_4  and  C_6
REMARK    5  A    between atoms: C_19  and  O_20
REMARK    6  A    between atoms: O_20  and  C_21
REMARK                            x       y       z     vdW  Elec       q    Type
REMARK                         _______ _______ _______ _____ _____    ______ ____
ROOT
ATOM      1  C   UNL     1      48.630   9.362  15.892  0.00  0.00    +0.000 C 
ATOM      2  C   UNL     1      48.928   8.041  15.173  0.00  0.00    +0.000 C 
ENDROOT
BRANCH   2   3
ATOM      3  C   UNL     1      49.434   6.951  16.101  0.00  0.00    +0.000 A 
ATOM      4  C   UNL     1      50.815   6.720  16.194  0.00  0.00    +0.000 A 
ATOM      5  C   UNL     1      51.316   5.706  17.014  0.00  0.00    +0.000 A 
ATOM      6  C   UNL     1      50.443   4.946  17.794  0.00  0.00    +0.000 A 
ATOM      7  C   UNL     1      49.068   5.121  17.661  0.00  0.00    +0.000 A 
ATOM      8  C   UNL     1      48.566   6.109  16.813  0.00  0.00    +0.000 A 
BRANCH   6   9
ATOM      9  O   UNL     1      50.833   3.960  18.669  0.00  0.00    +0.000 OA
BRANCH   9  10
ATOM     10  C   UNL     1      51.810   3.058  18.307  0.00  0.00    +0.000 A 
ATOM     11  C   UNL     1      53.132   3.128  18.764  0.00  0.00    +0.000 A 
ATOM     12  C   UNL     1      54.082   2.207  18.322  0.00  0.00    +0.000 A 
ATOM     13  C   UNL     1      53.704   1.170  17.472  0.00  0.00    +0.000 A 
ATOM     14  C   UNL     1      52.373   1.045  17.073  0.00  0.00    +0.000 A 
ATOM     15  C   UNL     1      51.428   1.985  17.491  0.00  0.00    +0.000 A 
ATOM     16 CL   UNL     1      49.790   1.781  16.976  0.00  0.00    +0.000 Cl
ENDBRANCH   9  10
ENDBRANCH   6   9
ENDBRANCH   2   3
BRANCH   2  17
ATOM     17  N   UNL     1      47.756   7.548  14.478  0.00  0.00    +0.000 N 
ATOM     18  C   UNL     1      47.818   6.742  13.376  0.00  0.00    +0.000 C 
ATOM     19  O   UNL     1      48.895   6.367  12.913  0.00  0.00    +0.000 OA
ATOM     20  H   UNL     1      46.857   7.844  14.846  0.00  0.00    +0.000 HD
BRANCH  18  21
ATOM     21  C   UNL     1      46.542   6.342  12.759  0.00  0.00    +0.000 A 
ATOM     22  C   UNL     1      45.737   7.315  12.178  0.00  0.00    +0.000 A 
ATOM     23  S   UNL     1      44.274   6.718  11.545  0.00  0.00    +0.000 S 
ATOM     24  C   UNL     1      44.652   5.134  12.024  0.00  0.00    +0.000 A 
ATOM     25  N   UNL     1      43.779   4.115  11.797  0.00  0.00    +0.000 NA
ATOM     26  C   UNL     1      44.183   2.960  12.207  0.00  0.00    +0.000 A 
ATOM     27  N   UNL     1      45.392   2.730  12.810  0.00  0.00    +0.000 N 
ATOM     28  C   UNL     1      46.311   3.725  13.048  0.00  0.00    +0.000 A 
ATOM     29  O   UNL     1      47.391   3.470  13.571  0.00  0.00    +0.000 OA
ATOM     30  C   UNL     1      45.895   5.051  12.633  0.00  0.00    +0.000 A 
ATOM     31  H   UNL     1      45.659   1.801  13.093  0.00  0.00    +0.000 HD
ENDBRANCH  18  21
ENDBRANCH   2  17
TORSDOF 5
ENDMDL
MODEL 5
REMARK VINA RESULT:    -6.734      1.637      2.104
REMARK INTER + INTRA:         -10.068
REMARK INTER:                  -8.708
REMARK INTRA:                  -1.360
REMARK UNBOUND:                -1.365
REMARK  Name = 
REMARK  6 active torsions:
REMARK  status: ('A' for Active; 'I' for Inactive)
REMARK    1  A    between atoms: C_1  and  C_2
REMARK    2  A    between atoms: C_2  and  N_3
REMARK    3  A    between atoms: C_2  and  C_16
REMARK    4  A    between atoms: C_4  and  C_6
REMARK    5  A    between atoms: C_19  and  O_20
REMARK    6  A    between atoms: O_20  and  C_21
REMARK                            x       y       z     vdW  Elec       q    Type
REMARK                         _______ _______ _______ _____ _____    ______ ____
ROOT
ATOM      1  C   UNL     1      49.975   8.070  13.137  0.00  0.00    +0.000 C 
ATOM      2  C   UNL     1      48.769   7.762  14.032  0.00  0.00    +0.000 C 
ENDROOT
BRANCH   2   3
ATOM      3  C   UNL     1      47.607   7.137  13.281  0.00  0.00    +0.000 A 
ATOM      4  C   UNL     1      46.852   7.934  12.405  0.00  0.00    +0.000 A 
ATOM      5  C   UNL     1      45.757   7.402  11.721  0.00  0.00    +0.000 A 
ATOM      6  C   UNL     1      45.436   6.051  11.861  0.00  0.00    +0.000 A 
ATOM      7  C   UNL     1      46.135   5.267  12.776  0.00  0.00    +0.000 A 
ATOM      8  C   UNL     1      47.206   5.809  13.489  0.00  0.00    +0.000 A 
BRANCH   6   9
ATOM      9  O   UNL     1      44.413   5.417  11.198  0.00  0.00    +0.000 OA
BRANCH   9  10
ATOM     10  C   UNL     1      44.691   4.527  10.183  0.00  0.00    +0.000 A 
ATOM     11  C   UNL     1      45.513   4.834   9.091  0.00  0.00    +0.000 A 
ATOM     12  C   UNL     1      45.716   3.900   8.075  0.00  0.00    +0.000 A 
ATOM     13  C   UNL     1      45.153   2.630   8.174  0.00  0.00    +0.000 A 
ATOM     14  C   UNL     1      44.397   2.287   9.295  0.00  0.00    +0.000 A 
ATOM     15  C   UNL     1      44.167   3.232  10.298  0.00  0.00    +0.000 A 
ATOM     16 CL   UNL     1      43.231   2.756  11.670  0.00  0.00    +0.000 Cl
ENDBRANCH   9  10
ENDBRANCH   6   9
ENDBRANCH   2   3
BRANCH   2  17
ATOM     17  N   UNL     1      49.139   6.883  15.123  0.00  0.00    +0.000 N 
ATOM     18  C   UNL     1      48.949   7.197  16.440  0.00  0.00    +0.000 C 
ATOM     19  O   UNL     1      48.427   8.258  16.779  0.00  0.00    +0.000 OA
ATOM     20  H   UNL     1      49.568   6.000  14.863  0.00  0.00    +0.000 HD
BRANCH  18  21
ATOM     21  C   UNL     1      49.401   6.214  17.439  0.00  0.00    +0.000 A 
ATOM     22  C   UNL     1      48.479   5.692  18.339  0.00  0.00    +0.000 A 
ATOM     23  S   UNL     1      49.148   4.603  19.464  0.00  0.00    +0.000 S 
ATOM     24  C   UNL     1      50.700   4.786  18.797  0.00  0.00    +0.000 A 
ATOM     25  N   UNL     1      51.765   4.127  19.331  0.00  0.00    +0.000 NA
ATOM     26  C   UNL     1      52.887   4.349  18.735  0.00  0.00    +0.000 A 
ATOM     27  N   UNL     1      53.038   5.160  17.641  0.00  0.00    +0.000 N 
ATOM     28  C   UNL     1      51.990   5.834  17.059  0.00  0.00    +0.000 A 
ATOM     29  O   UNL     1      52.166   6.533  16.065  0.00  0.00    +0.000 OA
ATOM     30  C   UNL     1      50.706   5.644  17.709  0.00  0.00    +0.000 A 
ATOM     31  H   UNL     1      53.939   5.280  17.207  0.00  0.00    +0.000 HD
ENDBRANCH  18  21
ENDBRANCH   2  17
TORSDOF 5
ENDMDL
MODEL 6
REMARK VINA RESULT:    -6.719      3.050      3.673
REMARK INTER + INTRA:         -10.048
REMARK INTER:                  -8.817
REMARK INTRA:                  -1.231
REMARK UNBOUND:                -1.365
REMARK  Name = 
REMARK  6 active torsions:
REMARK  status: ('A' for Active; 'I' for Inactive)
REMARK    1  A    between atoms: C_1  and  C_2
REMARK    2  A    between atoms: C_2  and  N_3
REMARK    3  A    between atoms: C_2  and  C_16
REMARK    4  A    between atoms: C_4  and  C_6
REMARK    5  A    between atoms: C_19  and  O_20
REMARK    6  A    between atoms: O_20  and  C_21
REMARK                            x       y       z     vdW  Elec       q    Type
REMARK                         _______ _______ _______ _____ _____    ______ ____
ROOT
ATOM      1  C   UNL     1      49.898   7.369  14.530  0.00  0.00    +0.000 C 
ATOM      2  C   UNL     1      48.607   8.190  14.433  0.00  0.00    +0.000 C 
ENDROOT
BRANCH   2   3
ATOM      3  C   UNL     1      47.498   7.484  13.674  0.00  0.00    +0.000 A 
ATOM      4  C   UNL     1      47.633   6.117  13.382  0.00  0.00    +0.000 A 
ATOM      5  C   UNL     1      46.649   5.441  12.659  0.00  0.00    +0.000 A 
ATOM      6  C   UNL     1      45.488   6.109  12.267  0.00  0.00    +0.000 A 
ATOM      7  C   UNL     1      45.371   7.479  12.493  0.00  0.00    +0.000 A 
ATOM      8  C   UNL     1      46.374   8.164  13.182  0.00  0.00    +0.000 A 
BRANCH   6   9
ATOM      9  O   UNL     1      44.438   5.528  11.598  0.00  0.00    +0.000 OA
BRANCH   9  10
ATOM     10  C   UNL     1      44.676   4.651  10.561  0.00  0.00    +0.000 A 
ATOM     11  C   UNL     1      45.352   5.010   9.388  0.00  0.00    +0.000 A 
ATOM     12  C   UNL     1      45.519   4.084   8.358  0.00  0.00    +0.000 A 
ATOM     13  C   UNL     1      45.070   2.775   8.518  0.00  0.00    +0.000 A 
ATOM     14  C   UNL     1      44.465   2.387   9.714  0.00  0.00    +0.000 A 
ATOM     15  C   UNL     1      44.269   3.322  10.733  0.00  0.00    +0.000 A 
ATOM     16 CL   UNL     1      43.523   2.789  12.198  0.00  0.00    +0.000 Cl
ENDBRANCH   9  10
ENDBRANCH   6   9
ENDBRANCH   2   3
BRANCH   2  17
ATOM     17  N   UNL     1      48.112   8.543  15.749  0.00  0.00    +0.000 N 
ATOM     18  C   UNL     1      48.512   9.659  16.429  0.00  0.00    +0.000 C 
ATOM     19  O   UNL     1      49.317  10.453  15.945  0.00  0.00    +0.000 OA
ATOM     20  H   UNL     1      47.444   7.902  16.165  0.00  0.00    +0.000 HD
BRANCH  18  21
ATOM     21  C   UNL     1      47.942   9.872  17.771  0.00  0.00    +0.000 A 
ATOM     22  C   UNL     1      47.470  11.133  18.113  0.00  0.00    +0.000 A 
ATOM     23  S   UNL     1      46.881  11.245  19.707  0.00  0.00    +0.000 S 
ATOM     24  C   UNL     1      47.234   9.611  20.007  0.00  0.00    +0.000 A 
ATOM     25  N   UNL     1      46.990   9.064  21.229  0.00  0.00    +0.000 NA
ATOM     26  C   UNL     1      47.301   7.815  21.330  0.00  0.00    +0.000 A 
ATOM     27  N   UNL     1      47.821   7.060  20.312  0.00  0.00    +0.000 N 
ATOM     28  C   UNL     1      48.072   7.566  19.058  0.00  0.00    +0.000 A 
ATOM     29  O   UNL     1      48.517   6.848  18.168  0.00  0.00    +0.000 OA
ATOM     30  C   UNL     1      47.768   8.976  18.897  0.00  0.00    +0.000 A 
ATOM     31  H   UNL     1      48.027   6.084  20.446  0.00  0.00    +0.000 HD
ENDBRANCH  18  21
ENDBRANCH   2  17
TORSDOF 5
ENDMDL
MODEL 7
REMARK VINA RESULT:    -6.565      2.897      4.165
REMARK INTER + INTRA:          -9.848
REMARK INTER:                  -8.595
REMARK INTRA:                  -1.254
REMARK UNBOUND:                -1.365
REMARK  Name = 
REMARK  6 active torsions:
REMARK  status: ('A' for Active; 'I' for Inactive)
REMARK    1  A    between atoms: C_1  and  C_2
REMARK    2  A    between atoms: C_2  and  N_3
REMARK    3  A    between atoms: C_2  and  C_16
REMARK    4  A    between atoms: C_4  and  C_6
REMARK    5  A    between atoms: C_19  and  O_20
REMARK    6  A    between atoms: O_20  and  C_21
REMARK                            x       y       z     vdW  Elec       q    Type
REMARK                         _______ _______ _______ _____ _____    ______ ____
ROOT
ATOM      1  C   UNL     1      48.277   5.051  16.296  0.00  0.00    +0.000 C 
ATOM      2  C   UNL     1      48.327   6.117  15.196  0.00  0.00    +0.000 C 
ENDROOT
BRANCH   2   3
ATOM      3  C   UNL     1      47.314   5.887  14.088  0.00  0.00    +0.000 A 
ATOM      4  C   UNL     1      47.142   6.873  13.104  0.00  0.00    +0.000 A 
ATOM      5  C   UNL     1      46.199   6.710  12.087  0.00  0.00    +0.000 A 
ATOM      6  C   UNL     1      45.453   5.533  12.009  0.00  0.00    +0.000 A 
ATOM      7  C   UNL     1      45.568   4.576  13.015  0.00  0.00    +0.000 A 
ATOM      8  C   UNL     1      46.484   4.756  14.053  0.00  0.00    +0.000 A 
BRANCH   6   9
ATOM      9  O   UNL     1      44.538   5.250  11.024  0.00  0.00    +0.000 OA
BRANCH   9  10
ATOM     10  C   UNL     1      44.872   4.404   9.988  0.00  0.00    +0.000 A 
ATOM     11  C   UNL     1      45.726   4.770   8.940  0.00  0.00    +0.000 A 
ATOM     12  C   UNL     1      45.987   3.879   7.898  0.00  0.00    +0.000 A 
ATOM     13  C   UNL     1      45.448   2.595   7.929  0.00  0.00    +0.000 A 
ATOM     14  C   UNL     1      44.659   2.195   9.007  0.00  0.00    +0.000 A 
ATOM     15  C   UNL     1      44.373   3.096  10.036  0.00  0.00    +0.000 A 
ATOM     16 CL   UNL     1      43.398   2.549  11.354  0.00  0.00    +0.000 Cl
ENDBRANCH   9  10
ENDBRANCH   6   9
ENDBRANCH   2   3
BRANCH   2  17
ATOM     17  N   UNL     1      48.119   7.443  15.742  0.00  0.00    +0.000 N 
ATOM     18  C   UNL     1      49.135   8.325  15.984  0.00  0.00    +0.000 C 
ATOM     19  O   UNL     1      50.305   8.043  15.730  0.00  0.00    +0.000 OA
ATOM     20  H   UNL     1      47.159   7.696  15.955  0.00  0.00    +0.000 HD
BRANCH  18  21
ATOM     21  C   UNL     1      48.772   9.628  16.568  0.00  0.00    +0.000 A 
ATOM     22  C   UNL     1      49.163  10.793  15.918  0.00  0.00    +0.000 A 
ATOM     23  S   UNL     1      48.715  12.222  16.727  0.00  0.00    +0.000 S 
ATOM     24  C   UNL     1      47.981  11.344  17.982  0.00  0.00    +0.000 A 
ATOM     25  N   UNL     1      47.413  11.989  19.038  0.00  0.00    +0.000 NA
ATOM     26  C   UNL     1      46.890  11.210  19.924  0.00  0.00    +0.000 A 
ATOM     27  N   UNL     1      46.869   9.842  19.840  0.00  0.00    +0.000 N 
ATOM     28  C   UNL     1      47.418   9.149  18.788  0.00  0.00    +0.000 A 
ATOM     29  O   UNL     1      47.358   7.924  18.743  0.00  0.00    +0.000 OA
ATOM     30  C   UNL     1      48.048   9.975  17.775  0.00  0.00    +0.000 A 
ATOM     31  H   UNL     1      46.429   9.288  20.557  0.00  0.00    +0.000 HD
ENDBRANCH  18  21
ENDBRANCH   2  17
TORSDOF 5
ENDMDL
MODEL 8
REMARK VINA RESULT:    -6.505      3.387      5.409
REMARK INTER + INTRA:          -9.772
REMARK INTER:                  -8.616
REMARK INTRA:                  -1.156
REMARK UNBOUND:                -1.365
REMARK  Name = 
REMARK  6 active torsions:
REMARK  status: ('A' for Active; 'I' for Inactive)
REMARK    1  A    between atoms: C_1  and  C_2
REMARK    2  A    between atoms: C_2  and  N_3
REMARK    3  A    between atoms: C_2  and  C_16
REMARK    4  A    between atoms: C_4  and  C_6
REMARK    5  A    between atoms: C_19  and  O_20
REMARK    6  A    between atoms: O_20  and  C_21
REMARK                            x       y       z     vdW  Elec       q    Type
REMARK                         _______ _______ _______ _____ _____    ______ ____
ROOT
ATOM      1  C   UNL     1      44.628   4.457  13.029  0.00  0.00    +0.000 C 
ATOM      2  C   UNL     1      45.898   5.316  13.059  0.00  0.00    +0.000 C 
ENDROOT
BRANCH   2   3
ATOM      3  C   UNL     1      45.649   6.772  12.707  0.00  0.00    +0.000 A 
ATOM      4  C   UNL     1      44.691   7.084  11.729  0.00  0.00    +0.000 A 
ATOM      5  C   UNL     1      44.456   8.410  11.358  0.00  0.00    +0.000 A 
ATOM      6  C   UNL     1      45.137   9.445  12.000  0.00  0.00    +0.000 A 
ATOM      7  C   UNL     1      46.135   9.145  12.924  0.00  0.00    +0.000 A 
ATOM      8  C   UNL     1      46.397   7.818  13.267  0.00  0.00    +0.000 A 
BRANCH   6   9
ATOM      9  O   UNL     1      44.946  10.782  11.747  0.00  0.00    +0.000 OA
BRANCH   9  10
ATOM     10  C   UNL     1      45.524  11.369  10.641  0.00  0.00    +0.000 A 
ATOM     11  C   UNL     1      46.883  11.699  10.566  0.00  0.00    +0.000 A 
ATOM     12  C   UNL     1      47.394  12.333   9.433  0.00  0.00    +0.000 A 
ATOM     13  C   UNL     1      46.565  12.584   8.342  0.00  0.00    +0.000 A 
ATOM     14  C   UNL     1      45.228  12.189   8.376  0.00  0.00    +0.000 A 
ATOM     15  C   UNL     1      44.708  11.581   9.522  0.00  0.00    +0.000 A 
ATOM     16 CL   UNL     1      43.047  11.103   9.512  0.00  0.00    +0.000 Cl
ENDBRANCH   9  10
ENDBRANCH   6   9
ENDBRANCH   2   3
BRANCH   2  17
ATOM     17  N   UNL     1      46.538   5.259  14.358  0.00  0.00    +0.000 N 
ATOM     18  C   UNL     1      47.200   4.157  14.823  0.00  0.00    +0.000 C 
ATOM     19  O   UNL     1      47.307   3.137  14.144  0.00  0.00    +0.000 OA
ATOM     20  H   UNL     1      46.463   6.093  14.933  0.00  0.00    +0.000 HD
BRANCH  18  21
ATOM     21  C   UNL     1      47.777   4.238  16.176  0.00  0.00    +0.000 A 
ATOM     22  C   UNL     1      47.427   3.279  17.119  0.00  0.00    +0.000 A 
ATOM     23  S   UNL     1      48.133   3.522  18.650  0.00  0.00    +0.000 S 
ATOM     24  C   UNL     1      48.935   4.921  18.116  0.00  0.00    +0.000 A 
ATOM     25  N   UNL     1      49.709   5.644  18.971  0.00  0.00    +0.000 NA
ATOM     26  C   UNL     1      50.263   6.683  18.445  0.00  0.00    +0.000 A 
ATOM     27  N   UNL     1      50.125   7.057  17.134  0.00  0.00    +0.000 N 
ATOM     28  C   UNL     1      49.365   6.351  16.231  0.00  0.00    +0.000 A 
ATOM     29  O   UNL     1      49.288   6.709  15.060  0.00  0.00    +0.000 OA
ATOM     30  C   UNL     1      48.694   5.187  16.777  0.00  0.00    +0.000 A 
ATOM     31  H   UNL     1      50.599   7.871  16.776  0.00  0.00    +0.000 HD
ENDBRANCH  18  21
ENDBRANCH   2  17
TORSDOF 5
ENDMDL
MODEL 9
REMARK VINA RESULT:    -6.411      3.521      5.544
REMARK INTER + INTRA:          -9.649
REMARK INTER:                  -8.454
REMARK INTRA:                  -1.195
REMARK UNBOUND:                -1.365
REMARK  Name = 
REMARK  6 active torsions:
REMARK  status: ('A' for Active; 'I' for Inactive)
REMARK    1  A    between atoms: C_1  and  C_2
REMARK    2  A    between atoms: C_2  and  N_3
REMARK    3  A    between atoms: C_2  and  C_16
REMARK    4  A    between atoms: C_4  and  C_6
REMARK    5  A    between atoms: C_19  and  O_20
REMARK    6  A    between atoms: O_20  and  C_21
REMARK                            x       y       z     vdW  Elec       q    Type
REMARK                         _______ _______ _______ _____ _____    ______ ____
ROOT
ATOM      1  C   UNL     1      44.420   4.313  12.965  0.00  0.00    +0.000 C 
ATOM      2  C   UNL     1      45.667   5.204  12.925  0.00  0.00    +0.000 C 
ENDROOT
BRANCH   2   3
ATOM      3  C   UNL     1      45.374   6.631  12.495  0.00  0.00    +0.000 A 
ATOM      4  C   UNL     1      44.412   6.860  11.499  0.00  0.00    +0.000 A 
ATOM      5  C   UNL     1      44.137   8.156  11.056  0.00  0.00    +0.000 A 
ATOM      6  C   UNL     1      44.783   9.245  11.643  0.00  0.00    +0.000 A 
ATOM      7  C   UNL     1      45.785   9.027  12.585  0.00  0.00    +0.000 A 
ATOM      8  C   UNL     1      46.087   7.728  13.000  0.00  0.00    +0.000 A 
BRANCH   6   9
ATOM      9  O   UNL     1      44.551  10.560  11.319  0.00  0.00    +0.000 OA
BRANCH   9  10
ATOM     10  C   UNL     1      43.296  10.965  10.916  0.00  0.00    +0.000 A 
ATOM     11  C   UNL     1      42.199  11.051  11.781  0.00  0.00    +0.000 A 
ATOM     12  C   UNL     1      40.945  11.425  11.298  0.00  0.00    +0.000 A 
ATOM     13  C   UNL     1      40.792  11.779   9.959  0.00  0.00    +0.000 A 
ATOM     14  C   UNL     1      41.896  11.771   9.105  0.00  0.00    +0.000 A 
ATOM     15  C   UNL     1      43.145  11.367   9.582  0.00  0.00    +0.000 A 
ATOM     16 CL   UNL     1      44.482  11.384   8.487  0.00  0.00    +0.000 Cl
ENDBRANCH   9  10
ENDBRANCH   6   9
ENDBRANCH   2   3
BRANCH   2  17
ATOM     17  N   UNL     1      46.327   5.238  14.214  0.00  0.00    +0.000 N 
ATOM     18  C   UNL     1      47.078   4.206  14.703  0.00  0.00    +0.000 C 
ATOM     19  O   UNL     1      47.253   3.175  14.054  0.00  0.00    +0.000 OA
ATOM     20  H   UNL     1      46.196   6.082  14.764  0.00  0.00    +0.000 HD
BRANCH  18  21
ATOM     21  C   UNL     1      47.665   4.374  16.043  0.00  0.00    +0.000 A 
ATOM     22  C   UNL     1      47.336   3.469  17.045  0.00  0.00    +0.000 A 
ATOM     23  S   UNL     1      48.052   3.810  18.552  0.00  0.00    +0.000 S 
ATOM     24  C   UNL     1      48.831   5.185  17.928  0.00  0.00    +0.000 A 
ATOM     25  N   UNL     1      49.602   5.967  18.732  0.00  0.00    +0.000 NA
ATOM     26  C   UNL     1      50.138   6.981  18.140  0.00  0.00    +0.000 A 
ATOM     27  N   UNL     1      49.984   7.274  16.810  0.00  0.00    +0.000 N 
ATOM     28  C   UNL     1      49.226   6.506  15.958  0.00  0.00    +0.000 A 
ATOM     29  O   UNL     1      49.134   6.793  14.768  0.00  0.00    +0.000 OA
ATOM     30  C   UNL     1      48.574   5.368  16.578  0.00  0.00    +0.000 A 
ATOM     31  H   UNL     1      50.444   8.071  16.401  0.00  0.00    +0.000 HD
ENDBRANCH  18  21
ENDBRANCH   2  17
TORSDOF 5
ENDMDL
