MODEL 1
REMARK VINA RESULT:    -8.135      0.000      0.000
REMARK INTER + INTRA:         -12.659
REMARK INTER:                 -11.702
REMARK INTRA:                  -0.957
REMARK UNBOUND:                -0.957
REMARK  Name = 
REMARK  8 active torsions:
REMARK  status: ('A' for Active; 'I' for Inactive)
REMARK    1  A    between atoms: N_1  and  C_2
REMARK    2  A    between atoms: C_2  and  C_3
REMARK    3  A    between atoms: C_2  and  C_24
REMARK    4  A    between atoms: C_3  and  C_4
REMARK    5  A    between atoms: C_7  and  C_8
REMARK    6  A    between atoms: C_8  and  N_9
REMARK    7  A    between atoms: C_10  and  C_12
REMARK    8  A    between atoms: C_24  and  C_26
REMARK                            x       y       z     vdW  Elec       q    Type
REMARK                         _______ _______ _______ _____ _____    ______ ____
ROOT
ATOM      1  C   UNL     1      45.542   4.733  12.047  0.00  0.00    +0.000 A 
ATOM      2  C   UNL     1      46.061   5.925  11.525  0.00  0.00    +0.000 A 
ATOM      3  C   UNL     1      47.056   6.627  12.210  0.00  0.00    +0.000 A 
ATOM      4  C   UNL     1      47.557   6.146  13.425  0.00  0.00    +0.000 A 
ATOM      5  C   UNL     1      47.007   4.979  13.969  0.00  0.00    +0.000 A 
ATOM      6  C   UNL     1      46.013   4.277  13.286  0.00  0.00    +0.000 A 
ENDROOT
BRANCH   1   7
ATOM      7  C   UNL     1      44.534   3.928  11.259  0.00  0.00    +0.000 C 
BRANCH   7   8
ATOM      8  C   UNL     1      44.721   3.968   9.727  0.00  0.00    +0.000 C 
BRANCH   8   9
ATOM      9  N   UNL     1      43.635   4.704   9.045  0.00  0.00    +0.000 NA
ATOM     10  H   UNL     1      43.843   4.783   8.053  0.00  0.00    +0.000 HD
ATOM     11  H   UNL     1      43.642   5.662   9.414  0.00  0.00    +0.000 HD
ENDBRANCH   8   9
BRANCH   8  12
ATOM     12  C   UNL     1      44.845   2.553   9.118  0.00  0.00    +0.000 C 
ATOM     13  O   UNL     1      44.045   1.652   9.394  0.00  0.00    +0.000 OA
BRANCH  12  14
ATOM     14  C   UNL     1      45.966   2.237   8.178  0.00  0.00    +0.000 A 
ATOM     15  C   UNL     1      46.634   3.210   7.434  0.00  0.00    +0.000 A 
ATOM     16  C   UNL     1      47.609   2.799   6.538  0.00  0.00    +0.000 A 
ATOM     17  N   UNL     1      47.976   1.515   6.365  0.00  0.00    +0.000 NA
ATOM     18  C   UNL     1      47.340   0.591   7.113  0.00  0.00    +0.000 A 
ATOM     19  C   UNL     1      46.340   0.898   8.018  0.00  0.00    +0.000 A 
ENDBRANCH  12  14
ENDBRANCH   8  12
ENDBRANCH   7   8
ENDBRANCH   1   7
BRANCH   4  20
ATOM     20  C   UNL     1      48.659   6.872  14.152  0.00  0.00    +0.000 C 
BRANCH  20  21
ATOM     21  N   UNL     1      48.343   7.036  15.546  0.00  0.00    +0.000 N 
ATOM     22  C   UNL     1      49.206   6.612  16.523  0.00  0.00    +0.000 C 
ATOM     23  O   UNL     1      50.293   6.104  16.264  0.00  0.00    +0.000 OA
ATOM     24  H   UNL     1      47.371   7.208  15.781  0.00  0.00    +0.000 HD
BRANCH  22  25
ATOM     25  C   UNL     1      48.786   6.860  17.907  0.00  0.00    +0.000 A 
ATOM     26  C   UNL     1      48.453   8.147  18.307  0.00  0.00    +0.000 A 
ATOM     27  S   UNL     1      47.955   8.248  19.936  0.00  0.00    +0.000 S 
ATOM     28  C   UNL     1      48.211   6.582  20.175  0.00  0.00    +0.000 A 
ATOM     29  N   UNL     1      48.001   6.010  21.388  0.00  0.00    +0.000 NA
ATOM     30  C   UNL     1      48.261   4.744  21.436  0.00  0.00    +0.000 A 
ATOM     31  N   UNL     1      48.707   4.001  20.376  0.00  0.00    +0.000 N 
ATOM     32  C   UNL     1      48.898   4.528  19.121  0.00  0.00    +0.000 A 
ATOM     33  O   UNL     1      49.233   3.819  18.178  0.00  0.00    +0.000 OA
ATOM     34  C   UNL     1      48.645   5.951  19.021  0.00  0.00    +0.000 A 
ATOM     35  H   UNL     1      48.876   3.009  20.475  0.00  0.00    +0.000 HD
ENDBRANCH  22  25
ENDBRANCH  20  21
ENDBRANCH   4  20
TORSDOF 8
ENDMDL
MODEL 2
REMARK VINA RESULT:    -7.928      1.258      1.885
REMARK INTER + INTRA:         -12.361
REMARK INTER:                 -11.252
REMARK INTRA:                  -1.108
REMARK UNBOUND:                -0.957
REMARK  Name = 
REMARK  8 active torsions:
REMARK  status: ('A' for Active; 'I' for Inactive)
REMARK    1  A    between atoms: N_1  and  C_2
REMARK    2  A    between atoms: C_2  and  C_3
REMARK    3  A    between atoms: C_2  and  C_24
REMARK    4  A    between atoms: C_3  and  C_4
REMARK    5  A    between atoms: C_7  and  C_8
REMARK    6  A    between atoms: C_8  and  N_9
REMARK    7  A    between atoms: C_10  and  C_12
REMARK    8  A    between atoms: C_24  and  C_26
REMARK                            x       y       z     vdW  Elec       q    Type
REMARK                         _______ _______ _______ _____ _____    ______ ____
ROOT
ATOM      1  C   UNL     1      45.444   4.504  12.165  0.00  0.00    +0.000 A 
ATOM      2  C   UNL     1      45.754   5.839  11.877  0.00  0.00    +0.000 A 
ATOM      3  C   UNL     1      46.692   6.533  12.645  0.00  0.00    +0.000 A 
ATOM      4  C   UNL     1      47.346   5.901  13.710  0.00  0.00    +0.000 A 
ATOM      5  C   UNL     1      47.003   4.581  14.026  0.00  0.00    +0.000 A 
ATOM      6  C   UNL     1      46.066   3.888  13.260  0.00  0.00    +0.000 A 
ENDROOT
BRANCH   1   7
ATOM      7  C   UNL     1      44.499   3.729  11.276  0.00  0.00    +0.000 C 
BRANCH   7   8
ATOM      8  C   UNL     1      44.751   3.887   9.761  0.00  0.00    +0.000 C 
BRANCH   8   9
ATOM      9  N   UNL     1      43.715   4.712   9.100  0.00  0.00    +0.000 NA
ATOM     10  H   UNL     1      43.968   4.864   8.127  0.00  0.00    +0.000 HD
ATOM     11  H   UNL     1      43.735   5.635   9.546  0.00  0.00    +0.000 HD
ENDBRANCH   8   9
BRANCH   8  12
ATOM     12  C   UNL     1      44.859   2.523   9.042  0.00  0.00    +0.000 C 
ATOM     13  O   UNL     1      44.035   1.621   9.229  0.00  0.00    +0.000 OA
BRANCH  12  14
ATOM     14  C   UNL     1      45.994   2.260   8.102  0.00  0.00    +0.000 A 
ATOM     15  C   UNL     1      46.609   3.261   7.349  0.00  0.00    +0.000 A 
ATOM     16  C   UNL     1      47.602   2.895   6.454  0.00  0.00    +0.000 A 
ATOM     17  N   UNL     1      48.036   1.630   6.290  0.00  0.00    +0.000 NA
ATOM     18  C   UNL     1      47.450   0.680   7.047  0.00  0.00    +0.000 A 
ATOM     19  C   UNL     1      46.436   0.940   7.952  0.00  0.00    +0.000 A 
ENDBRANCH  12  14
ENDBRANCH   8  12
ENDBRANCH   7   8
ENDBRANCH   1   7
BRANCH   4  20
ATOM     20  C   UNL     1      48.390   6.625  14.519  0.00  0.00    +0.000 C 
BRANCH  20  21
ATOM     21  N   UNL     1      48.188   6.423  15.929  0.00  0.00    +0.000 N 
ATOM     22  C   UNL     1      49.212   6.006  16.739  0.00  0.00    +0.000 C 
ATOM     23  O   UNL     1      50.348   5.813  16.315  0.00  0.00    +0.000 OA
ATOM     24  H   UNL     1      47.230   6.326  16.248  0.00  0.00    +0.000 HD
BRANCH  22  25
ATOM     25  C   UNL     1      48.891   5.863  18.164  0.00  0.00    +0.000 A 
ATOM     26  C   UNL     1      49.116   4.652  18.804  0.00  0.00    +0.000 A 
ATOM     27  S   UNL     1      48.721   4.674  20.464  0.00  0.00    +0.000 S 
ATOM     28  C   UNL     1      48.193   6.289  20.374  0.00  0.00    +0.000 A 
ATOM     29  N   UNL     1      47.688   6.922  21.464  0.00  0.00    +0.000 NA
ATOM     30  C   UNL     1      47.299   8.136  21.248  0.00  0.00    +0.000 A 
ATOM     31  N   UNL     1      47.376   8.773  20.038  0.00  0.00    +0.000 N 
ATOM     32  C   UNL     1      47.913   8.188  18.917  0.00  0.00    +0.000 A 
ATOM     33  O   UNL     1      48.029   8.812  17.868  0.00  0.00    +0.000 OA
ATOM     34  C   UNL     1      48.341   6.815  19.101  0.00  0.00    +0.000 A 
ATOM     35  H   UNL     1      47.070   9.731  19.939  0.00  0.00    +0.000 HD
ENDBRANCH  22  25
ENDBRANCH  20  21
ENDBRANCH   4  20
TORSDOF 8
ENDMDL
MODEL 3
REMARK VINA RESULT:    -7.748      2.009      2.267
REMARK INTER + INTRA:         -12.102
REMARK INTER:                 -11.196
REMARK INTRA:                  -0.906
REMARK UNBOUND:                -0.957
REMARK  Name = 
REMARK  8 active torsions:
REMARK  status: ('A' for Active; 'I' for Inactive)
REMARK    1  A    between atoms: N_1  and  C_2
REMARK    2  A    between atoms: C_2  and  C_3
REMARK    3  A    between atoms: C_2  and  C_24
REMARK    4  A    between atoms: C_3  and  C_4
REMARK    5  A    between atoms: C_7  and  C_8
REMARK    6  A    between atoms: C_8  and  N_9
REMARK    7  A    between atoms: C_10  and  C_12
REMARK    8  A    between atoms: C_24  and  C_26
REMARK                            x       y       z     vdW  Elec       q    Type
REMARK                         _______ _______ _______ _____ _____    ______ ____
ROOT
ATOM      1  C   UNL     1      44.818   5.454  10.927  0.00  0.00    +0.000 A 
ATOM      2  C   UNL     1      46.030   5.966  10.448  0.00  0.00    +0.000 A 
ATOM      3  C   UNL     1      46.818   6.795  11.250  0.00  0.00    +0.000 A 
ATOM      4  C   UNL     1      46.414   7.120  12.550  0.00  0.00    +0.000 A 
ATOM      5  C   UNL     1      45.180   6.645  13.012  0.00  0.00    +0.000 A 
ATOM      6  C   UNL     1      44.392   5.817  12.212  0.00  0.00    +0.000 A 
ENDROOT
BRANCH   1   7
ATOM      7  C   UNL     1      44.014   4.484  10.092  0.00  0.00    +0.000 C 
BRANCH   7   8
ATOM      8  C   UNL     1      44.188   2.997  10.470  0.00  0.00    +0.000 C 
BRANCH   8   9
ATOM      9  N   UNL     1      45.262   2.790  11.466  0.00  0.00    +0.000 NA
ATOM     10  H   UNL     1      44.994   3.211  12.352  0.00  0.00    +0.000 HD
ATOM     11  H   UNL     1      46.081   3.314  11.139  0.00  0.00    +0.000 HD
ENDBRANCH   8   9
BRANCH   8  12
ATOM     12  C   UNL     1      44.454   2.109   9.234  0.00  0.00    +0.000 C 
ATOM     13  O   UNL     1      43.727   1.151   8.950  0.00  0.00    +0.000 OA
BRANCH  12  14
ATOM     14  C   UNL     1      45.630   2.388   8.351  0.00  0.00    +0.000 A 
ATOM     15  C   UNL     1      45.884   3.641   7.791  0.00  0.00    +0.000 A 
ATOM     16  C   UNL     1      46.961   3.770   6.928  0.00  0.00    +0.000 A 
ATOM     17  N   UNL     1      47.801   2.764   6.620  0.00  0.00    +0.000 NA
ATOM     18  C   UNL     1      47.557   1.567   7.191  0.00  0.00    +0.000 A 
ATOM     19  C   UNL     1      46.497   1.331   8.048  0.00  0.00    +0.000 A 
ENDBRANCH  12  14
ENDBRANCH   8  12
ENDBRANCH   7   8
ENDBRANCH   1   7
BRANCH   4  20
ATOM     20  C   UNL     1      47.274   7.978  13.439  0.00  0.00    +0.000 C 
BRANCH  20  21
ATOM     21  N   UNL     1      47.614   7.290  14.656  0.00  0.00    +0.000 N 
ATOM     22  C   UNL     1      48.890   6.843  14.886  0.00  0.00    +0.000 C 
ATOM     23  O   UNL     1      49.805   7.030  14.088  0.00  0.00    +0.000 OA
ATOM     24  H   UNL     1      46.847   6.905  15.198  0.00  0.00    +0.000 HD
BRANCH  22  25
ATOM     25  C   UNL     1      49.120   6.182  16.175  0.00  0.00    +0.000 A 
ATOM     26  C   UNL     1      50.113   6.651  17.024  0.00  0.00    +0.000 A 
ATOM     27  S   UNL     1      50.220   5.788  18.492  0.00  0.00    +0.000 S 
ATOM     28  C   UNL     1      48.973   4.729  18.025  0.00  0.00    +0.000 A 
ATOM     29  N   UNL     1      48.583   3.710  18.831  0.00  0.00    +0.000 NA
ATOM     30  C   UNL     1      47.645   2.966  18.341  0.00  0.00    +0.000 A 
ATOM     31  N   UNL     1      47.061   3.157  17.118  0.00  0.00    +0.000 N 
ATOM     32  C   UNL     1      47.396   4.196  16.283  0.00  0.00    +0.000 A 
ATOM     33  O   UNL     1      46.804   4.377  15.224  0.00  0.00    +0.000 OA
ATOM     34  C   UNL     1      48.462   5.045  16.777  0.00  0.00    +0.000 A 
ATOM     35  H   UNL     1      46.320   2.548  16.799  0.00  0.00    +0.000 HD
ENDBRANCH  22  25
ENDBRANCH  20  21
ENDBRANCH   4  20
TORSDOF 8
ENDMDL
MODEL 4
REMARK VINA RESULT:    -7.635      3.054      3.866
REMARK INTER + INTRA:         -11.939
REMARK INTER:                 -10.900
REMARK INTRA:                  -1.039
REMARK UNBOUND:                -0.957
REMARK  Name = 
REMARK  8 active torsions:
REMARK  status: ('A' for Active; 'I' for Inactive)
REMARK    1  A    between atoms: N_1  and  C_2
REMARK    2  A    between atoms: C_2  and  C_3
REMARK    3  A    between atoms: C_2  and  C_24
REMARK    4  A    between atoms: C_3  and  C_4
REMARK    5  A    between atoms: C_7  and  C_8
REMARK    6  A    between atoms: C_8  and  N_9
REMARK    7  A    between atoms: C_10  and  C_12
REMARK    8  A    between atoms: C_24  and  C_26
REMARK                            x       y       z     vdW  Elec       q    Type
REMARK                         _______ _______ _______ _____ _____    ______ ____
ROOT
ATOM      1  C   UNL     1      46.746   4.906  13.605  0.00  0.00    +0.000 A 
ATOM      2  C   UNL     1      47.374   6.105  13.245  0.00  0.00    +0.000 A 
ATOM      3  C   UNL     1      48.218   6.762  14.143  0.00  0.00    +0.000 A 
ATOM      4  C   UNL     1      48.457   6.230  15.414  0.00  0.00    +0.000 A 
ATOM      5  C   UNL     1      47.793   5.056  15.792  0.00  0.00    +0.000 A 
ATOM      6  C   UNL     1      46.950   4.398  14.896  0.00  0.00    +0.000 A 
ENDROOT
BRANCH   1   7
ATOM      7  C   UNL     1      45.908   4.148  12.600  0.00  0.00    +0.000 C 
BRANCH   7   8
ATOM      8  C   UNL     1      44.425   4.572  12.535  0.00  0.00    +0.000 C 
BRANCH   8   9
ATOM      9  N   UNL     1      43.543   3.658  13.293  0.00  0.00    +0.000 NA
ATOM     10  H   UNL     1      43.841   2.696  13.149  0.00  0.00    +0.000 HD
ATOM     11  H   UNL     1      42.607   3.731  12.881  0.00  0.00    +0.000 HD
ENDBRANCH   8   9
BRANCH   8  12
ATOM     12  C   UNL     1      43.916   4.689  11.080  0.00  0.00    +0.000 C 
ATOM     13  O   UNL     1      42.909   5.344  10.792  0.00  0.00    +0.000 OA
BRANCH  12  14
ATOM     14  C   UNL     1      44.639   3.984   9.975  0.00  0.00    +0.000 A 
ATOM     15  C   UNL     1      45.430   4.646   9.036  0.00  0.00    +0.000 A 
ATOM     16  C   UNL     1      45.995   3.904   8.011  0.00  0.00    +0.000 A 
ATOM     17  N   UNL     1      45.854   2.571   7.883  0.00  0.00    +0.000 NA
ATOM     18  C   UNL     1      45.110   1.943   8.815  0.00  0.00    +0.000 A 
ATOM     19  C   UNL     1      44.487   2.596   9.864  0.00  0.00    +0.000 A 
ENDBRANCH  12  14
ENDBRANCH   8  12
ENDBRANCH   7   8
ENDBRANCH   1   7
BRANCH   4  20
ATOM     20  C   UNL     1      49.398   6.908  16.376  0.00  0.00    +0.000 C 
BRANCH  20  21
ATOM     21  N   UNL     1      50.447   6.016  16.794  0.00  0.00    +0.000 N 
ATOM     22  C   UNL     1      50.456   5.472  18.052  0.00  0.00    +0.000 C 
ATOM     23  O   UNL     1      49.565   5.690  18.868  0.00  0.00    +0.000 OA
ATOM     24  H   UNL     1      51.303   6.025  16.249  0.00  0.00    +0.000 HD
BRANCH  22  25
ATOM     25  C   UNL     1      51.562   4.556  18.351  0.00  0.00    +0.000 A 
ATOM     26  C   UNL     1      52.676   5.019  19.037  0.00  0.00    +0.000 A 
ATOM     27  S   UNL     1      53.848   3.814  19.330  0.00  0.00    +0.000 S 
ATOM     28  C   UNL     1      52.927   2.641  18.510  0.00  0.00    +0.000 A 
ATOM     29  N   UNL     1      53.382   1.371  18.363  0.00  0.00    +0.000 NA
ATOM     30  C   UNL     1      52.596   0.591  17.696  0.00  0.00    +0.000 A 
ATOM     31  N   UNL     1      51.391   0.971  17.167  0.00  0.00    +0.000 N 
ATOM     32  C   UNL     1      50.871   2.234  17.321  0.00  0.00    +0.000 A 
ATOM     33  O   UNL     1      49.758   2.519  16.893  0.00  0.00    +0.000 OA
ATOM     34  C   UNL     1      51.728   3.154  18.042  0.00  0.00    +0.000 A 
ATOM     35  H   UNL     1      50.814   0.307  16.669  0.00  0.00    +0.000 HD
ENDBRANCH  22  25
ENDBRANCH  20  21
ENDBRANCH   4  20
TORSDOF 8
ENDMDL
MODEL 5
REMARK VINA RESULT:    -7.570      3.553      8.752
REMARK INTER + INTRA:         -11.846
REMARK INTER:                 -10.265
REMARK INTRA:                  -1.581
REMARK UNBOUND:                -0.957
REMARK  Name = 
REMARK  8 active torsions:
REMARK  status: ('A' for Active; 'I' for Inactive)
REMARK    1  A    between atoms: N_1  and  C_2
REMARK    2  A    between atoms: C_2  and  C_3
REMARK    3  A    between atoms: C_2  and  C_24
REMARK    4  A    between atoms: C_3  and  C_4
REMARK    5  A    between atoms: C_7  and  C_8
REMARK    6  A    between atoms: C_8  and  N_9
REMARK    7  A    between atoms: C_10  and  C_12
REMARK    8  A    between atoms: C_24  and  C_26
REMARK                            x       y       z     vdW  Elec       q    Type
REMARK                         _______ _______ _______ _____ _____    ______ ____
ROOT
ATOM      1  C   UNL     1      48.817   7.547  16.444  0.00  0.00    +0.000 A 
ATOM      2  C   UNL     1      48.574   8.837  15.954  0.00  0.00    +0.000 A 
ATOM      3  C   UNL     1      48.349   9.049  14.592  0.00  0.00    +0.000 A 
ATOM      4  C   UNL     1      48.352   7.975  13.695  0.00  0.00    +0.000 A 
ATOM      5  C   UNL     1      48.640   6.692  14.177  0.00  0.00    +0.000 A 
ATOM      6  C   UNL     1      48.865   6.479  15.537  0.00  0.00    +0.000 A 
ENDROOT
BRANCH   1   7
ATOM      7  C   UNL     1      48.967   7.308  17.929  0.00  0.00    +0.000 C 
BRANCH   7   8
ATOM      8  C   UNL     1      48.159   6.115  18.483  0.00  0.00    +0.000 C 
BRANCH   8   9
ATOM      9  N   UNL     1      47.273   6.505  19.601  0.00  0.00    +0.000 NA
ATOM     10  H   UNL     1      47.775   6.424  20.481  0.00  0.00    +0.000 HD
ATOM     11  H   UNL     1      46.516   5.815  19.641  0.00  0.00    +0.000 HD
ENDBRANCH   8   9
BRANCH   8  12
ATOM     12  C   UNL     1      49.071   4.951  18.931  0.00  0.00    +0.000 C 
ATOM     13  O   UNL     1      49.644   4.956  20.026  0.00  0.00    +0.000 OA
BRANCH  12  14
ATOM     14  C   UNL     1      49.294   3.782  18.023  0.00  0.00    +0.000 A 
ATOM     15  C   UNL     1      50.523   3.131  17.905  0.00  0.00    +0.000 A 
ATOM     16  C   UNL     1      50.638   2.106  16.979  0.00  0.00    +0.000 A 
ATOM     17  N   UNL     1      49.623   1.675  16.205  0.00  0.00    +0.000 NA
ATOM     18  C   UNL     1      48.436   2.297  16.353  0.00  0.00    +0.000 A 
ATOM     19  C   UNL     1      48.225   3.343  17.234  0.00  0.00    +0.000 A 
ENDBRANCH  12  14
ENDBRANCH   8  12
ENDBRANCH   7   8
ENDBRANCH   1   7
BRANCH   4  20
ATOM     20  C   UNL     1      48.069   8.186  12.231  0.00  0.00    +0.000 C 
BRANCH  20  21
ATOM     21  N   UNL     1      47.429   7.035  11.653  0.00  0.00    +0.000 N 
ATOM     22  C   UNL     1      46.075   7.009  11.438  0.00  0.00    +0.000 C 
ATOM     23  O   UNL     1      45.351   7.966  11.697  0.00  0.00    +0.000 OA
ATOM     24  H   UNL     1      47.947   6.163  11.670  0.00  0.00    +0.000 HD
BRANCH  22  25
ATOM     25  C   UNL     1      45.543   5.791  10.817  0.00  0.00    +0.000 A 
ATOM     26  C   UNL     1      45.741   5.564   9.462  0.00  0.00    +0.000 A 
ATOM     27  S   UNL     1      45.087   4.087   8.914  0.00  0.00    +0.000 S 
ATOM     28  C   UNL     1      44.477   3.720  10.460  0.00  0.00    +0.000 A 
ATOM     29  N   UNL     1      43.767   2.584  10.680  0.00  0.00    +0.000 NA
ATOM     30  C   UNL     1      43.340   2.444  11.892  0.00  0.00    +0.000 A 
ATOM     31  N   UNL     1      43.567   3.339  12.904  0.00  0.00    +0.000 N 
ATOM     32  C   UNL     1      44.310   4.482  12.739  0.00  0.00    +0.000 A 
ATOM     33  O   UNL     1      44.550   5.226  13.684  0.00  0.00    +0.000 OA
ATOM     34  C   UNL     1      44.791   4.698  11.389  0.00  0.00    +0.000 A 
ATOM     35  H   UNL     1      43.219   3.162  13.836  0.00  0.00    +0.000 HD
ENDBRANCH  22  25
ENDBRANCH  20  21
ENDBRANCH   4  20
TORSDOF 8
ENDMDL
MODEL 6
REMARK VINA RESULT:    -7.544      2.516      3.139
REMARK INTER + INTRA:         -11.809
REMARK INTER:                 -10.283
REMARK INTRA:                  -1.526
REMARK UNBOUND:                -0.957
REMARK  Name = 
REMARK  8 active torsions:
REMARK  status: ('A' for Active; 'I' for Inactive)
REMARK    1  A    between atoms: N_1  and  C_2
REMARK    2  A    between atoms: C_2  and  C_3
REMARK    3  A    between atoms: C_2  and  C_24
REMARK    4  A    between atoms: C_3  and  C_4
REMARK    5  A    between atoms: C_7  and  C_8
REMARK    6  A    between atoms: C_8  and  N_9
REMARK    7  A    between atoms: C_10  and  C_12
REMARK    8  A    between atoms: C_24  and  C_26
REMARK                            x       y       z     vdW  Elec       q    Type
REMARK                         _______ _______ _______ _____ _____    ______ ____
ROOT
ATOM      1  C   UNL     1      45.539   5.994  12.592  0.00  0.00    +0.000 A 
ATOM      2  C   UNL     1      46.654   5.286  13.059  0.00  0.00    +0.000 A 
ATOM      3  C   UNL     1      47.930   5.850  12.999  0.00  0.00    +0.000 A 
ATOM      4  C   UNL     1      48.116   7.136  12.480  0.00  0.00    +0.000 A 
ATOM      5  C   UNL     1      47.008   7.826  11.971  0.00  0.00    +0.000 A 
ATOM      6  C   UNL     1      45.733   7.264  12.030  0.00  0.00    +0.000 A 
ENDROOT
BRANCH   1   7
ATOM      7  C   UNL     1      44.149   5.420  12.744  0.00  0.00    +0.000 C 
BRANCH   7   8
ATOM      8  C   UNL     1      43.400   5.162  11.419  0.00  0.00    +0.000 C 
BRANCH   8   9
ATOM      9  N   UNL     1      41.949   5.428  11.530  0.00  0.00    +0.000 NA
ATOM     10  H   UNL     1      41.450   4.553  11.666  0.00  0.00    +0.000 HD
ATOM     11  H   UNL     1      41.640   5.794  10.623  0.00  0.00    +0.000 HD
ENDBRANCH   8   9
BRANCH   8  12
ATOM     12  C   UNL     1      43.622   3.726  10.894  0.00  0.00    +0.000 C 
ATOM     13  O   UNL     1      43.022   2.757  11.372  0.00  0.00    +0.000 OA
BRANCH  12  14
ATOM     14  C   UNL     1      44.598   3.475   9.787  0.00  0.00    +0.000 A 
ATOM     15  C   UNL     1      45.195   4.499   9.050  0.00  0.00    +0.000 A 
ATOM     16  C   UNL     1      46.028   4.152   7.998  0.00  0.00    +0.000 A 
ATOM     17  N   UNL     1      46.325   2.882   7.662  0.00  0.00    +0.000 NA
ATOM     18  C   UNL     1      45.762   1.907   8.403  0.00  0.00    +0.000 A 
ATOM     19  C   UNL     1      44.901   2.149   9.459  0.00  0.00    +0.000 A 
ENDBRANCH  12  14
ENDBRANCH   8  12
ENDBRANCH   7   8
ENDBRANCH   1   7
BRANCH   4  20
ATOM     20  C   UNL     1      49.481   7.771  12.448  0.00  0.00    +0.000 C 
BRANCH  20  21
ATOM     21  N   UNL     1      50.297   7.306  13.538  0.00  0.00    +0.000 N 
ATOM     22  C   UNL     1      50.472   8.065  14.666  0.00  0.00    +0.000 C 
ATOM     23  O   UNL     1      49.925   9.153  14.817  0.00  0.00    +0.000 OA
ATOM     24  H   UNL     1      50.947   6.554  13.338  0.00  0.00    +0.000 HD
BRANCH  22  25
ATOM     25  C   UNL     1      51.302   7.471  15.720  0.00  0.00    +0.000 A 
ATOM     26  C   UNL     1      52.574   7.972  15.961  0.00  0.00    +0.000 A 
ATOM     27  S   UNL     1      53.385   7.190  17.243  0.00  0.00    +0.000 S 
ATOM     28  C   UNL     1      52.081   6.124  17.490  0.00  0.00    +0.000 A 
ATOM     29  N   UNL     1      52.140   5.156  18.440  0.00  0.00    +0.000 NA
ATOM     30  C   UNL     1      51.093   4.400  18.501  0.00  0.00    +0.000 A 
ATOM     31  N   UNL     1      49.991   4.532  17.700  0.00  0.00    +0.000 N 
ATOM     32  C   UNL     1      49.869   5.519  16.752  0.00  0.00    +0.000 A 
ATOM     33  O   UNL     1      48.840   5.650  16.099  0.00  0.00    +0.000 OA
ATOM     34  C   UNL     1      51.030   6.379  16.625  0.00  0.00    +0.000 A 
ATOM     35  H   UNL     1      49.196   3.918  17.811  0.00  0.00    +0.000 HD
ENDBRANCH  22  25
ENDBRANCH  20  21
ENDBRANCH   4  20
TORSDOF 8
ENDMDL
MODEL 7
REMARK VINA RESULT:    -7.414      3.067      9.136
REMARK INTER + INTRA:         -11.622
REMARK INTER:                  -9.730
REMARK INTRA:                  -1.891
REMARK UNBOUND:                -0.957
REMARK  Name = 
REMARK  8 active torsions:
REMARK  status: ('A' for Active; 'I' for Inactive)
REMARK    1  A    between atoms: N_1  and  C_2
REMARK    2  A    between atoms: C_2  and  C_3
REMARK    3  A    between atoms: C_2  and  C_24
REMARK    4  A    between atoms: C_3  and  C_4
REMARK    5  A    between atoms: C_7  and  C_8
REMARK    6  A    between atoms: C_8  and  N_9
REMARK    7  A    between atoms: C_10  and  C_12
REMARK    8  A    between atoms: C_24  and  C_26
REMARK                            x       y       z     vdW  Elec       q    Type
REMARK                         _______ _______ _______ _____ _____    ______ ____
ROOT
ATOM      1  C   UNL     1      49.809   8.335  15.682  0.00  0.00    +0.000 A 
ATOM      2  C   UNL     1      48.493   8.784  15.509  0.00  0.00    +0.000 A 
ATOM      3  C   UNL     1      47.869   8.691  14.263  0.00  0.00    +0.000 A 
ATOM      4  C   UNL     1      48.544   8.139  13.169  0.00  0.00    +0.000 A 
ATOM      5  C   UNL     1      49.874   7.731  13.330  0.00  0.00    +0.000 A 
ATOM      6  C   UNL     1      50.499   7.824  14.574  0.00  0.00    +0.000 A 
ENDROOT
BRANCH   1   7
ATOM      7  C   UNL     1      50.449   8.350  17.052  0.00  0.00    +0.000 C 
BRANCH   7   8
ATOM      8  C   UNL     1      49.920   7.281  18.031  0.00  0.00    +0.000 C 
BRANCH   8   9
ATOM      9  N   UNL     1      50.486   7.431  19.390  0.00  0.00    +0.000 NA
ATOM     10  H   UNL     1      51.398   6.985  19.432  0.00  0.00    +0.000 HD
ATOM     11  H   UNL     1      49.881   6.904  20.028  0.00  0.00    +0.000 HD
ENDBRANCH   8   9
BRANCH   8  12
ATOM     12  C   UNL     1      50.178   5.845  17.522  0.00  0.00    +0.000 C 
ATOM     13  O   UNL     1      51.319   5.434  17.281  0.00  0.00    +0.000 OA
BRANCH  12  14
ATOM     14  C   UNL     1      49.029   4.914  17.291  0.00  0.00    +0.000 A 
ATOM     15  C   UNL     1      48.105   5.084  16.260  0.00  0.00    +0.000 A 
ATOM     16  C   UNL     1      47.036   4.204  16.182  0.00  0.00    +0.000 A 
ATOM     17  N   UNL     1      46.852   3.170  17.025  0.00  0.00    +0.000 NA
ATOM     18  C   UNL     1      47.771   3.004  17.998  0.00  0.00    +0.000 A 
ATOM     19  C   UNL     1      48.859   3.840  18.173  0.00  0.00    +0.000 A 
ENDBRANCH  12  14
ENDBRANCH   8  12
ENDBRANCH   7   8
ENDBRANCH   1   7
BRANCH   4  20
ATOM     20  C   UNL     1      47.867   7.995  11.831  0.00  0.00    +0.000 C 
BRANCH  20  21
ATOM     21  N   UNL     1      47.095   6.783  11.766  0.00  0.00    +0.000 N 
ATOM     22  C   UNL     1      45.724   6.814  11.764  0.00  0.00    +0.000 C 
ATOM     23  O   UNL     1      45.091   7.866  11.788  0.00  0.00    +0.000 OA
ATOM     24  H   UNL     1      47.572   5.919  12.000  0.00  0.00    +0.000 HD
BRANCH  22  25
ATOM     25  C   UNL     1      45.049   5.516  11.665  0.00  0.00    +0.000 A 
ATOM     26  C   UNL     1      44.352   5.015  12.756  0.00  0.00    +0.000 A 
ATOM     27  S   UNL     1      43.599   3.514  12.455  0.00  0.00    +0.000 S 
ATOM     28  C   UNL     1      44.217   3.459  10.871  0.00  0.00    +0.000 A 
ATOM     29  N   UNL     1      43.970   2.398  10.060  0.00  0.00    +0.000 NA
ATOM     30  C   UNL     1      44.523   2.474   8.894  0.00  0.00    +0.000 A 
ATOM     31  N   UNL     1      45.296   3.520   8.466  0.00  0.00    +0.000 N 
ATOM     32  C   UNL     1      45.543   4.631   9.236  0.00  0.00    +0.000 A 
ATOM     33  O   UNL     1      46.183   5.580   8.795  0.00  0.00    +0.000 OA
ATOM     34  C   UNL     1      44.965   4.584  10.564  0.00  0.00    +0.000 A 
ATOM     35  H   UNL     1      45.686   3.526   7.533  0.00  0.00    +0.000 HD
ENDBRANCH  22  25
ENDBRANCH  20  21
ENDBRANCH   4  20
TORSDOF 8
ENDMDL
MODEL 8
REMARK VINA RESULT:    -6.562      4.016      5.742
REMARK INTER + INTRA:         -10.396
REMARK INTER:                  -9.027
REMARK INTRA:                  -1.369
REMARK UNBOUND:                -0.957
REMARK  Name = 
REMARK  8 active torsions:
REMARK  status: ('A' for Active; 'I' for Inactive)
REMARK    1  A    between atoms: N_1  and  C_2
REMARK    2  A    between atoms: C_2  and  C_3
REMARK    3  A    between atoms: C_2  and  C_24
REMARK    4  A    between atoms: C_3  and  C_4
REMARK    5  A    between atoms: C_7  and  C_8
REMARK    6  A    between atoms: C_8  and  N_9
REMARK    7  A    between atoms: C_10  and  C_12
REMARK    8  A    between atoms: C_24  and  C_26
REMARK                            x       y       z     vdW  Elec       q    Type
REMARK                         _______ _______ _______ _____ _____    ______ ____
ROOT
ATOM      1  C   UNL     1      46.965   4.792  14.279  0.00  0.00    +0.000 A 
ATOM      2  C   UNL     1      47.034   4.061  15.473  0.00  0.00    +0.000 A 
ATOM      3  C   UNL     1      47.821   4.510  16.536  0.00  0.00    +0.000 A 
ATOM      4  C   UNL     1      48.547   5.701  16.430  0.00  0.00    +0.000 A 
ATOM      5  C   UNL     1      48.515   6.407  15.221  0.00  0.00    +0.000 A 
ATOM      6  C   UNL     1      47.729   5.961  14.159  0.00  0.00    +0.000 A 
ENDROOT
BRANCH   1   7
ATOM      7  C   UNL     1      46.041   4.354  13.167  0.00  0.00    +0.000 C 
BRANCH   7   8
ATOM      8  C   UNL     1      44.758   5.198  13.013  0.00  0.00    +0.000 C 
BRANCH   8   9
ATOM      9  N   UNL     1      43.528   4.386  13.145  0.00  0.00    +0.000 NA
ATOM     10  H   UNL     1      43.774   3.403  13.221  0.00  0.00    +0.000 HD
ATOM     11  H   UNL     1      43.008   4.482  12.266  0.00  0.00    +0.000 HD
ENDBRANCH   8   9
BRANCH   8  12
ATOM     12  C   UNL     1      44.724   5.969  11.675  0.00  0.00    +0.000 C 
ATOM     13  O   UNL     1      44.612   5.388  10.590  0.00  0.00    +0.000 OA
BRANCH  12  14
ATOM     14  C   UNL     1      44.847   7.461  11.667  0.00  0.00    +0.000 A 
ATOM     15  C   UNL     1      45.896   8.145  12.283  0.00  0.00    +0.000 A 
ATOM     16  C   UNL     1      45.872   9.530  12.278  0.00  0.00    +0.000 A 
ATOM     17  N   UNL     1      44.911  10.263  11.683  0.00  0.00    +0.000 NA
ATOM     18  C   UNL     1      43.921   9.586  11.067  0.00  0.00    +0.000 A 
ATOM     19  C   UNL     1      43.843   8.205  11.035  0.00  0.00    +0.000 A 
ENDBRANCH  12  14
ENDBRANCH   8  12
ENDBRANCH   7   8
ENDBRANCH   1   7
BRANCH   4  20
ATOM     20  C   UNL     1      49.366   6.216  17.584  0.00  0.00    +0.000 C 
BRANCH  20  21
ATOM     21  N   UNL     1      50.361   5.258  17.986  0.00  0.00    +0.000 N 
ATOM     22  C   UNL     1      51.608   5.250  17.416  0.00  0.00    +0.000 C 
ATOM     23  O   UNL     1      51.948   6.068  16.566  0.00  0.00    +0.000 OA
ATOM     24  H   UNL     1      50.035   4.435  18.480  0.00  0.00    +0.000 HD
BRANCH  22  25
ATOM     25  C   UNL     1      52.545   4.244  17.929  0.00  0.00    +0.000 A 
ATOM     26  C   UNL     1      53.723   4.647  18.544  0.00  0.00    +0.000 A 
ATOM     27  S   UNL     1      54.676   3.350  19.110  0.00  0.00    +0.000 S 
ATOM     28  C   UNL     1      53.570   2.203  18.512  0.00  0.00    +0.000 A 
ATOM     29  N   UNL     1      53.806   0.872  18.638  0.00  0.00    +0.000 NA
ATOM     30  C   UNL     1      52.899   0.114  18.114  0.00  0.00    +0.000 A 
ATOM     31  N   UNL     1      51.774   0.572  17.481  0.00  0.00    +0.000 N 
ATOM     32  C   UNL     1      51.473   1.907  17.362  0.00  0.00    +0.000 A 
ATOM     33  O   UNL     1      50.423   2.280  16.850  0.00  0.00    +0.000 OA
ATOM     34  C   UNL     1      52.474   2.801  17.912  0.00  0.00    +0.000 A 
ATOM     35  H   UNL     1      51.093  -0.075  17.107  0.00  0.00    +0.000 HD
ENDBRANCH  22  25
ENDBRANCH  20  21
ENDBRANCH   4  20
TORSDOF 8
ENDMDL
MODEL 9
REMARK VINA RESULT:    -6.438      2.419      3.137
REMARK INTER + INTRA:         -10.218
REMARK INTER:                  -8.919
REMARK INTRA:                  -1.299
REMARK UNBOUND:                -0.957
REMARK  Name = 
REMARK  8 active torsions:
REMARK  status: ('A' for Active; 'I' for Inactive)
REMARK    1  A    between atoms: N_1  and  C_2
REMARK    2  A    between atoms: C_2  and  C_3
REMARK    3  A    between atoms: C_2  and  C_24
REMARK    4  A    between atoms: C_3  and  C_4
REMARK    5  A    between atoms: C_7  and  C_8
REMARK    6  A    between atoms: C_8  and  N_9
REMARK    7  A    between atoms: C_10  and  C_12
REMARK    8  A    between atoms: C_24  and  C_26
REMARK                            x       y       z     vdW  Elec       q    Type
REMARK                         _______ _______ _______ _____ _____    ______ ____
ROOT
ATOM      1  C   UNL     1      46.234   5.698  12.791  0.00  0.00    +0.000 A 
ATOM      2  C   UNL     1      47.083   5.602  13.901  0.00  0.00    +0.000 A 
ATOM      3  C   UNL     1      48.257   6.358  13.965  0.00  0.00    +0.000 A 
ATOM      4  C   UNL     1      48.598   7.230  12.926  0.00  0.00    +0.000 A 
ATOM      5  C   UNL     1      47.773   7.291  11.796  0.00  0.00    +0.000 A 
ATOM      6  C   UNL     1      46.601   6.537  11.731  0.00  0.00    +0.000 A 
ENDROOT
BRANCH   1   7
ATOM      7  C   UNL     1      44.920   4.950  12.767  0.00  0.00    +0.000 C 
BRANCH   7   8
ATOM      8  C   UNL     1      44.070   5.166  11.497  0.00  0.00    +0.000 C 
BRANCH   8   9
ATOM      9  N   UNL     1      42.753   5.771  11.796  0.00  0.00    +0.000 NA
ATOM     10  H   UNL     1      42.025   5.066  11.715  0.00  0.00    +0.000 HD
ATOM     11  H   UNL     1      42.565   6.461  11.060  0.00  0.00    +0.000 HD
ENDBRANCH   8   9
BRANCH   8  12
ATOM     12  C   UNL     1      43.865   3.856  10.703  0.00  0.00    +0.000 C 
ATOM     13  O   UNL     1      42.946   3.072  10.963  0.00  0.00    +0.000 OA
BRANCH  12  14
ATOM     14  C   UNL     1      44.805   3.499   9.594  0.00  0.00    +0.000 A 
ATOM     15  C   UNL     1      45.395   4.447   8.758  0.00  0.00    +0.000 A 
ATOM     16  C   UNL     1      46.193   4.001   7.716  0.00  0.00    +0.000 A 
ATOM     17  N   UNL     1      46.462   2.703   7.479  0.00  0.00    +0.000 NA
ATOM     18  C   UNL     1      45.906   1.802   8.314  0.00  0.00    +0.000 A 
ATOM     19  C   UNL     1      45.080   2.144   9.369  0.00  0.00    +0.000 A 
ENDBRANCH  12  14
ENDBRANCH   8  12
ENDBRANCH   7   8
ENDBRANCH   1   7
BRANCH   4  20
ATOM     20  C   UNL     1      49.838   8.081  13.002  0.00  0.00    +0.000 C 
BRANCH  20  21
ATOM     21  N   UNL     1      49.873   8.844  14.221  0.00  0.00    +0.000 N 
ATOM     22  C   UNL     1      50.685   8.478  15.263  0.00  0.00    +0.000 C 
ATOM     23  O   UNL     1      51.439   7.511  15.201  0.00  0.00    +0.000 OA
ATOM     24  H   UNL     1      49.096   9.473  14.392  0.00  0.00    +0.000 HD
BRANCH  22  25
ATOM     25  C   UNL     1      50.654   9.351  16.442  0.00  0.00    +0.000 A 
ATOM     26  C   UNL     1      51.473  10.471  16.494  0.00  0.00    +0.000 A 
ATOM     27  S   UNL     1      51.283  11.390  17.919  0.00  0.00    +0.000 S 
ATOM     28  C   UNL     1      50.134  10.298  18.537  0.00  0.00    +0.000 A 
ATOM     29  N   UNL     1      49.581  10.483  19.763  0.00  0.00    +0.000 NA
ATOM     30  C   UNL     1      48.744   9.564  20.119  0.00  0.00    +0.000 A 
ATOM     31  N   UNL     1      48.409   8.479  19.354  0.00  0.00    +0.000 N 
ATOM     32  C   UNL     1      48.913   8.269  18.093  0.00  0.00    +0.000 A 
ATOM     33  O   UNL     1      48.538   7.323  17.409  0.00  0.00    +0.000 OA
ATOM     34  C   UNL     1      49.876   9.260  17.656  0.00  0.00    +0.000 A 
ATOM     35  H   UNL     1      47.734   7.804  19.684  0.00  0.00    +0.000 HD
ENDBRANCH  22  25
ENDBRANCH  20  21
ENDBRANCH   4  20
TORSDOF 8
ENDMDL
