MODEL 1
REMARK VINA RESULT:    -8.405      0.000      0.000
REMARK INTER + INTRA:         -12.370
REMARK INTER:                 -11.353
REMARK INTRA:                  -1.016
REMARK UNBOUND:                -1.016
REMARK  Name = 
REMARK  7 active torsions:
REMARK  status: ('A' for Active; 'I' for Inactive)
REMARK    1  A    between atoms: C_1  and  C_2
REMARK    2  A    between atoms: C_3  and  C_4
REMARK    3  A    between atoms: C_4  and  C_5
REMARK    4  A    between atoms: C_5  and  N_6
REMARK    5  A    between atoms: N_6  and  C_7
REMARK    6  A    between atoms: C_10  and  C_11
REMARK    7  A    between atoms: C_19  and  C_20
REMARK                            x       y       z     vdW  Elec       q    Type
REMARK                         _______ _______ _______ _____ _____    ______ ____
ROOT
ATOM      1  C   UNL     1      43.415   5.134  12.492  0.00  0.00    +0.000 C 
ENDROOT
BRANCH   1   4
ATOM      2  C   UNL     1      44.763   7.664  11.433  0.00  0.00    +0.000 C 
ATOM      3  C   UNL     1      45.540   6.648  12.240  0.00  0.00    +0.000 A 
ATOM      4  C   UNL     1      44.901   5.442  12.667  0.00  0.00    +0.000 A 
ATOM      5  C   UNL     1      45.643   4.485  13.381  0.00  0.00    +0.000 A 
ATOM      6  C   UNL     1      46.976   4.700  13.689  0.00  0.00    +0.000 A 
ATOM      7  C   UNL     1      47.588   5.892  13.312  0.00  0.00    +0.000 A 
ATOM      8  C   UNL     1      46.908   6.898  12.587  0.00  0.00    +0.000 A 
BRANCH   8   9
ATOM      9  C   UNL     1      47.679   8.141  12.245  0.00  0.00    +0.000 A 
ATOM     10  C   UNL     1      48.987   8.063  11.714  0.00  0.00    +0.000 A 
ATOM     11  C   UNL     1      49.748   9.206  11.429  0.00  0.00    +0.000 A 
ATOM     12  C   UNL     1      49.210  10.469  11.633  0.00  0.00    +0.000 A 
ATOM     13  C   UNL     1      47.929  10.587  12.158  0.00  0.00    +0.000 A 
ATOM     14  C   UNL     1      47.194   9.438  12.490  0.00  0.00    +0.000 A 
ENDBRANCH   8   9
ENDBRANCH   1   4
BRANCH   1  15
ATOM     15  C   UNL     1      43.219   4.182  11.306  0.00  0.00    +0.000 C 
BRANCH  15  16
ATOM     16  N   UNL     1      43.612   4.771  10.012  0.00  0.00    +0.000 N 
ATOM     17  H   UNL     1      43.934   5.733  10.105  0.00  0.00    +0.000 HD
BRANCH  16  18
ATOM     18  C   UNL     1      44.529   4.003   9.257  0.00  0.00    +0.000 A 
ATOM     19  C   UNL     1      45.463   4.589   8.391  0.00  0.00    +0.000 A 
ATOM     20  C   UNL     1      46.378   3.820   7.671  0.00  0.00    +0.000 A 
ATOM     21  C   UNL     1      46.424   2.438   7.836  0.00  0.00    +0.000 A 
ATOM     22  C   UNL     1      45.543   1.832   8.737  0.00  0.00    +0.000 A 
ATOM     23  C   UNL     1      44.615   2.615   9.451  0.00  0.00    +0.000 A 
BRANCH  21  24
ATOM     24  C   UNL     1      47.423   1.688   7.029  0.00  0.00    +0.000 C 
ATOM     25  N   UNL     1      48.486   2.393   6.531  0.00  0.00    +0.000 N 
ATOM     26  O   UNL     1      47.290   0.502   6.771  0.00  0.00    +0.000 OA
ATOM     27  H   UNL     1      48.493   3.402   6.494  0.00  0.00    +0.000 HD
ATOM     28  H   UNL     1      49.057   1.893   5.860  0.00  0.00    +0.000 HD
ENDBRANCH  21  24
ENDBRANCH  16  18
ENDBRANCH  15  16
ENDBRANCH   1  15
TORSDOF 6
ENDMDL
MODEL 2
REMARK VINA RESULT:    -7.850      1.278      2.257
REMARK INTER + INTRA:         -11.619
REMARK INTER:                 -11.172
REMARK INTRA:                  -0.447
REMARK UNBOUND:                -1.016
REMARK  Name = 
REMARK  7 active torsions:
REMARK  status: ('A' for Active; 'I' for Inactive)
REMARK    1  A    between atoms: C_1  and  C_2
REMARK    2  A    between atoms: C_3  and  C_4
REMARK    3  A    between atoms: C_4  and  C_5
REMARK    4  A    between atoms: C_5  and  N_6
REMARK    5  A    between atoms: N_6  and  C_7
REMARK    6  A    between atoms: C_10  and  C_11
REMARK    7  A    between atoms: C_19  and  C_20
REMARK                            x       y       z     vdW  Elec       q    Type
REMARK                         _______ _______ _______ _____ _____    ______ ____
ROOT
ATOM      1  C   UNL     1      43.715   3.599  12.744  0.00  0.00    +0.000 C 
ENDROOT
BRANCH   1   4
ATOM      2  C   UNL     1      46.579   4.354  13.495  0.00  0.00    +0.000 C 
ATOM      3  C   UNL     1      45.676   5.337  12.784  0.00  0.00    +0.000 A 
ATOM      4  C   UNL     1      44.320   4.980  12.503  0.00  0.00    +0.000 A 
ATOM      5  C   UNL     1      43.477   5.916  11.879  0.00  0.00    +0.000 A 
ATOM      6  C   UNL     1      43.943   7.169  11.520  0.00  0.00    +0.000 A 
ATOM      7  C   UNL     1      45.274   7.504  11.753  0.00  0.00    +0.000 A 
ATOM      8  C   UNL     1      46.180   6.618  12.381  0.00  0.00    +0.000 A 
BRANCH   8   9
ATOM      9  C   UNL     1      47.591   7.096  12.571  0.00  0.00    +0.000 A 
ATOM     10  C   UNL     1      48.429   7.351  11.462  0.00  0.00    +0.000 A 
ATOM     11  C   UNL     1      49.764   7.752  11.609  0.00  0.00    +0.000 A 
ATOM     12  C   UNL     1      50.297   7.948  12.876  0.00  0.00    +0.000 A 
ATOM     13  C   UNL     1      49.506   7.704  13.992  0.00  0.00    +0.000 A 
ATOM     14  C   UNL     1      48.186   7.250  13.836  0.00  0.00    +0.000 A 
ENDBRANCH   8   9
ENDBRANCH   1   4
BRANCH   1  15
ATOM     15  C   UNL     1      43.505   2.883  11.404  0.00  0.00    +0.000 C 
BRANCH  15  16
ATOM     16  N   UNL     1      43.742   3.750  10.235  0.00  0.00    +0.000 N 
ATOM     17  H   UNL     1      43.918   4.718  10.498  0.00  0.00    +0.000 HD
BRANCH  16  18
ATOM     18  C   UNL     1      44.727   3.286   9.332  0.00  0.00    +0.000 A 
ATOM     19  C   UNL     1      45.032   1.926   9.190  0.00  0.00    +0.000 A 
ATOM     20  C   UNL     1      45.989   1.481   8.276  0.00  0.00    +0.000 A 
ATOM     21  C   UNL     1      46.635   2.382   7.434  0.00  0.00    +0.000 A 
ATOM     22  C   UNL     1      46.307   3.739   7.513  0.00  0.00    +0.000 A 
ATOM     23  C   UNL     1      45.349   4.181   8.446  0.00  0.00    +0.000 A 
BRANCH  21  24
ATOM     24  C   UNL     1      47.645   1.831   6.493  0.00  0.00    +0.000 C 
ATOM     25  N   UNL     1      48.768   2.581   6.266  0.00  0.00    +0.000 N 
ATOM     26  O   UNL     1      47.474   0.777   5.902  0.00  0.00    +0.000 OA
ATOM     27  H   UNL     1      48.823   3.557   6.518  0.00  0.00    +0.000 HD
ATOM     28  H   UNL     1      49.355   2.258   5.506  0.00  0.00    +0.000 HD
ENDBRANCH  21  24
ENDBRANCH  16  18
ENDBRANCH  15  16
ENDBRANCH   1  15
TORSDOF 6
ENDMDL
MODEL 3
REMARK VINA RESULT:    -7.335      2.057      2.509
REMARK INTER + INTRA:         -10.924
REMARK INTER:                 -10.066
REMARK INTRA:                  -0.858
REMARK UNBOUND:                -1.016
REMARK  Name = 
REMARK  7 active torsions:
REMARK  status: ('A' for Active; 'I' for Inactive)
REMARK    1  A    between atoms: C_1  and  C_2
REMARK    2  A    between atoms: C_3  and  C_4
REMARK    3  A    between atoms: C_4  and  C_5
REMARK    4  A    between atoms: C_5  and  N_6
REMARK    5  A    between atoms: N_6  and  C_7
REMARK    6  A    between atoms: C_10  and  C_11
REMARK    7  A    between atoms: C_19  and  C_20
REMARK                            x       y       z     vdW  Elec       q    Type
REMARK                         _______ _______ _______ _____ _____    ______ ____
ROOT
ATOM      1  C   UNL     1      45.641   6.073  11.106  0.00  0.00    +0.000 C 
ENDROOT
BRANCH   1   4
ATOM      2  C   UNL     1      47.687   8.090  12.148  0.00  0.00    +0.000 C 
ATOM      3  C   UNL     1      47.369   6.832  12.926  0.00  0.00    +0.000 A 
ATOM      4  C   UNL     1      46.457   5.874  12.382  0.00  0.00    +0.000 A 
ATOM      5  C   UNL     1      46.199   4.689  13.093  0.00  0.00    +0.000 A 
ATOM      6  C   UNL     1      46.803   4.443  14.315  0.00  0.00    +0.000 A 
ATOM      7  C   UNL     1      47.658   5.393  14.866  0.00  0.00    +0.000 A 
ATOM      8  C   UNL     1      47.969   6.606  14.208  0.00  0.00    +0.000 A 
BRANCH   8   9
ATOM      9  C   UNL     1      48.902   7.551  14.910  0.00  0.00    +0.000 A 
ATOM     10  C   UNL     1      50.292   7.297  14.963  0.00  0.00    +0.000 A 
ATOM     11  C   UNL     1      51.180   8.136  15.651  0.00  0.00    +0.000 A 
ATOM     12  C   UNL     1      50.710   9.281  16.280  0.00  0.00    +0.000 A 
ATOM     13  C   UNL     1      49.350   9.563  16.254  0.00  0.00    +0.000 A 
ATOM     14  C   UNL     1      48.460   8.689  15.608  0.00  0.00    +0.000 A 
ENDBRANCH   8   9
ENDBRANCH   1   4
BRANCH   1  15
ATOM     15  C   UNL     1      44.263   5.418  11.263  0.00  0.00    +0.000 C 
BRANCH  15  16
ATOM     16  N   UNL     1      43.744   4.841  10.009  0.00  0.00    +0.000 N 
ATOM     17  H   UNL     1      43.371   5.550   9.380  0.00  0.00    +0.000 HD
BRANCH  16  18
ATOM     18  C   UNL     1      44.638   3.981   9.328  0.00  0.00    +0.000 A 
ATOM     19  C   UNL     1      44.621   2.591   9.504  0.00  0.00    +0.000 A 
ATOM     20  C   UNL     1      45.491   1.754   8.805  0.00  0.00    +0.000 A 
ATOM     21  C   UNL     1      46.374   2.279   7.865  0.00  0.00    +0.000 A 
ATOM     22  C   UNL     1      46.372   3.656   7.626  0.00  0.00    +0.000 A 
ATOM     23  C   UNL     1      45.498   4.495   8.344  0.00  0.00    +0.000 A 
BRANCH  21  24
ATOM     24  C   UNL     1      47.274   1.322   7.167  0.00  0.00    +0.000 C 
ATOM     25  N   UNL     1      48.377   1.839   6.542  0.00  0.00    +0.000 N 
ATOM     26  O   UNL     1      47.028   0.128   7.103  0.00  0.00    +0.000 OA
ATOM     27  H   UNL     1      48.473   2.824   6.345  0.00  0.00    +0.000 HD
ATOM     28  H   UNL     1      48.878   1.189   5.947  0.00  0.00    +0.000 HD
ENDBRANCH  21  24
ENDBRANCH  16  18
ENDBRANCH  15  16
ENDBRANCH   1  15
TORSDOF 6
ENDMDL
MODEL 4
REMARK VINA RESULT:    -7.137      1.277      2.386
REMARK INTER + INTRA:         -10.657
REMARK INTER:                  -9.827
REMARK INTRA:                  -0.830
REMARK UNBOUND:                -1.016
REMARK  Name = 
REMARK  7 active torsions:
REMARK  status: ('A' for Active; 'I' for Inactive)
REMARK    1  A    between atoms: C_1  and  C_2
REMARK    2  A    between atoms: C_3  and  C_4
REMARK    3  A    between atoms: C_4  and  C_5
REMARK    4  A    between atoms: C_5  and  N_6
REMARK    5  A    between atoms: N_6  and  C_7
REMARK    6  A    between atoms: C_10  and  C_11
REMARK    7  A    between atoms: C_19  and  C_20
REMARK                            x       y       z     vdW  Elec       q    Type
REMARK                         _______ _______ _______ _____ _____    ______ ____
ROOT
ATOM      1  C   UNL     1      45.467   5.440  11.380  0.00  0.00    +0.000 C 
ENDROOT
BRANCH   1   4
ATOM      2  C   UNL     1      48.086   6.484  12.562  0.00  0.00    +0.000 C 
ATOM      3  C   UNL     1      46.957   7.429  12.217  0.00  0.00    +0.000 A 
ATOM      4  C   UNL     1      45.718   6.907  11.727  0.00  0.00    +0.000 A 
ATOM      5  C   UNL     1      44.661   7.789  11.448  0.00  0.00    +0.000 A 
ATOM      6  C   UNL     1      44.805   9.155  11.626  0.00  0.00    +0.000 A 
ATOM      7  C   UNL     1      46.022   9.670  12.062  0.00  0.00    +0.000 A 
ATOM      8  C   UNL     1      47.129   8.844  12.368  0.00  0.00    +0.000 A 
BRANCH   8   9
ATOM      9  C   UNL     1      48.389   9.522  12.824  0.00  0.00    +0.000 A 
ATOM     10  C   UNL     1      48.619   9.788  14.193  0.00  0.00    +0.000 A 
ATOM     11  C   UNL     1      49.763  10.461  14.643  0.00  0.00    +0.000 A 
ATOM     12  C   UNL     1      50.738  10.860  13.738  0.00  0.00    +0.000 A 
ATOM     13  C   UNL     1      50.547  10.621  12.383  0.00  0.00    +0.000 A 
ATOM     14  C   UNL     1      49.373   9.994  11.935  0.00  0.00    +0.000 A 
ENDBRANCH   8   9
ENDBRANCH   1   4
BRANCH   1  15
ATOM     15  C   UNL     1      44.116   5.298  10.670  0.00  0.00    +0.000 C 
BRANCH  15  16
ATOM     16  N   UNL     1      43.834   3.923  10.218  0.00  0.00    +0.000 N 
ATOM     17  H   UNL     1      42.871   3.805   9.908  0.00  0.00    +0.000 HD
BRANCH  16  18
ATOM     18  C   UNL     1      44.739   3.408   9.260  0.00  0.00    +0.000 A 
ATOM     19  C   UNL     1      45.416   4.231   8.350  0.00  0.00    +0.000 A 
ATOM     20  C   UNL     1      46.324   3.711   7.427  0.00  0.00    +0.000 A 
ATOM     21  C   UNL     1      46.625   2.351   7.421  0.00  0.00    +0.000 A 
ATOM     22  C   UNL     1      46.008   1.515   8.357  0.00  0.00    +0.000 A 
ATOM     23  C   UNL     1      45.084   2.047   9.277  0.00  0.00    +0.000 A 
BRANCH  21  24
ATOM     24  C   UNL     1      47.598   1.873   6.404  0.00  0.00    +0.000 C 
ATOM     25  N   UNL     1      48.719   2.632   6.200  0.00  0.00    +0.000 N 
ATOM     26  O   UNL     1      47.398   0.871   5.735  0.00  0.00    +0.000 OA
ATOM     27  H   UNL     1      48.792   3.584   6.529  0.00  0.00    +0.000 HD
ATOM     28  H   UNL     1      49.278   2.368   5.397  0.00  0.00    +0.000 HD
ENDBRANCH  21  24
ENDBRANCH  16  18
ENDBRANCH  15  16
ENDBRANCH   1  15
TORSDOF 6
ENDMDL
MODEL 5
REMARK VINA RESULT:    -7.003      1.976      3.967
REMARK INTER + INTRA:         -10.476
REMARK INTER:                 -10.699
REMARK INTRA:                   0.222
REMARK UNBOUND:                -1.016
REMARK  Name = 
REMARK  7 active torsions:
REMARK  status: ('A' for Active; 'I' for Inactive)
REMARK    1  A    between atoms: C_1  and  C_2
REMARK    2  A    between atoms: C_3  and  C_4
REMARK    3  A    between atoms: C_4  and  C_5
REMARK    4  A    between atoms: C_5  and  N_6
REMARK    5  A    between atoms: N_6  and  C_7
REMARK    6  A    between atoms: C_10  and  C_11
REMARK    7  A    between atoms: C_19  and  C_20
REMARK                            x       y       z     vdW  Elec       q    Type
REMARK                         _______ _______ _______ _____ _____    ______ ____
ROOT
ATOM      1  C   UNL     1      45.906   5.737  10.850  0.00  0.00    +0.000 C 
ENDROOT
BRANCH   1   4
ATOM      2  C   UNL     1      46.323   3.932  13.281  0.00  0.00    +0.000 C 
ATOM      3  C   UNL     1      46.797   5.368  13.288  0.00  0.00    +0.000 A 
ATOM      4  C   UNL     1      46.531   6.209  12.162  0.00  0.00    +0.000 A 
ATOM      5  C   UNL     1      46.939   7.554  12.195  0.00  0.00    +0.000 A 
ATOM      6  C   UNL     1      47.607   8.071  13.292  0.00  0.00    +0.000 A 
ATOM      7  C   UNL     1      47.905   7.244  14.371  0.00  0.00    +0.000 A 
ATOM      8  C   UNL     1      47.522   5.883  14.413  0.00  0.00    +0.000 A 
BRANCH   8   9
ATOM      9  C   UNL     1      47.909   5.096  15.632  0.00  0.00    +0.000 A 
ATOM     10  C   UNL     1      48.926   5.552  16.501  0.00  0.00    +0.000 A 
ATOM     11  C   UNL     1      49.341   4.815  17.619  0.00  0.00    +0.000 A 
ATOM     12  C   UNL     1      48.723   3.611  17.928  0.00  0.00    +0.000 A 
ATOM     13  C   UNL     1      47.721   3.127  17.096  0.00  0.00    +0.000 A 
ATOM     14  C   UNL     1      47.349   3.845  15.948  0.00  0.00    +0.000 A 
ENDBRANCH   8   9
ENDBRANCH   1   4
BRANCH   1  15
ATOM     15  C   UNL     1      44.383   5.650  11.002  0.00  0.00    +0.000 C 
BRANCH  15  16
ATOM     16  N   UNL     1      43.724   4.942   9.889  0.00  0.00    +0.000 N 
ATOM     17  H   UNL     1      43.290   5.580   9.224  0.00  0.00    +0.000 HD
BRANCH  16  18
ATOM     18  C   UNL     1      44.530   3.990   9.221  0.00  0.00    +0.000 A 
ATOM     19  C   UNL     1      45.468   4.355   8.246  0.00  0.00    +0.000 A 
ATOM     20  C   UNL     1      46.274   3.407   7.614  0.00  0.00    +0.000 A 
ATOM     21  C   UNL     1      46.204   2.065   7.977  0.00  0.00    +0.000 A 
ATOM     22  C   UNL     1      45.319   1.680   8.988  0.00  0.00    +0.000 A 
ATOM     23  C   UNL     1      44.501   2.642   9.613  0.00  0.00    +0.000 A 
BRANCH  21  24
ATOM     24  C   UNL     1      47.090   1.116   7.252  0.00  0.00    +0.000 C 
ATOM     25  N   UNL     1      48.086   1.650   6.480  0.00  0.00    +0.000 N 
ATOM     26  O   UNL     1      46.921  -0.093   7.296  0.00  0.00    +0.000 OA
ATOM     27  H   UNL     1      48.094   2.623   6.209  0.00  0.00    +0.000 HD
ATOM     28  H   UNL     1      48.567   0.990   5.880  0.00  0.00    +0.000 HD
ENDBRANCH  21  24
ENDBRANCH  16  18
ENDBRANCH  15  16
ENDBRANCH   1  15
TORSDOF 6
ENDMDL
MODEL 6
REMARK VINA RESULT:    -6.621      4.940      7.919
REMARK INTER + INTRA:          -9.960
REMARK INTER:                  -8.842
REMARK INTRA:                  -1.118
REMARK UNBOUND:                -1.016
REMARK  Name = 
REMARK  7 active torsions:
REMARK  status: ('A' for Active; 'I' for Inactive)
REMARK    1  A    between atoms: C_1  and  C_2
REMARK    2  A    between atoms: C_3  and  C_4
REMARK    3  A    between atoms: C_4  and  C_5
REMARK    4  A    between atoms: C_5  and  N_6
REMARK    5  A    between atoms: N_6  and  C_7
REMARK    6  A    between atoms: C_10  and  C_11
REMARK    7  A    between atoms: C_19  and  C_20
REMARK                            x       y       z     vdW  Elec       q    Type
REMARK                         _______ _______ _______ _____ _____    ______ ____
ROOT
ATOM      1  C   UNL     1      49.306   7.030  15.045  0.00  0.00    +0.000 C 
ENDROOT
BRANCH   1   4
ATOM      2  C   UNL     1      47.448   4.955  13.786  0.00  0.00    +0.000 C 
ATOM      3  C   UNL     1      47.246   6.433  13.537  0.00  0.00    +0.000 A 
ATOM      4  C   UNL     1      48.169   7.378  14.085  0.00  0.00    +0.000 A 
ATOM      5  C   UNL     1      47.997   8.746  13.813  0.00  0.00    +0.000 A 
ATOM      6  C   UNL     1      46.941   9.193  13.038  0.00  0.00    +0.000 A 
ATOM      7  C   UNL     1      46.016   8.279  12.538  0.00  0.00    +0.000 A 
ATOM      8  C   UNL     1      46.127   6.888  12.765  0.00  0.00    +0.000 A 
BRANCH   8   9
ATOM      9  C   UNL     1      45.062   6.007  12.176  0.00  0.00    +0.000 A 
ATOM     10  C   UNL     1      43.920   5.643  12.927  0.00  0.00    +0.000 A 
ATOM     11  C   UNL     1      42.934   4.785  12.421  0.00  0.00    +0.000 A 
ATOM     12  C   UNL     1      43.038   4.291  11.128  0.00  0.00    +0.000 A 
ATOM     13  C   UNL     1      44.147   4.622  10.360  0.00  0.00    +0.000 A 
ATOM     14  C   UNL     1      45.157   5.439  10.893  0.00  0.00    +0.000 A 
ENDBRANCH   8   9
ENDBRANCH   1   4
BRANCH   1  15
ATOM     15  C   UNL     1      48.817   7.152  16.493  0.00  0.00    +0.000 C 
BRANCH  15  16
ATOM     16  N   UNL     1      48.237   5.903  17.021  0.00  0.00    +0.000 N 
ATOM     17  H   UNL     1      47.404   5.615  16.511  0.00  0.00    +0.000 HD
BRANCH  16  18
ATOM     18  C   UNL     1      49.145   4.826  17.152  0.00  0.00    +0.000 A 
ATOM     19  C   UNL     1      50.488   5.017  17.507  0.00  0.00    +0.000 A 
ATOM     20  C   UNL     1      51.366   3.942  17.657  0.00  0.00    +0.000 A 
ATOM     21  C   UNL     1      50.913   2.634  17.509  0.00  0.00    +0.000 A 
ATOM     22  C   UNL     1      49.565   2.412  17.212  0.00  0.00    +0.000 A 
ATOM     23  C   UNL     1      48.688   3.502  17.051  0.00  0.00    +0.000 A 
BRANCH  21  24
ATOM     24  C   UNL     1      51.910   1.545  17.678  0.00  0.00    +0.000 C 
ATOM     25  N   UNL     1      51.442   0.318  18.069  0.00  0.00    +0.000 N 
ATOM     26  O   UNL     1      53.107   1.731  17.526  0.00  0.00    +0.000 OA
ATOM     27  H   UNL     1      50.519   0.194  18.456  0.00  0.00    +0.000 HD
ATOM     28  H   UNL     1      52.156  -0.352  18.328  0.00  0.00    +0.000 HD
ENDBRANCH  21  24
ENDBRANCH  16  18
ENDBRANCH  15  16
ENDBRANCH   1  15
TORSDOF 6
ENDMDL
MODEL 7
REMARK VINA RESULT:    -6.419      5.046      7.031
REMARK INTER + INTRA:          -9.687
REMARK INTER:                  -8.665
REMARK INTRA:                  -1.022
REMARK UNBOUND:                -1.016
REMARK  Name = 
REMARK  7 active torsions:
REMARK  status: ('A' for Active; 'I' for Inactive)
REMARK    1  A    between atoms: C_1  and  C_2
REMARK    2  A    between atoms: C_3  and  C_4
REMARK    3  A    between atoms: C_4  and  C_5
REMARK    4  A    between atoms: C_5  and  N_6
REMARK    5  A    between atoms: N_6  and  C_7
REMARK    6  A    between atoms: C_10  and  C_11
REMARK    7  A    between atoms: C_19  and  C_20
REMARK                            x       y       z     vdW  Elec       q    Type
REMARK                         _______ _______ _______ _____ _____    ______ ____
ROOT
ATOM      1  C   UNL     1      48.773   7.078  15.634  0.00  0.00    +0.000 C 
ENDROOT
BRANCH   1   4
ATOM      2  C   UNL     1      51.533   6.303  16.694  0.00  0.00    +0.000 C 
ATOM      3  C   UNL     1      50.325   5.433  16.960  0.00  0.00    +0.000 A 
ATOM      4  C   UNL     1      49.058   5.785  16.396  0.00  0.00    +0.000 A 
ATOM      5  C   UNL     1      47.951   4.947  16.614  0.00  0.00    +0.000 A 
ATOM      6  C   UNL     1      48.064   3.797  17.377  0.00  0.00    +0.000 A 
ATOM      7  C   UNL     1      49.286   3.474  17.962  0.00  0.00    +0.000 A 
ATOM      8  C   UNL     1      50.445   4.265  17.783  0.00  0.00    +0.000 A 
BRANCH   8   9
ATOM      9  C   UNL     1      51.700   3.812  18.472  0.00  0.00    +0.000 A 
ATOM     10  C   UNL     1      52.462   2.735  17.964  0.00  0.00    +0.000 A 
ATOM     11  C   UNL     1      53.611   2.260  18.611  0.00  0.00    +0.000 A 
ATOM     12  C   UNL     1      54.060   2.874  19.773  0.00  0.00    +0.000 A 
ATOM     13  C   UNL     1      53.336   3.933  20.306  0.00  0.00    +0.000 A 
ATOM     14  C   UNL     1      52.156   4.368  19.681  0.00  0.00    +0.000 A 
ENDBRANCH   8   9
ENDBRANCH   1   4
BRANCH   1  15
ATOM     15  C   UNL     1      48.415   6.754  14.179  0.00  0.00    +0.000 C 
BRANCH  15  16
ATOM     16  N   UNL     1      47.100   7.280  13.769  0.00  0.00    +0.000 N 
ATOM     17  H   UNL     1      47.157   8.228  13.401  0.00  0.00    +0.000 HD
BRANCH  16  18
ATOM     18  C   UNL     1      46.363   6.444  12.897  0.00  0.00    +0.000 A 
ATOM     19  C   UNL     1      46.246   6.709  11.526  0.00  0.00    +0.000 A 
ATOM     20  C   UNL     1      45.537   5.862  10.674  0.00  0.00    +0.000 A 
ATOM     21  C   UNL     1      44.965   4.689  11.159  0.00  0.00    +0.000 A 
ATOM     22  C   UNL     1      45.116   4.369  12.511  0.00  0.00    +0.000 A 
ATOM     23  C   UNL     1      45.823   5.236  13.367  0.00  0.00    +0.000 A 
BRANCH  21  24
ATOM     24  C   UNL     1      44.221   3.842  10.190  0.00  0.00    +0.000 C 
ATOM     25  N   UNL     1      44.080   4.321   8.915  0.00  0.00    +0.000 N 
ATOM     26  O   UNL     1      43.709   2.782  10.514  0.00  0.00    +0.000 OA
ATOM     27  H   UNL     1      44.250   5.288   8.682  0.00  0.00    +0.000 HD
ATOM     28  H   UNL     1      43.438   3.800   8.328  0.00  0.00    +0.000 HD
ENDBRANCH  21  24
ENDBRANCH  16  18
ENDBRANCH  15  16
ENDBRANCH   1  15
TORSDOF 6
ENDMDL
MODEL 8
REMARK VINA RESULT:    -6.326      4.209      7.813
REMARK INTER + INTRA:          -9.561
REMARK INTER:                  -7.111
REMARK INTRA:                  -2.450
REMARK UNBOUND:                -1.016
REMARK  Name = 
REMARK  7 active torsions:
REMARK  status: ('A' for Active; 'I' for Inactive)
REMARK    1  A    between atoms: C_1  and  C_2
REMARK    2  A    between atoms: C_3  and  C_4
REMARK    3  A    between atoms: C_4  and  C_5
REMARK    4  A    between atoms: C_5  and  N_6
REMARK    5  A    between atoms: N_6  and  C_7
REMARK    6  A    between atoms: C_10  and  C_11
REMARK    7  A    between atoms: C_19  and  C_20
REMARK                            x       y       z     vdW  Elec       q    Type
REMARK                         _______ _______ _______ _____ _____    ______ ____
ROOT
ATOM      1  C   UNL     1      49.699  10.319  11.745  0.00  0.00    +0.000 C 
ENDROOT
BRANCH   1   4
ATOM      2  C   UNL     1      49.241   7.297  11.758  0.00  0.00    +0.000 C 
ATOM      3  C   UNL     1      48.085   8.260  11.912  0.00  0.00    +0.000 A 
ATOM      4  C   UNL     1      48.319   9.669  11.836  0.00  0.00    +0.000 A 
ATOM      5  C   UNL     1      47.233  10.554  11.938  0.00  0.00    +0.000 A 
ATOM      6  C   UNL     1      45.944  10.085  12.126  0.00  0.00    +0.000 A 
ATOM      7  C   UNL     1      45.718   8.716  12.243  0.00  0.00    +0.000 A 
ATOM      8  C   UNL     1      46.760   7.764  12.145  0.00  0.00    +0.000 A 
BRANCH   8   9
ATOM      9  C   UNL     1      46.386   6.317  12.294  0.00  0.00    +0.000 A 
ATOM     10  C   UNL     1      45.592   5.666  11.322  0.00  0.00    +0.000 A 
ATOM     11  C   UNL     1      45.189   4.330  11.458  0.00  0.00    +0.000 A 
ATOM     12  C   UNL     1      45.600   3.587  12.556  0.00  0.00    +0.000 A 
ATOM     13  C   UNL     1      46.378   4.192  13.535  0.00  0.00    +0.000 A 
ATOM     14  C   UNL     1      46.733   5.546  13.418  0.00  0.00    +0.000 A 
ENDBRANCH   8   9
ENDBRANCH   1   4
BRANCH   1  15
ATOM     15  C   UNL     1      49.897  11.283  12.920  0.00  0.00    +0.000 C 
BRANCH  15  16
ATOM     16  N   UNL     1      50.721  10.721  14.006  0.00  0.00    +0.000 N 
ATOM     17  H   UNL     1      50.964  11.416  14.710  0.00  0.00    +0.000 HD
BRANCH  16  18
ATOM     18  C   UNL     1      50.203   9.552  14.610  0.00  0.00    +0.000 A 
ATOM     19  C   UNL     1      50.937   8.361  14.691  0.00  0.00    +0.000 A 
ATOM     20  C   UNL     1      50.423   7.223  15.313  0.00  0.00    +0.000 A 
ATOM     21  C   UNL     1      49.171   7.256  15.923  0.00  0.00    +0.000 A 
ATOM     22  C   UNL     1      48.441   8.448  15.909  0.00  0.00    +0.000 A 
ATOM     23  C   UNL     1      48.963   9.588  15.269  0.00  0.00    +0.000 A 
BRANCH  21  24
ATOM     24  C   UNL     1      48.690   6.001  16.559  0.00  0.00    +0.000 C 
ATOM     25  N   UNL     1      47.797   6.121  17.590  0.00  0.00    +0.000 N 
ATOM     26  O   UNL     1      49.101   4.903  16.219  0.00  0.00    +0.000 OA
ATOM     27  H   UNL     1      47.642   6.996  18.069  0.00  0.00    +0.000 HD
ATOM     28  H   UNL     1      47.613   5.266  18.102  0.00  0.00    +0.000 HD
ENDBRANCH  21  24
ENDBRANCH  16  18
ENDBRANCH  15  16
ENDBRANCH   1  15
TORSDOF 6
ENDMDL
MODEL 9
REMARK VINA RESULT:    -5.854      4.439      7.852
REMARK INTER + INTRA:          -8.923
REMARK INTER:                  -7.664
REMARK INTRA:                  -1.259
REMARK UNBOUND:                -1.016
REMARK  Name = 
REMARK  7 active torsions:
REMARK  status: ('A' for Active; 'I' for Inactive)
REMARK    1  A    between atoms: C_1  and  C_2
REMARK    2  A    between atoms: C_3  and  C_4
REMARK    3  A    between atoms: C_4  and  C_5
REMARK    4  A    between atoms: C_5  and  N_6
REMARK    5  A    between atoms: N_6  and  C_7
REMARK    6  A    between atoms: C_10  and  C_11
REMARK    7  A    between atoms: C_19  and  C_20
REMARK                            x       y       z     vdW  Elec       q    Type
REMARK                         _______ _______ _______ _____ _____    ______ ____
ROOT
ATOM      1  C   UNL     1      48.815   9.025  12.942  0.00  0.00    +0.000 C 
ENDROOT
BRANCH   1   4
ATOM      2  C   UNL     1      47.792   6.165  12.604  0.00  0.00    +0.000 C 
ATOM      3  C   UNL     1      46.894   7.350  12.329  0.00  0.00    +0.000 A 
ATOM      4  C   UNL     1      47.417   8.677  12.432  0.00  0.00    +0.000 A 
ATOM      5  C   UNL     1      46.586   9.770  12.134  0.00  0.00    +0.000 A 
ATOM      6  C   UNL     1      45.267   9.583  11.759  0.00  0.00    +0.000 A 
ATOM      7  C   UNL     1      44.742   8.295  11.699  0.00  0.00    +0.000 A 
ATOM      8  C   UNL     1      45.518   7.146  11.979  0.00  0.00    +0.000 A 
BRANCH   8   9
ATOM      9  C   UNL     1      44.833   5.812  11.885  0.00  0.00    +0.000 A 
ATOM     10  C   UNL     1      44.805   5.092  10.669  0.00  0.00    +0.000 A 
ATOM     11  C   UNL     1      44.134   3.869  10.540  0.00  0.00    +0.000 A 
ATOM     12  C   UNL     1      43.497   3.304  11.637  0.00  0.00    +0.000 A 
ATOM     13  C   UNL     1      43.499   3.983  12.849  0.00  0.00    +0.000 A 
ATOM     14  C   UNL     1      44.128   5.234  12.956  0.00  0.00    +0.000 A 
ENDBRANCH   8   9
ENDBRANCH   1   4
BRANCH   1  15
ATOM     15  C   UNL     1      48.810   9.077  14.474  0.00  0.00    +0.000 C 
BRANCH  15  16
ATOM     16  N   UNL     1      50.052   8.564  15.080  0.00  0.00    +0.000 N 
ATOM     17  H   UNL     1      50.509   9.253  15.675  0.00  0.00    +0.000 HD
BRANCH  16  18
ATOM     18  C   UNL     1      49.927   7.324  15.750  0.00  0.00    +0.000 A 
ATOM     19  C   UNL     1      51.009   6.706  16.391  0.00  0.00    +0.000 A 
ATOM     20  C   UNL     1      50.864   5.495  17.070  0.00  0.00    +0.000 A 
ATOM     21  C   UNL     1      49.615   4.889  17.175  0.00  0.00    +0.000 A 
ATOM     22  C   UNL     1      48.507   5.513  16.595  0.00  0.00    +0.000 A 
ATOM     23  C   UNL     1      48.664   6.730  15.902  0.00  0.00    +0.000 A 
BRANCH  21  24
ATOM     24  C   UNL     1      49.544   3.598  17.909  0.00  0.00    +0.000 C 
ATOM     25  N   UNL     1      50.653   2.796  17.879  0.00  0.00    +0.000 N 
ATOM     26  O   UNL     1      48.529   3.231  18.479  0.00  0.00    +0.000 OA
ATOM     27  H   UNL     1      51.399   2.934  17.214  0.00  0.00    +0.000 HD
ATOM     28  H   UNL     1      50.519   1.863  18.250  0.00  0.00    +0.000 HD
ENDBRANCH  21  24
ENDBRANCH  16  18
ENDBRANCH  15  16
ENDBRANCH   1  15
TORSDOF 6
ENDMDL
