MODEL 1
REMARK VINA RESULT:    -8.571      0.000      0.000
REMARK INTER + INTRA:         -13.859
REMARK INTER:                 -12.831
REMARK INTRA:                  -1.028
REMARK UNBOUND:                -1.028
REMARK  Name = 
REMARK  10 active torsions:
REMARK  status: ('A' for Active; 'I' for Inactive)
REMARK    1  A    between atoms: C_1  and  N_2
REMARK    2  A    between atoms: N_2  and  C_3
REMARK    3  A    between atoms: N_2  and  C_10
REMARK    4  A    between atoms: C_3  and  C_4
REMARK    5  A    between atoms: C_10  and  C_11
REMARK    6  A    between atoms: C_10  and  C_13
REMARK    7  A    between atoms: C_11  and  N_12
REMARK    8  A    between atoms: C_16  and  C_17
REMARK    9  A    between atoms: C_17  and  N_18
REMARK   10  A    between atoms: C_19  and  C_21
REMARK                            x       y       z     vdW  Elec       q    Type
REMARK                         _______ _______ _______ _____ _____    ______ ____
ROOT
ATOM      1  C   UNL     1      45.351   5.229  11.693  0.00  0.00    +0.000 A 
ATOM      2  C   UNL     1      45.644   4.774  12.989  0.00  0.00    +0.000 A 
ATOM      3  C   UNL     1      46.712   5.310  13.713  0.00  0.00    +0.000 A 
ATOM      4  C   UNL     1      47.483   6.348  13.173  0.00  0.00    +0.000 A 
ATOM      5  C   UNL     1      47.191   6.811  11.885  0.00  0.00    +0.000 A 
ATOM      6  C   UNL     1      46.150   6.246  11.148  0.00  0.00    +0.000 A 
ENDROOT
BRANCH   1   7
ATOM      7  C   UNL     1      44.226   4.566  10.882  0.00  0.00    +0.000 C 
BRANCH   7   9
ATOM      8  C   UNL     1      43.284   2.469  11.785  0.00  0.00    +0.000 C 
ATOM      9  N   UNL     1      44.298   3.075  10.930  0.00  0.00    +0.000 NA
BRANCH   9  10
ATOM     10  C   UNL     1      44.394   2.431   9.602  0.00  0.00    +0.000 C 
BRANCH  10  11
ATOM     11  C   UNL     1      45.695   2.581   8.776  0.00  0.00    +0.000 C 
ATOM     12  C   UNL     1      45.596   3.659   7.685  0.00  0.00    +0.000 C 
ATOM     13  C   UNL     1      46.862   3.750   6.844  0.00  0.00    +0.000 C 
ATOM     14  C   UNL     1      47.225   2.407   6.230  0.00  0.00    +0.000 C 
ATOM     15  C   UNL     1      47.336   1.326   7.299  0.00  0.00    +0.000 C 
ATOM     16  C   UNL     1      46.061   1.227   8.134  0.00  0.00    +0.000 C 
ENDBRANCH  10  11
ENDBRANCH   9  10
ENDBRANCH   7   9
BRANCH   7  17
ATOM     17  C   UNL     1      42.849   5.143  11.386  0.00  0.00    +0.000 C 
BRANCH  17  18
ATOM     18  N   UNL     1      42.600   6.558  11.060  0.00  0.00    +0.000 NA
ATOM     19  H   UNL     1      43.500   7.038  11.007  0.00  0.00    +0.000 HD
ATOM     20  H   UNL     1      42.103   6.993  11.835  0.00  0.00    +0.000 HD
ENDBRANCH  17  18
ENDBRANCH   7  17
ENDBRANCH   1   7
BRANCH   4  21
ATOM     21  C   UNL     1      48.654   6.916  13.929  0.00  0.00    +0.000 C 
BRANCH  21  22
ATOM     22  N   UNL     1      48.334   7.065  15.328  0.00  0.00    +0.000 N 
ATOM     23  C   UNL     1      49.224   6.688  16.299  0.00  0.00    +0.000 C 
ATOM     24  O   UNL     1      50.338   6.252  16.020  0.00  0.00    +0.000 OA
ATOM     25  H   UNL     1      47.360   7.217  15.566  0.00  0.00    +0.000 HD
BRANCH  23  26
ATOM     26  C   UNL     1      48.804   6.882  17.691  0.00  0.00    +0.000 A 
ATOM     27  C   UNL     1      48.357   8.134  18.095  0.00  0.00    +0.000 A 
ATOM     28  S   UNL     1      47.858   8.190  19.723  0.00  0.00    +0.000 S 
ATOM     29  C   UNL     1      48.267   6.557  19.961  0.00  0.00    +0.000 A 
ATOM     30  N   UNL     1      48.102   5.969  21.176  0.00  0.00    +0.000 NA
ATOM     31  C   UNL     1      48.477   4.735  21.225  0.00  0.00    +0.000 A 
ATOM     32  N   UNL     1      48.998   4.033  20.169  0.00  0.00    +0.000 N 
ATOM     33  C   UNL     1      49.152   4.575  18.912  0.00  0.00    +0.000 A 
ATOM     34  O   UNL     1      49.576   3.906  17.977  0.00  0.00    +0.000 OA
ATOM     35  C   UNL     1      48.760   5.969  18.810  0.00  0.00    +0.000 A 
ATOM     36  H   UNL     1      49.262   3.064  20.272  0.00  0.00    +0.000 HD
ENDBRANCH  23  26
ENDBRANCH  21  22
ENDBRANCH   4  21
TORSDOF 9
ENDMDL
MODEL 2
REMARK VINA RESULT:    -8.457      1.239      2.076
REMARK INTER + INTRA:         -13.688
REMARK INTER:                 -12.393
REMARK INTRA:                  -1.295
REMARK UNBOUND:                -1.028
REMARK  Name = 
REMARK  10 active torsions:
REMARK  status: ('A' for Active; 'I' for Inactive)
REMARK    1  A    between atoms: C_1  and  N_2
REMARK    2  A    between atoms: N_2  and  C_3
REMARK    3  A    between atoms: N_2  and  C_10
REMARK    4  A    between atoms: C_3  and  C_4
REMARK    5  A    between atoms: C_10  and  C_11
REMARK    6  A    between atoms: C_10  and  C_13
REMARK    7  A    between atoms: C_11  and  N_12
REMARK    8  A    between atoms: C_16  and  C_17
REMARK    9  A    between atoms: C_17  and  N_18
REMARK   10  A    between atoms: C_19  and  C_21
REMARK                            x       y       z     vdW  Elec       q    Type
REMARK                         _______ _______ _______ _____ _____    ______ ____
ROOT
ATOM      1  C   UNL     1      45.414   5.147  11.711  0.00  0.00    +0.000 A 
ATOM      2  C   UNL     1      46.189   6.180  11.159  0.00  0.00    +0.000 A 
ATOM      3  C   UNL     1      47.192   6.803  11.907  0.00  0.00    +0.000 A 
ATOM      4  C   UNL     1      47.473   6.374  13.210  0.00  0.00    +0.000 A 
ATOM      5  C   UNL     1      46.710   5.339  13.764  0.00  0.00    +0.000 A 
ATOM      6  C   UNL     1      45.682   4.747  13.030  0.00  0.00    +0.000 A 
ENDROOT
BRANCH   1   7
ATOM      7  C   UNL     1      44.261   4.534  10.902  0.00  0.00    +0.000 C 
BRANCH   7   9
ATOM      8  C   UNL     1      43.277   2.438  11.760  0.00  0.00    +0.000 C 
ATOM      9  N   UNL     1      44.297   3.041  10.910  0.00  0.00    +0.000 NA
BRANCH   9  10
ATOM     10  C   UNL     1      44.363   2.430   9.564  0.00  0.00    +0.000 C 
BRANCH  10  11
ATOM     11  C   UNL     1      45.661   2.562   8.732  0.00  0.00    +0.000 C 
ATOM     12  C   UNL     1      45.542   3.579   7.586  0.00  0.00    +0.000 C 
ATOM     13  C   UNL     1      46.807   3.651   6.742  0.00  0.00    +0.000 C 
ATOM     14  C   UNL     1      47.197   2.286   6.199  0.00  0.00    +0.000 C 
ATOM     15  C   UNL     1      47.330   1.265   7.324  0.00  0.00    +0.000 C 
ATOM     16  C   UNL     1      46.055   1.184   8.162  0.00  0.00    +0.000 C 
ENDBRANCH  10  11
ENDBRANCH   9  10
ENDBRANCH   7   9
BRANCH   7  17
ATOM     17  C   UNL     1      42.907   5.131  11.442  0.00  0.00    +0.000 C 
BRANCH  17  18
ATOM     18  N   UNL     1      42.655   6.540  11.094  0.00  0.00    +0.000 NA
ATOM     19  H   UNL     1      43.008   6.705  10.150  0.00  0.00    +0.000 HD
ATOM     20  H   UNL     1      43.213   7.135  11.703  0.00  0.00    +0.000 HD
ENDBRANCH  17  18
ENDBRANCH   7  17
ENDBRANCH   1   7
BRANCH   4  21
ATOM     21  C   UNL     1      48.531   7.054  14.037  0.00  0.00    +0.000 C 
BRANCH  21  22
ATOM     22  N   UNL     1      48.309   6.818  15.444  0.00  0.00    +0.000 N 
ATOM     23  C   UNL     1      49.345   6.473  16.271  0.00  0.00    +0.000 C 
ATOM     24  O   UNL     1      50.500   6.395  15.864  0.00  0.00    +0.000 OA
ATOM     25  H   UNL     1      47.351   6.671  15.743  0.00  0.00    +0.000 HD
BRANCH  23  26
ATOM     26  C   UNL     1      49.016   6.256  17.684  0.00  0.00    +0.000 A 
ATOM     27  C   UNL     1      49.306   5.029  18.267  0.00  0.00    +0.000 A 
ATOM     28  S   UNL     1      48.913   4.947  19.923  0.00  0.00    +0.000 S 
ATOM     29  C   UNL     1      48.297   6.532  19.910  0.00  0.00    +0.000 A 
ATOM     30  N   UNL     1      47.771   7.082  21.038  0.00  0.00    +0.000 NA
ATOM     31  C   UNL     1      47.315   8.279  20.883  0.00  0.00    +0.000 A 
ATOM     32  N   UNL     1      47.341   8.979  19.704  0.00  0.00    +0.000 N 
ATOM     33  C   UNL     1      47.894   8.477  18.546  0.00  0.00    +0.000 A 
ATOM     34  O   UNL     1      47.945   9.149  17.522  0.00  0.00    +0.000 OA
ATOM     35  C   UNL     1      48.405   7.124  18.665  0.00  0.00    +0.000 A 
ATOM     36  H   UNL     1      46.977   9.920  19.653  0.00  0.00    +0.000 HD
ENDBRANCH  23  26
ENDBRANCH  21  22
ENDBRANCH   4  21
TORSDOF 9
ENDMDL
MODEL 3
REMARK VINA RESULT:    -7.524      2.236      2.629
REMARK INTER + INTRA:         -12.291
REMARK INTER:                 -11.076
REMARK INTRA:                  -1.215
REMARK UNBOUND:                -1.028
REMARK  Name = 
REMARK  10 active torsions:
REMARK  status: ('A' for Active; 'I' for Inactive)
REMARK    1  A    between atoms: C_1  and  N_2
REMARK    2  A    between atoms: N_2  and  C_3
REMARK    3  A    between atoms: N_2  and  C_10
REMARK    4  A    between atoms: C_3  and  C_4
REMARK    5  A    between atoms: C_10  and  C_11
REMARK    6  A    between atoms: C_10  and  C_13
REMARK    7  A    between atoms: C_11  and  N_12
REMARK    8  A    between atoms: C_16  and  C_17
REMARK    9  A    between atoms: C_17  and  N_18
REMARK   10  A    between atoms: C_19  and  C_21
REMARK                            x       y       z     vdW  Elec       q    Type
REMARK                         _______ _______ _______ _____ _____    ______ ____
ROOT
ATOM      1  C   UNL     1      45.013   6.070  11.669  0.00  0.00    +0.000 A 
ATOM      2  C   UNL     1      46.282   5.913  11.089  0.00  0.00    +0.000 A 
ATOM      3  C   UNL     1      47.334   6.771  11.422  0.00  0.00    +0.000 A 
ATOM      4  C   UNL     1      47.151   7.777  12.379  0.00  0.00    +0.000 A 
ATOM      5  C   UNL     1      45.891   7.934  12.966  0.00  0.00    +0.000 A 
ATOM      6  C   UNL     1      44.831   7.103  12.602  0.00  0.00    +0.000 A 
ENDROOT
BRANCH   1   7
ATOM      7  C   UNL     1      43.849   5.171  11.225  0.00  0.00    +0.000 C 
BRANCH   7   9
ATOM      8  C   UNL     1      43.574   2.922  12.210  0.00  0.00    +0.000 C 
ATOM      9  N   UNL     1      44.233   3.728  11.188  0.00  0.00    +0.000 NA
BRANCH   9  10
ATOM     10  C   UNL     1      44.167   3.119   9.841  0.00  0.00    +0.000 C 
BRANCH  10  11
ATOM     11  C   UNL     1      45.476   2.888   9.047  0.00  0.00    +0.000 C 
ATOM     12  C   UNL     1      45.642   3.856   7.864  0.00  0.00    +0.000 C 
ATOM     13  C   UNL     1      46.903   3.575   7.059  0.00  0.00    +0.000 C 
ATOM     14  C   UNL     1      46.949   2.134   6.574  0.00  0.00    +0.000 C 
ATOM     15  C   UNL     1      46.795   1.158   7.735  0.00  0.00    +0.000 C 
ATOM     16  C   UNL     1      45.523   1.433   8.535  0.00  0.00    +0.000 C 
ENDBRANCH  10  11
ENDBRANCH   9  10
ENDBRANCH   7   9
BRANCH   7  17
ATOM     17  C   UNL     1      42.614   5.466  12.158  0.00  0.00    +0.000 C 
BRANCH  17  18
ATOM     18  N   UNL     1      41.738   6.565  11.716  0.00  0.00    +0.000 NA
ATOM     19  H   UNL     1      41.532   6.432  10.725  0.00  0.00    +0.000 HD
ATOM     20  H   UNL     1      42.253   7.441  11.774  0.00  0.00    +0.000 HD
ENDBRANCH  17  18
ENDBRANCH   7  17
ENDBRANCH   1   7
BRANCH   4  21
ATOM     21  C   UNL     1      48.266   8.726  12.727  0.00  0.00    +0.000 C 
BRANCH  21  22
ATOM     22  N   UNL     1      49.302   8.047  13.466  0.00  0.00    +0.000 N 
ATOM     23  C   UNL     1      49.391   8.167  14.828  0.00  0.00    +0.000 C 
ATOM     24  O   UNL     1      48.572   8.816  15.474  0.00  0.00    +0.000 OA
ATOM     25  H   UNL     1      50.092   7.693  12.937  0.00  0.00    +0.000 HD
BRANCH  23  26
ATOM     26  C   UNL     1      50.478   7.435  15.486  0.00  0.00    +0.000 A 
ATOM     27  C   UNL     1      51.789   7.856  15.298  0.00  0.00    +0.000 A 
ATOM     28  S   UNL     1      52.934   6.939  16.165  0.00  0.00    +0.000 S 
ATOM     29  C   UNL     1      51.724   5.917  16.786  0.00  0.00    +0.000 A 
ATOM     30  N   UNL     1      52.044   4.880  17.606  0.00  0.00    +0.000 NA
ATOM     31  C   UNL     1      51.035   4.168  17.982  0.00  0.00    +0.000 A 
ATOM     32  N   UNL     1      49.735   4.402  17.618  0.00  0.00    +0.000 N 
ATOM     33  C   UNL     1      49.358   5.459  16.818  0.00  0.00    +0.000 A 
ATOM     34  O   UNL     1      48.181   5.667  16.551  0.00  0.00    +0.000 OA
ATOM     35  C   UNL     1      50.462   6.279  16.353  0.00  0.00    +0.000 A 
ATOM     36  H   UNL     1      48.988   3.812  17.957  0.00  0.00    +0.000 HD
ENDBRANCH  23  26
ENDBRANCH  21  22
ENDBRANCH   4  21
TORSDOF 9
ENDMDL
MODEL 4
REMARK VINA RESULT:    -7.250      3.450      5.482
REMARK INTER + INTRA:         -11.881
REMARK INTER:                 -10.070
REMARK INTRA:                  -1.811
REMARK UNBOUND:                -1.028
REMARK  Name = 
REMARK  10 active torsions:
REMARK  status: ('A' for Active; 'I' for Inactive)
REMARK    1  A    between atoms: C_1  and  N_2
REMARK    2  A    between atoms: N_2  and  C_3
REMARK    3  A    between atoms: N_2  and  C_10
REMARK    4  A    between atoms: C_3  and  C_4
REMARK    5  A    between atoms: C_10  and  C_11
REMARK    6  A    between atoms: C_10  and  C_13
REMARK    7  A    between atoms: C_11  and  N_12
REMARK    8  A    between atoms: C_16  and  C_17
REMARK    9  A    between atoms: C_17  and  N_18
REMARK   10  A    between atoms: C_19  and  C_21
REMARK                            x       y       z     vdW  Elec       q    Type
REMARK                         _______ _______ _______ _____ _____    ______ ____
ROOT
ATOM      1  C   UNL     1      47.463   5.986  13.705  0.00  0.00    +0.000 A 
ATOM      2  C   UNL     1      48.128   6.401  14.871  0.00  0.00    +0.000 A 
ATOM      3  C   UNL     1      48.218   5.560  15.983  0.00  0.00    +0.000 A 
ATOM      4  C   UNL     1      47.686   4.265  15.936  0.00  0.00    +0.000 A 
ATOM      5  C   UNL     1      47.030   3.842  14.775  0.00  0.00    +0.000 A 
ATOM      6  C   UNL     1      46.904   4.699  13.681  0.00  0.00    +0.000 A 
ENDROOT
BRANCH   1   7
ATOM      7  C   UNL     1      47.300   6.957  12.526  0.00  0.00    +0.000 C 
BRANCH   7   9
ATOM      8  C   UNL     1      46.027   9.060  12.765  0.00  0.00    +0.000 C 
ATOM      9  N   UNL     1      45.964   7.624  12.523  0.00  0.00    +0.000 NA
BRANCH   9  10
ATOM     10  C   UNL     1      45.114   7.270  11.365  0.00  0.00    +0.000 C 
BRANCH  10  11
ATOM     11  C   UNL     1      44.182   6.037  11.455  0.00  0.00    +0.000 C 
ATOM     12  C   UNL     1      43.857   5.630  12.901  0.00  0.00    +0.000 C 
ATOM     13  C   UNL     1      42.990   4.381  12.971  0.00  0.00    +0.000 C 
ATOM     14  C   UNL     1      43.623   3.218  12.223  0.00  0.00    +0.000 C 
ATOM     15  C   UNL     1      43.945   3.599  10.783  0.00  0.00    +0.000 C 
ATOM     16  C   UNL     1      44.825   4.846  10.714  0.00  0.00    +0.000 C 
ENDBRANCH  10  11
ENDBRANCH   9  10
ENDBRANCH   7   9
BRANCH   7  17
ATOM     17  C   UNL     1      48.506   7.972  12.553  0.00  0.00    +0.000 C 
BRANCH  17  18
ATOM     18  N   UNL     1      49.658   7.605  11.712  0.00  0.00    +0.000 NA
ATOM     19  H   UNL     1      50.394   7.238  12.318  0.00  0.00    +0.000 HD
ATOM     20  H   UNL     1      50.044   8.450  11.295  0.00  0.00    +0.000 HD
ENDBRANCH  17  18
ENDBRANCH   7  17
ENDBRANCH   1   7
BRANCH   4  21
ATOM     21  C   UNL     1      47.752   3.358  17.136  0.00  0.00    +0.000 C 
BRANCH  21  22
ATOM     22  N   UNL     1      49.118   3.175  17.563  0.00  0.00    +0.000 N 
ATOM     23  C   UNL     1      49.940   2.281  16.930  0.00  0.00    +0.000 C 
ATOM     24  O   UNL     1      49.566   1.637  15.953  0.00  0.00    +0.000 OA
ATOM     25  H   UNL     1      49.368   3.532  18.479  0.00  0.00    +0.000 HD
BRANCH  23  26
ATOM     26  C   UNL     1      51.311   2.171  17.439  0.00  0.00    +0.000 A 
ATOM     27  C   UNL     1      51.858   0.910  17.645  0.00  0.00    +0.000 A 
ATOM     28  S   UNL     1      53.472   0.944  18.189  0.00  0.00    +0.000 S 
ATOM     29  C   UNL     1      53.484   2.644  18.214  0.00  0.00    +0.000 A 
ATOM     30  N   UNL     1      54.591   3.325  18.617  0.00  0.00    +0.000 NA
ATOM     31  C   UNL     1      54.456   4.609  18.614  0.00  0.00    +0.000 A 
ATOM     32  N   UNL     1      53.317   5.275  18.241  0.00  0.00    +0.000 N 
ATOM     33  C   UNL     1      52.184   4.629  17.794  0.00  0.00    +0.000 A 
ATOM     34  O   UNL     1      51.199   5.257  17.422  0.00  0.00    +0.000 OA
ATOM     35  C   UNL     1      52.280   3.181  17.796  0.00  0.00    +0.000 A 
ATOM     36  H   UNL     1      53.280   6.284  18.251  0.00  0.00    +0.000 HD
ENDBRANCH  23  26
ENDBRANCH  21  22
ENDBRANCH   4  21
TORSDOF 9
ENDMDL
MODEL 5
REMARK VINA RESULT:    -7.214      3.765     10.222
REMARK INTER + INTRA:         -11.827
REMARK INTER:                  -9.784
REMARK INTRA:                  -2.044
REMARK UNBOUND:                -1.028
REMARK  Name = 
REMARK  10 active torsions:
REMARK  status: ('A' for Active; 'I' for Inactive)
REMARK    1  A    between atoms: C_1  and  N_2
REMARK    2  A    between atoms: N_2  and  C_3
REMARK    3  A    between atoms: N_2  and  C_10
REMARK    4  A    between atoms: C_3  and  C_4
REMARK    5  A    between atoms: C_10  and  C_11
REMARK    6  A    between atoms: C_10  and  C_13
REMARK    7  A    between atoms: C_11  and  N_12
REMARK    8  A    between atoms: C_16  and  C_17
REMARK    9  A    between atoms: C_17  and  N_18
REMARK   10  A    between atoms: C_19  and  C_21
REMARK                            x       y       z     vdW  Elec       q    Type
REMARK                         _______ _______ _______ _____ _____    ______ ____
ROOT
ATOM      1  C   UNL     1      51.228   4.891  17.924  0.00  0.00    +0.000 A 
ATOM      2  C   UNL     1      50.936   3.518  17.918  0.00  0.00    +0.000 A 
ATOM      3  C   UNL     1      49.694   3.050  17.480  0.00  0.00    +0.000 A 
ATOM      4  C   UNL     1      48.732   3.945  16.995  0.00  0.00    +0.000 A 
ATOM      5  C   UNL     1      49.020   5.314  16.990  0.00  0.00    +0.000 A 
ATOM      6  C   UNL     1      50.245   5.782  17.466  0.00  0.00    +0.000 A 
ENDROOT
BRANCH   1   7
ATOM      7  C   UNL     1      52.567   5.390  18.489  0.00  0.00    +0.000 C 
BRANCH   7   9
ATOM      8  C   UNL     1      53.929   4.921  20.496  0.00  0.00    +0.000 C 
ATOM      9  N   UNL     1      52.620   5.302  19.979  0.00  0.00    +0.000 NA
BRANCH   9  10
ATOM     10  C   UNL     1      52.043   6.473  20.675  0.00  0.00    +0.000 C 
BRANCH  10  11
ATOM     11  C   UNL     1      50.594   6.398  21.216  0.00  0.00    +0.000 C 
ATOM     12  C   UNL     1      50.003   4.980  21.162  0.00  0.00    +0.000 C 
ATOM     13  C   UNL     1      48.558   4.936  21.640  0.00  0.00    +0.000 C 
ATOM     14  C   UNL     1      47.681   5.906  20.863  0.00  0.00    +0.000 C 
ATOM     15  C   UNL     1      48.247   7.320  20.913  0.00  0.00    +0.000 C 
ATOM     16  C   UNL     1      49.693   7.365  20.421  0.00  0.00    +0.000 C 
ENDBRANCH  10  11
ENDBRANCH   9  10
ENDBRANCH   7   9
BRANCH   7  17
ATOM     17  C   UNL     1      53.729   4.601  17.774  0.00  0.00    +0.000 C 
BRANCH  17  18
ATOM     18  N   UNL     1      54.597   5.409  16.901  0.00  0.00    +0.000 NA
ATOM     19  H   UNL     1      55.530   4.994  16.903  0.00  0.00    +0.000 HD
ATOM     20  H   UNL     1      54.708   6.334  17.311  0.00  0.00    +0.000 HD
ENDBRANCH  17  18
ENDBRANCH   7  17
ENDBRANCH   1   7
BRANCH   4  21
ATOM     21  C   UNL     1      47.380   3.459  16.546  0.00  0.00    +0.000 C 
BRANCH  21  22
ATOM     22  N   UNL     1      46.761   4.416  15.661  0.00  0.00    +0.000 N 
ATOM     23  C   UNL     1      46.760   4.224  14.305  0.00  0.00    +0.000 C 
ATOM     24  O   UNL     1      47.242   3.216  13.795  0.00  0.00    +0.000 OA
ATOM     25  H   UNL     1      46.556   5.333  16.043  0.00  0.00    +0.000 HD
BRANCH  23  26
ATOM     26  C   UNL     1      46.103   5.253  13.493  0.00  0.00    +0.000 A 
ATOM     27  C   UNL     1      46.747   6.467  13.287  0.00  0.00    +0.000 A 
ATOM     28  S   UNL     1      45.883   7.540  12.284  0.00  0.00    +0.000 S 
ATOM     29  C   UNL     1      44.596   6.440  12.127  0.00  0.00    +0.000 A 
ATOM     30  N   UNL     1      43.495   6.759  11.394  0.00  0.00    +0.000 NA
ATOM     31  C   UNL     1      42.582   5.846  11.381  0.00  0.00    +0.000 A 
ATOM     32  N   UNL     1      42.671   4.642  12.029  0.00  0.00    +0.000 N 
ATOM     33  C   UNL     1      43.778   4.261  12.755  0.00  0.00    +0.000 A 
ATOM     34  O   UNL     1      43.845   3.157  13.283  0.00  0.00    +0.000 OA
ATOM     35  C   UNL     1      44.827   5.263  12.815  0.00  0.00    +0.000 A 
ATOM     36  H   UNL     1      41.923   3.966  11.970  0.00  0.00    +0.000 HD
ENDBRANCH  23  26
ENDBRANCH  21  22
ENDBRANCH   4  21
TORSDOF 9
ENDMDL
MODEL 6
REMARK VINA RESULT:    -7.101      3.569      9.445
REMARK INTER + INTRA:         -11.658
REMARK INTER:                  -9.661
REMARK INTRA:                  -1.997
REMARK UNBOUND:                -1.028
REMARK  Name = 
REMARK  10 active torsions:
REMARK  status: ('A' for Active; 'I' for Inactive)
REMARK    1  A    between atoms: C_1  and  N_2
REMARK    2  A    between atoms: N_2  and  C_3
REMARK    3  A    between atoms: N_2  and  C_10
REMARK    4  A    between atoms: C_3  and  C_4
REMARK    5  A    between atoms: C_10  and  C_11
REMARK    6  A    between atoms: C_10  and  C_13
REMARK    7  A    between atoms: C_11  and  N_12
REMARK    8  A    between atoms: C_16  and  C_17
REMARK    9  A    between atoms: C_17  and  N_18
REMARK   10  A    between atoms: C_19  and  C_21
REMARK                            x       y       z     vdW  Elec       q    Type
REMARK                         _______ _______ _______ _____ _____    ______ ____
ROOT
ATOM      1  C   UNL     1      48.952   5.381  19.842  0.00  0.00    +0.000 A 
ATOM      2  C   UNL     1      47.730   5.775  19.272  0.00  0.00    +0.000 A 
ATOM      3  C   UNL     1      47.238   5.148  18.125  0.00  0.00    +0.000 A 
ATOM      4  C   UNL     1      47.936   4.079  17.547  0.00  0.00    +0.000 A 
ATOM      5  C   UNL     1      49.150   3.676  18.115  0.00  0.00    +0.000 A 
ATOM      6  C   UNL     1      49.660   4.331  19.236  0.00  0.00    +0.000 A 
ENDROOT
BRANCH   1   7
ATOM      7  C   UNL     1      49.516   6.141  21.052  0.00  0.00    +0.000 C 
BRANCH   7   9
ATOM      8  C   UNL     1      49.835   8.415  21.962  0.00  0.00    +0.000 C 
ATOM      9  N   UNL     1      49.722   7.592  20.763  0.00  0.00    +0.000 NA
BRANCH   9  10
ATOM     10  C   UNL     1      50.784   7.867  19.771  0.00  0.00    +0.000 C 
BRANCH  10  11
ATOM     11  C   UNL     1      50.391   8.285  18.334  0.00  0.00    +0.000 C 
ATOM     12  C   UNL     1      48.919   8.713  18.211  0.00  0.00    +0.000 C 
ATOM     13  C   UNL     1      48.535   9.062  16.780  0.00  0.00    +0.000 C 
ATOM     14  C   UNL     1      48.835   7.918  15.824  0.00  0.00    +0.000 C 
ATOM     15  C   UNL     1      50.294   7.485  15.925  0.00  0.00    +0.000 C 
ATOM     16  C   UNL     1      50.675   7.123  17.359  0.00  0.00    +0.000 C 
ENDBRANCH  10  11
ENDBRANCH   9  10
ENDBRANCH   7   9
BRANCH   7  17
ATOM     17  C   UNL     1      48.571   5.875  22.285  0.00  0.00    +0.000 C 
BRANCH  17  18
ATOM     18  N   UNL     1      47.719   4.679  22.181  0.00  0.00    +0.000 NA
ATOM     19  H   UNL     1      46.882   4.831  22.746  0.00  0.00    +0.000 HD
ATOM     20  H   UNL     1      48.201   3.892  22.611  0.00  0.00    +0.000 HD
ENDBRANCH  17  18
ENDBRANCH   7  17
ENDBRANCH   1   7
BRANCH   4  21
ATOM     21  C   UNL     1      47.433   3.413  16.296  0.00  0.00    +0.000 C 
BRANCH  21  22
ATOM     22  N   UNL     1      46.717   4.354  15.468  0.00  0.00    +0.000 N 
ATOM     23  C   UNL     1      46.848   4.335  14.105  0.00  0.00    +0.000 C 
ATOM     24  O   UNL     1      47.539   3.496  13.533  0.00  0.00    +0.000 OA
ATOM     25  H   UNL     1      46.324   5.168  15.928  0.00  0.00    +0.000 HD
BRANCH  23  26
ATOM     26  C   UNL     1      46.077   5.331  13.354  0.00  0.00    +0.000 A 
ATOM     27  C   UNL     1      46.608   6.602  13.171  0.00  0.00    +0.000 A 
ATOM     28  S   UNL     1      45.620   7.630  12.237  0.00  0.00    +0.000 S 
ATOM     29  C   UNL     1      44.425   6.430  12.085  0.00  0.00    +0.000 A 
ATOM     30  N   UNL     1      43.275   6.678  11.402  0.00  0.00    +0.000 NA
ATOM     31  C   UNL     1      42.442   5.692  11.386  0.00  0.00    +0.000 A 
ATOM     32  N   UNL     1      42.656   4.479  11.987  0.00  0.00    +0.000 N 
ATOM     33  C   UNL     1      43.818   4.170  12.660  0.00  0.00    +0.000 A 
ATOM     34  O   UNL     1      43.997   3.058  13.144  0.00  0.00    +0.000 OA
ATOM     35  C   UNL     1      44.780   5.255  12.721  0.00  0.00    +0.000 A 
ATOM     36  H   UNL     1      41.966   3.743  11.928  0.00  0.00    +0.000 HD
ENDBRANCH  23  26
ENDBRANCH  21  22
ENDBRANCH   4  21
TORSDOF 9
ENDMDL
MODEL 7
REMARK VINA RESULT:    -7.063      3.286      9.164
REMARK INTER + INTRA:         -11.600
REMARK INTER:                  -9.672
REMARK INTRA:                  -1.928
REMARK UNBOUND:                -1.028
REMARK  Name = 
REMARK  10 active torsions:
REMARK  status: ('A' for Active; 'I' for Inactive)
REMARK    1  A    between atoms: C_1  and  N_2
REMARK    2  A    between atoms: N_2  and  C_3
REMARK    3  A    between atoms: N_2  and  C_10
REMARK    4  A    between atoms: C_3  and  C_4
REMARK    5  A    between atoms: C_10  and  C_11
REMARK    6  A    between atoms: C_10  and  C_13
REMARK    7  A    between atoms: C_11  and  N_12
REMARK    8  A    between atoms: C_16  and  C_17
REMARK    9  A    between atoms: C_17  and  N_18
REMARK   10  A    between atoms: C_19  and  C_21
REMARK                            x       y       z     vdW  Elec       q    Type
REMARK                         _______ _______ _______ _____ _____    ______ ____
ROOT
ATOM      1  C   UNL     1      49.108   7.954  16.498  0.00  0.00    +0.000 A 
ATOM      2  C   UNL     1      49.378   6.848  15.676  0.00  0.00    +0.000 A 
ATOM      3  C   UNL     1      48.940   6.817  14.349  0.00  0.00    +0.000 A 
ATOM      4  C   UNL     1      48.262   7.913  13.801  0.00  0.00    +0.000 A 
ATOM      5  C   UNL     1      47.997   9.022  14.613  0.00  0.00    +0.000 A 
ATOM      6  C   UNL     1      48.398   9.034  15.949  0.00  0.00    +0.000 A 
ENDROOT
BRANCH   1   7
ATOM      7  C   UNL     1      49.523   7.932  17.977  0.00  0.00    +0.000 C 
BRANCH   7   9
ATOM      8  C   UNL     1      51.676   6.997  18.747  0.00  0.00    +0.000 C 
ATOM      9  N   UNL     1      50.309   6.710  18.325  0.00  0.00    +0.000 NA
BRANCH   9  10
ATOM     10  C   UNL     1      49.608   5.777  19.232  0.00  0.00    +0.000 C 
BRANCH  10  11
ATOM     11  C   UNL     1      49.164   4.392  18.703  0.00  0.00    +0.000 C 
ATOM     12  C   UNL     1      50.166   3.774  17.714  0.00  0.00    +0.000 C 
ATOM     13  C   UNL     1      49.684   2.442  17.158  0.00  0.00    +0.000 C 
ATOM     14  C   UNL     1      48.313   2.567  16.512  0.00  0.00    +0.000 C 
ATOM     15  C   UNL     1      47.302   3.170  17.480  0.00  0.00    +0.000 C 
ATOM     16  C   UNL     1      47.781   4.513  18.029  0.00  0.00    +0.000 C 
ENDBRANCH  10  11
ENDBRANCH   9  10
ENDBRANCH   7   9
BRANCH   7  17
ATOM     17  C   UNL     1      50.280   9.276  18.298  0.00  0.00    +0.000 C 
BRANCH  17  18
ATOM     18  N   UNL     1      49.543  10.229  19.146  0.00  0.00    +0.000 NA
ATOM     19  H   UNL     1      48.767   9.732  19.586  0.00  0.00    +0.000 HD
ATOM     20  H   UNL     1      49.114  10.936  18.552  0.00  0.00    +0.000 HD
ENDBRANCH  17  18
ENDBRANCH   7  17
ENDBRANCH   1   7
BRANCH   4  21
ATOM     21  C   UNL     1      47.761   7.883  12.383  0.00  0.00    +0.000 C 
BRANCH  21  22
ATOM     22  N   UNL     1      47.050   6.655  12.119  0.00  0.00    +0.000 N 
ATOM     23  C   UNL     1      45.682   6.609  12.161  0.00  0.00    +0.000 C 
ATOM     24  O   UNL     1      45.008   7.613  12.380  0.00  0.00    +0.000 OA
ATOM     25  H   UNL     1      47.586   5.795  12.150  0.00  0.00    +0.000 HD
BRANCH  23  26
ATOM     26  C   UNL     1      45.055   5.314  11.876  0.00  0.00    +0.000 A 
ATOM     27  C   UNL     1      44.397   4.641  12.897  0.00  0.00    +0.000 A 
ATOM     28  S   UNL     1      43.678   3.177  12.400  0.00  0.00    +0.000 S 
ATOM     29  C   UNL     1      44.261   3.368  10.814  0.00  0.00    +0.000 A 
ATOM     30  N   UNL     1      44.010   2.427   9.864  0.00  0.00    +0.000 NA
ATOM     31  C   UNL     1      44.532   2.682   8.712  0.00  0.00    +0.000 A 
ATOM     32  N   UNL     1      45.279   3.794   8.421  0.00  0.00    +0.000 N 
ATOM     33  C   UNL     1      45.531   4.789   9.340  0.00  0.00    +0.000 A 
ATOM     34  O   UNL     1      46.162   5.794   9.033  0.00  0.00    +0.000 OA
ATOM     35  C   UNL     1      44.979   4.540  10.658  0.00  0.00    +0.000 A 
ATOM     36  H   UNL     1      45.652   3.939   7.493  0.00  0.00    +0.000 HD
ENDBRANCH  23  26
ENDBRANCH  21  22
ENDBRANCH   4  21
TORSDOF 9
ENDMDL
MODEL 8
REMARK VINA RESULT:    -6.967      3.477      9.100
REMARK INTER + INTRA:         -11.458
REMARK INTER:                  -8.948
REMARK INTRA:                  -2.510
REMARK UNBOUND:                -1.028
REMARK  Name = 
REMARK  10 active torsions:
REMARK  status: ('A' for Active; 'I' for Inactive)
REMARK    1  A    between atoms: C_1  and  N_2
REMARK    2  A    between atoms: N_2  and  C_3
REMARK    3  A    between atoms: N_2  and  C_10
REMARK    4  A    between atoms: C_3  and  C_4
REMARK    5  A    between atoms: C_10  and  C_11
REMARK    6  A    between atoms: C_10  and  C_13
REMARK    7  A    between atoms: C_11  and  N_12
REMARK    8  A    between atoms: C_16  and  C_17
REMARK    9  A    between atoms: C_17  and  N_18
REMARK   10  A    between atoms: C_19  and  C_21
REMARK                            x       y       z     vdW  Elec       q    Type
REMARK                         _______ _______ _______ _____ _____    ______ ____
ROOT
ATOM      1  C   UNL     1      50.042   7.216  18.383  0.00  0.00    +0.000 A 
ATOM      2  C   UNL     1      48.968   8.115  18.280  0.00  0.00    +0.000 A 
ATOM      3  C   UNL     1      48.468   8.494  17.032  0.00  0.00    +0.000 A 
ATOM      4  C   UNL     1      49.001   7.946  15.858  0.00  0.00    +0.000 A 
ATOM      5  C   UNL     1      50.067   7.043  15.955  0.00  0.00    +0.000 A 
ATOM      6  C   UNL     1      50.591   6.697  17.201  0.00  0.00    +0.000 A 
ENDROOT
BRANCH   1   7
ATOM      7  C   UNL     1      50.631   6.878  19.761  0.00  0.00    +0.000 C 
BRANCH   7   9
ATOM      8  C   UNL     1      51.435   5.006  21.159  0.00  0.00    +0.000 C 
ATOM      9  N   UNL     1      50.566   5.416  20.061  0.00  0.00    +0.000 NA
BRANCH   9  10
ATOM     10  C   UNL     1      49.191   4.884  20.183  0.00  0.00    +0.000 C 
BRANCH  10  11
ATOM     11  C   UNL     1      48.639   3.947  19.082  0.00  0.00    +0.000 C 
ATOM     12  C   UNL     1      49.733   3.398  18.152  0.00  0.00    +0.000 C 
ATOM     13  C   UNL     1      49.165   2.528  17.040  0.00  0.00    +0.000 C 
ATOM     14  C   UNL     1      48.109   3.268  16.234  0.00  0.00    +0.000 C 
ATOM     15  C   UNL     1      47.009   3.813  17.138  0.00  0.00    +0.000 C 
ATOM     16  C   UNL     1      47.579   4.696  18.247  0.00  0.00    +0.000 C 
ENDBRANCH  10  11
ENDBRANCH   9  10
ENDBRANCH   7   9
BRANCH   7  17
ATOM     17  C   UNL     1      52.092   7.467  19.831  0.00  0.00    +0.000 C 
BRANCH  17  18
ATOM     18  N   UNL     1      52.177   8.914  20.093  0.00  0.00    +0.000 NA
ATOM     19  H   UNL     1      51.535   9.140  20.854  0.00  0.00    +0.000 HD
ATOM     20  H   UNL     1      51.826   9.417  19.280  0.00  0.00    +0.000 HD
ENDBRANCH  17  18
ENDBRANCH   7  17
ENDBRANCH   1   7
BRANCH   4  21
ATOM     21  C   UNL     1      48.492   8.366  14.506  0.00  0.00    +0.000 C 
BRANCH  21  22
ATOM     22  N   UNL     1      47.422   7.501  14.072  0.00  0.00    +0.000 N 
ATOM     23  C   UNL     1      47.668   6.434  13.250  0.00  0.00    +0.000 C 
ATOM     24  O   UNL     1      48.806   6.146  12.887  0.00  0.00    +0.000 OA
ATOM     25  H   UNL     1      46.475   7.845  14.185  0.00  0.00    +0.000 HD
BRANCH  23  26
ATOM     26  C   UNL     1      46.513   5.614  12.867  0.00  0.00    +0.000 A 
ATOM     27  C   UNL     1      46.564   4.240  13.062  0.00  0.00    +0.000 A 
ATOM     28  S   UNL     1      45.131   3.432  12.617  0.00  0.00    +0.000 S 
ATOM     29  C   UNL     1      44.409   4.883  12.104  0.00  0.00    +0.000 A 
ATOM     30  N   UNL     1      43.153   4.888  11.581  0.00  0.00    +0.000 NA
ATOM     31  C   UNL     1      42.736   6.051  11.207  0.00  0.00    +0.000 A 
ATOM     32  N   UNL     1      43.459   7.211  11.312  0.00  0.00    +0.000 N 
ATOM     33  C   UNL     1      44.720   7.262  11.866  0.00  0.00    +0.000 A 
ATOM     34  O   UNL     1      45.319   8.324  11.988  0.00  0.00    +0.000 OA
ATOM     35  C   UNL     1      45.240   5.974  12.286  0.00  0.00    +0.000 A 
ATOM     36  H   UNL     1      43.069   8.093  11.010  0.00  0.00    +0.000 HD
ENDBRANCH  23  26
ENDBRANCH  21  22
ENDBRANCH   4  21
TORSDOF 9
ENDMDL
MODEL 9
REMARK VINA RESULT:    -6.942      3.701     10.052
REMARK INTER + INTRA:         -11.419
REMARK INTER:                  -9.151
REMARK INTRA:                  -2.268
REMARK UNBOUND:                -1.028
REMARK  Name = 
REMARK  10 active torsions:
REMARK  status: ('A' for Active; 'I' for Inactive)
REMARK    1  A    between atoms: C_1  and  N_2
REMARK    2  A    between atoms: N_2  and  C_3
REMARK    3  A    between atoms: N_2  and  C_10
REMARK    4  A    between atoms: C_3  and  C_4
REMARK    5  A    between atoms: C_10  and  C_11
REMARK    6  A    between atoms: C_10  and  C_13
REMARK    7  A    between atoms: C_11  and  N_12
REMARK    8  A    between atoms: C_16  and  C_17
REMARK    9  A    between atoms: C_17  and  N_18
REMARK   10  A    between atoms: C_19  and  C_21
REMARK                            x       y       z     vdW  Elec       q    Type
REMARK                         _______ _______ _______ _____ _____    ______ ____
ROOT
ATOM      1  C   UNL     1      50.925   4.873  19.065  0.00  0.00    +0.000 A 
ATOM      2  C   UNL     1      49.731   4.672  19.778  0.00  0.00    +0.000 A 
ATOM      3  C   UNL     1      48.568   4.254  19.126  0.00  0.00    +0.000 A 
ATOM      4  C   UNL     1      48.585   3.983  17.752  0.00  0.00    +0.000 A 
ATOM      5  C   UNL     1      49.774   4.173  17.037  0.00  0.00    +0.000 A 
ATOM      6  C   UNL     1      50.923   4.630  17.683  0.00  0.00    +0.000 A 
ENDROOT
BRANCH   1   7
ATOM      7  C   UNL     1      52.168   5.415  19.787  0.00  0.00    +0.000 C 
BRANCH   7   9
ATOM      8  C   UNL     1      52.873   7.049  21.499  0.00  0.00    +0.000 C 
ATOM      9  N   UNL     1      51.909   6.726  20.454  0.00  0.00    +0.000 NA
BRANCH   9  10
ATOM     10  C   UNL     1      51.673   7.846  19.518  0.00  0.00    +0.000 C 
BRANCH  10  11
ATOM     11  C   UNL     1      50.256   8.457  19.405  0.00  0.00    +0.000 C 
ATOM     12  C   UNL     1      49.321   8.030  20.548  0.00  0.00    +0.000 C 
ATOM     13  C   UNL     1      47.916   8.590  20.388  0.00  0.00    +0.000 C 
ATOM     14  C   UNL     1      47.312   8.215  19.044  0.00  0.00    +0.000 C 
ATOM     15  C   UNL     1      48.221   8.640  17.896  0.00  0.00    +0.000 C 
ATOM     16  C   UNL     1      49.628   8.066  18.051  0.00  0.00    +0.000 C 
ENDBRANCH  10  11
ENDBRANCH   9  10
ENDBRANCH   7   9
BRANCH   7  17
ATOM     17  C   UNL     1      52.690   4.302  20.774  0.00  0.00    +0.000 C 
BRANCH  17  18
ATOM     18  N   UNL     1      53.335   3.143  20.134  0.00  0.00    +0.000 NA
ATOM     19  H   UNL     1      54.332   3.344  20.036  0.00  0.00    +0.000 HD
ATOM     20  H   UNL     1      52.980   3.051  19.184  0.00  0.00    +0.000 HD
ENDBRANCH  17  18
ENDBRANCH   7  17
ENDBRANCH   1   7
BRANCH   4  21
ATOM     21  C   UNL     1      47.334   3.559  17.031  0.00  0.00    +0.000 C 
BRANCH  21  22
ATOM     22  N   UNL     1      46.960   4.538  16.039  0.00  0.00    +0.000 N 
ATOM     23  C   UNL     1      47.008   4.240  14.703  0.00  0.00    +0.000 C 
ATOM     24  O   UNL     1      47.325   3.124  14.300  0.00  0.00    +0.000 OA
ATOM     25  H   UNL     1      46.906   5.505  16.340  0.00  0.00    +0.000 HD
BRANCH  23  26
ATOM     26  C   UNL     1      46.606   5.303  13.775  0.00  0.00    +0.000 A 
ATOM     27  C   UNL     1      47.473   6.364  13.543  0.00  0.00    +0.000 A 
ATOM     28  S   UNL     1      46.888   7.490  12.405  0.00  0.00    +0.000 S 
ATOM     29  C   UNL     1      45.436   6.625  12.217  0.00  0.00    +0.000 A 
ATOM     30  N   UNL     1      44.464   7.075  11.377  0.00  0.00    +0.000 NA
ATOM     31  C   UNL     1      43.404   6.339  11.349  0.00  0.00    +0.000 A 
ATOM     32  N   UNL     1      43.228   5.193  12.080  0.00  0.00    +0.000 N 
ATOM     33  C   UNL     1      44.196   4.681  12.916  0.00  0.00    +0.000 A 
ATOM     34  O   UNL     1      44.024   3.627  13.518  0.00  0.00    +0.000 OA
ATOM     35  C   UNL     1      45.402   5.483  12.996  0.00  0.00    +0.000 A 
ATOM     36  H   UNL     1      42.375   4.656  12.003  0.00  0.00    +0.000 HD
ENDBRANCH  23  26
ENDBRANCH  21  22
ENDBRANCH   4  21
TORSDOF 9
ENDMDL
