MODEL 1
REMARK VINA RESULT:    -8.688      0.000      0.000
REMARK INTER + INTRA:         -12.227
REMARK INTER:                 -11.228
REMARK INTRA:                  -0.999
REMARK UNBOUND:                -0.999
REMARK  Name = 
REMARK  5 active torsions:
REMARK  status: ('A' for Active; 'I' for Inactive)
REMARK    1  A    between atoms: C_2  and  C_4
REMARK    2  A    between atoms: N_8  and  C_9
REMARK    3  A    between atoms: C_9  and  C_10
REMARK    4  A    between atoms: C_10  and  C_11
REMARK    5  A    between atoms: C_15  and  C_16
REMARK                            x       y       z     vdW  Elec       q    Type
REMARK                         _______ _______ _______ _____ _____    ______ ____
ROOT
ATOM      1  C   UNL     1      43.246   4.385  11.054  0.00  0.00    +0.000 C 
ENDROOT
BRANCH   1   6
ATOM      2  C   UNL     1      46.548   2.505   7.691  0.00  0.00    +0.000 A 
ATOM      3  C   UNL     1      45.690   1.842   8.564  0.00  0.00    +0.000 A 
ATOM      4  C   UNL     1      44.746   2.578   9.274  0.00  0.00    +0.000 A 
ATOM      5  C   UNL     1      44.678   3.961   9.119  0.00  0.00    +0.000 A 
ATOM      6  N   UNL     1      43.701   4.741   9.718  0.00  0.00    +0.000 N 
ATOM      7  N   UNL     1      45.530   4.618   8.306  0.00  0.00    +0.000 NA
ATOM      8  C   UNL     1      46.447   3.886   7.617  0.00  0.00    +0.000 A 
ATOM      9  H   UNL     1      43.963   5.713   9.573  0.00  0.00    +0.000 HD
BRANCH   2  11
ATOM     10  N   UNL     1      48.606   2.512   6.411  0.00  0.00    +0.000 N 
ATOM     11  C   UNL     1      47.532   1.793   6.858  0.00  0.00    +0.000 C 
ATOM     12  O   UNL     1      47.417   0.598   6.604  0.00  0.00    +0.000 OA
ATOM     13  H   UNL     1      49.331   1.988   5.932  0.00  0.00    +0.000 HD
ATOM     14  H   UNL     1      48.860   3.406   6.803  0.00  0.00    +0.000 HD
ENDBRANCH   2  11
ENDBRANCH   1   6
BRANCH   1  15
ATOM     15  C   UNL     1      43.352   5.580  12.008  0.00  0.00    +0.000 C 
BRANCH  15  16
ATOM     16  C   UNL     1      44.745   5.667  12.591  0.00  0.00    +0.000 A 
ATOM     17  C   UNL     1      45.264   4.610  13.347  0.00  0.00    +0.000 A 
ATOM     18  C   UNL     1      46.572   4.665  13.818  0.00  0.00    +0.000 A 
ATOM     19  C   UNL     1      47.382   5.758  13.504  0.00  0.00    +0.000 A 
ATOM     20  C   UNL     1      46.918   6.807  12.690  0.00  0.00    +0.000 A 
ATOM     21  C   UNL     1      45.572   6.760  12.281  0.00  0.00    +0.000 A 
BRANCH  20  22
ATOM     22  C   UNL     1      47.842   7.845  12.178  0.00  0.00    +0.000 A 
ATOM     23  C   UNL     1      47.416   9.184  12.082  0.00  0.00    +0.000 A 
ATOM     24  C   UNL     1      48.281  10.208  11.696  0.00  0.00    +0.000 A 
ATOM     25  C   UNL     1      49.608   9.916  11.401  0.00  0.00    +0.000 A 
ATOM     26  C   UNL     1      50.059   8.602  11.476  0.00  0.00    +0.000 A 
ATOM     27  C   UNL     1      49.183   7.575  11.853  0.00  0.00    +0.000 A 
ENDBRANCH  20  22
ENDBRANCH  15  16
ENDBRANCH   1  15
TORSDOF 5
ENDMDL
MODEL 2
REMARK VINA RESULT:    -8.518      1.658      3.562
REMARK INTER + INTRA:         -12.007
REMARK INTER:                 -11.178
REMARK INTRA:                  -0.828
REMARK UNBOUND:                -0.999
REMARK  Name = 
REMARK  5 active torsions:
REMARK  status: ('A' for Active; 'I' for Inactive)
REMARK    1  A    between atoms: C_2  and  C_4
REMARK    2  A    between atoms: N_8  and  C_9
REMARK    3  A    between atoms: C_9  and  C_10
REMARK    4  A    between atoms: C_10  and  C_11
REMARK    5  A    between atoms: C_15  and  C_16
REMARK                            x       y       z     vdW  Elec       q    Type
REMARK                         _______ _______ _______ _____ _____    ______ ____
ROOT
ATOM      1  C   UNL     1      43.467   4.231  11.046  0.00  0.00    +0.000 C 
ENDROOT
BRANCH   1   6
ATOM      2  C   UNL     1      46.646   2.476   7.502  0.00  0.00    +0.000 A 
ATOM      3  C   UNL     1      45.900   1.783   8.452  0.00  0.00    +0.000 A 
ATOM      4  C   UNL     1      44.959   2.476   9.209  0.00  0.00    +0.000 A 
ATOM      5  C   UNL     1      44.785   3.846   9.023  0.00  0.00    +0.000 A 
ATOM      6  N   UNL     1      43.801   4.575   9.671  0.00  0.00    +0.000 N 
ATOM      7  N   UNL     1      45.529   4.532   8.134  0.00  0.00    +0.000 NA
ATOM      8  C   UNL     1      46.445   3.843   7.400  0.00  0.00    +0.000 A 
ATOM      9  H   UNL     1      43.984   5.559   9.483  0.00  0.00    +0.000 HD
BRANCH   2  11
ATOM     10  N   UNL     1      48.825   2.421   6.440  0.00  0.00    +0.000 N 
ATOM     11  C   UNL     1      47.616   1.806   6.618  0.00  0.00    +0.000 C 
ATOM     12  O   UNL     1      47.369   0.726   6.092  0.00  0.00    +0.000 OA
ATOM     13  H   UNL     1      49.523   1.900   5.920  0.00  0.00    +0.000 HD
ATOM     14  H   UNL     1      49.150   3.160   7.045  0.00  0.00    +0.000 HD
ENDBRANCH   2  11
ENDBRANCH   1   6
BRANCH   1  15
ATOM     15  C   UNL     1      43.652   5.436  11.975  0.00  0.00    +0.000 C 
BRANCH  15  16
ATOM     16  C   UNL     1      45.117   5.643  12.285  0.00  0.00    +0.000 A 
ATOM     17  C   UNL     1      45.890   6.515  11.510  0.00  0.00    +0.000 A 
ATOM     18  C   UNL     1      47.219   6.755  11.845  0.00  0.00    +0.000 A 
ATOM     19  C   UNL     1      47.772   6.158  12.979  0.00  0.00    +0.000 A 
ATOM     20  C   UNL     1      47.008   5.330  13.821  0.00  0.00    +0.000 A 
ATOM     21  C   UNL     1      45.687   5.049  13.424  0.00  0.00    +0.000 A 
BRANCH  20  22
ATOM     22  C   UNL     1      47.530   4.882  15.133  0.00  0.00    +0.000 A 
ATOM     23  C   UNL     1      47.364   3.543  15.538  0.00  0.00    +0.000 A 
ATOM     24  C   UNL     1      47.921   3.056  16.721  0.00  0.00    +0.000 A 
ATOM     25  C   UNL     1      48.671   3.901  17.530  0.00  0.00    +0.000 A 
ATOM     26  C   UNL     1      48.847   5.232  17.163  0.00  0.00    +0.000 A 
ATOM     27  C   UNL     1      48.276   5.720  15.980  0.00  0.00    +0.000 A 
ENDBRANCH  20  22
ENDBRANCH  15  16
ENDBRANCH   1  15
TORSDOF 5
ENDMDL
MODEL 3
REMARK VINA RESULT:    -7.977      1.429      2.103
REMARK INTER + INTRA:         -11.309
REMARK INTER:                 -10.394
REMARK INTRA:                  -0.915
REMARK UNBOUND:                -0.999
REMARK  Name = 
REMARK  5 active torsions:
REMARK  status: ('A' for Active; 'I' for Inactive)
REMARK    1  A    between atoms: C_2  and  C_4
REMARK    2  A    between atoms: N_8  and  C_9
REMARK    3  A    between atoms: C_9  and  C_10
REMARK    4  A    between atoms: C_10  and  C_11
REMARK    5  A    between atoms: C_15  and  C_16
REMARK                            x       y       z     vdW  Elec       q    Type
REMARK                         _______ _______ _______ _____ _____    ______ ____
ROOT
ATOM      1  C   UNL     1      43.270   3.941  11.191  0.00  0.00    +0.000 C 
ENDROOT
BRANCH   1   6
ATOM      2  C   UNL     1      46.397   2.813   7.358  0.00  0.00    +0.000 A 
ATOM      3  C   UNL     1      46.108   4.044   7.939  0.00  0.00    +0.000 A 
ATOM      4  C   UNL     1      45.343   4.080   9.101  0.00  0.00    +0.000 A 
ATOM      5  C   UNL     1      44.863   2.897   9.659  0.00  0.00    +0.000 A 
ATOM      6  N   UNL     1      44.180   2.853  10.864  0.00  0.00    +0.000 N 
ATOM      7  N   UNL     1      45.103   1.703   9.082  0.00  0.00    +0.000 NA
ATOM      8  C   UNL     1      45.854   1.681   7.947  0.00  0.00    +0.000 A 
ATOM      9  H   UNL     1      43.813   1.910  10.966  0.00  0.00    +0.000 HD
BRANCH   2  11
ATOM     10  N   UNL     1      48.603   2.639   6.367  0.00  0.00    +0.000 N 
ATOM     11  C   UNL     1      47.251   2.683   6.165  0.00  0.00    +0.000 C 
ATOM     12  O   UNL     1      46.773   2.580   5.039  0.00  0.00    +0.000 OA
ATOM     13  H   UNL     1      49.174   2.439   5.553  0.00  0.00    +0.000 HD
ATOM     14  H   UNL     1      49.009   2.466   7.275  0.00  0.00    +0.000 HD
ENDBRANCH   2  11
ENDBRANCH   1   6
BRANCH   1  15
ATOM     15  C   UNL     1      43.371   4.316  12.675  0.00  0.00    +0.000 C 
BRANCH  15  16
ATOM     16  C   UNL     1      44.676   5.027  12.951  0.00  0.00    +0.000 A 
ATOM     17  C   UNL     1      45.823   4.300  13.292  0.00  0.00    +0.000 A 
ATOM     18  C   UNL     1      47.036   4.954  13.473  0.00  0.00    +0.000 A 
ATOM     19  C   UNL     1      47.122   6.334  13.276  0.00  0.00    +0.000 A 
ATOM     20  C   UNL     1      46.008   7.089  12.866  0.00  0.00    +0.000 A 
ATOM     21  C   UNL     1      44.778   6.415  12.754  0.00  0.00    +0.000 A 
BRANCH  20  22
ATOM     22  C   UNL     1      46.153   8.501  12.445  0.00  0.00    +0.000 A 
ATOM     23  C   UNL     1      47.435   9.051  12.248  0.00  0.00    +0.000 A 
ATOM     24  C   UNL     1      47.616  10.346  11.761  0.00  0.00    +0.000 A 
ATOM     25  C   UNL     1      46.509  11.127  11.450  0.00  0.00    +0.000 A 
ATOM     26  C   UNL     1      45.229  10.618  11.642  0.00  0.00    +0.000 A 
ATOM     27  C   UNL     1      45.052   9.321  12.142  0.00  0.00    +0.000 A 
ENDBRANCH  20  22
ENDBRANCH  15  16
ENDBRANCH   1  15
TORSDOF 5
ENDMDL
MODEL 4
REMARK VINA RESULT:    -7.449      4.253      7.667
REMARK INTER + INTRA:         -10.625
REMARK INTER:                  -9.948
REMARK INTRA:                  -0.677
REMARK UNBOUND:                -0.999
REMARK  Name = 
REMARK  5 active torsions:
REMARK  status: ('A' for Active; 'I' for Inactive)
REMARK    1  A    between atoms: C_2  and  C_4
REMARK    2  A    between atoms: N_8  and  C_9
REMARK    3  A    between atoms: C_9  and  C_10
REMARK    4  A    between atoms: C_10  and  C_11
REMARK    5  A    between atoms: C_15  and  C_16
REMARK                            x       y       z     vdW  Elec       q    Type
REMARK                         _______ _______ _______ _____ _____    ______ ____
ROOT
ATOM      1  C   UNL     1      47.162   6.705  12.954  0.00  0.00    +0.000 C 
ENDROOT
BRANCH   1   6
ATOM      2  C   UNL     1      48.663   4.258  17.138  0.00  0.00    +0.000 A 
ATOM      3  C   UNL     1      48.969   5.543  16.700  0.00  0.00    +0.000 A 
ATOM      4  C   UNL     1      48.294   6.060  15.598  0.00  0.00    +0.000 A 
ATOM      5  C   UNL     1      47.338   5.289  14.939  0.00  0.00    +0.000 A 
ATOM      6  N   UNL     1      46.561   5.776  13.900  0.00  0.00    +0.000 N 
ATOM      7  N   UNL     1      47.063   4.030  15.332  0.00  0.00    +0.000 NA
ATOM      8  C   UNL     1      47.729   3.537  16.411  0.00  0.00    +0.000 A 
ATOM      9  H   UNL     1      46.064   4.983  13.501  0.00  0.00    +0.000 HD
BRANCH   2  11
ATOM     10  N   UNL     1      48.448   3.171  19.294  0.00  0.00    +0.000 N 
ATOM     11  C   UNL     1      49.287   3.662  18.332  0.00  0.00    +0.000 C 
ATOM     12  O   UNL     1      50.505   3.572  18.446  0.00  0.00    +0.000 OA
ATOM     13  H   UNL     1      48.884   2.665  20.058  0.00  0.00    +0.000 HD
ATOM     14  H   UNL     1      47.468   2.999  19.122  0.00  0.00    +0.000 HD
ENDBRANCH   2  11
ENDBRANCH   1   6
BRANCH   1  15
ATOM     15  C   UNL     1      46.098   7.334  12.048  0.00  0.00    +0.000 C 
BRANCH  15  16
ATOM     16  C   UNL     1      45.225   6.260  11.437  0.00  0.00    +0.000 A 
ATOM     17  C   UNL     1      43.839   6.280  11.625  0.00  0.00    +0.000 A 
ATOM     18  C   UNL     1      43.036   5.332  11.000  0.00  0.00    +0.000 A 
ATOM     19  C   UNL     1      43.608   4.382  10.151  0.00  0.00    +0.000 A 
ATOM     20  C   UNL     1      44.989   4.373   9.883  0.00  0.00    +0.000 A 
ATOM     21  C   UNL     1      45.788   5.300  10.578  0.00  0.00    +0.000 A 
BRANCH  20  22
ATOM     22  C   UNL     1      45.556   3.514   8.817  0.00  0.00    +0.000 A 
ATOM     23  C   UNL     1      46.141   4.098   7.677  0.00  0.00    +0.000 A 
ATOM     24  C   UNL     1      46.770   3.331   6.696  0.00  0.00    +0.000 A 
ATOM     25  C   UNL     1      46.837   1.949   6.837  0.00  0.00    +0.000 A 
ATOM     26  C   UNL     1      46.261   1.340   7.948  0.00  0.00    +0.000 A 
ATOM     27  C   UNL     1      45.620   2.114   8.925  0.00  0.00    +0.000 A 
ENDBRANCH  20  22
ENDBRANCH  15  16
ENDBRANCH   1  15
TORSDOF 5
ENDMDL
MODEL 5
REMARK VINA RESULT:    -7.427      1.087      1.931
REMARK INTER + INTRA:         -10.597
REMARK INTER:                  -9.972
REMARK INTRA:                  -0.625
REMARK UNBOUND:                -0.999
REMARK  Name = 
REMARK  5 active torsions:
REMARK  status: ('A' for Active; 'I' for Inactive)
REMARK    1  A    between atoms: C_2  and  C_4
REMARK    2  A    between atoms: N_8  and  C_9
REMARK    3  A    between atoms: C_9  and  C_10
REMARK    4  A    between atoms: C_10  and  C_11
REMARK    5  A    between atoms: C_15  and  C_16
REMARK                            x       y       z     vdW  Elec       q    Type
REMARK                         _______ _______ _______ _____ _____    ______ ____
ROOT
ATOM      1  C   UNL     1      43.929   4.471  11.207  0.00  0.00    +0.000 C 
ENDROOT
BRANCH   1   6
ATOM      2  C   UNL     1      46.674   2.420   7.464  0.00  0.00    +0.000 A 
ATOM      3  C   UNL     1      45.991   1.804   8.508  0.00  0.00    +0.000 A 
ATOM      4  C   UNL     1      45.158   2.572   9.318  0.00  0.00    +0.000 A 
ATOM      5  C   UNL     1      45.031   3.941   9.089  0.00  0.00    +0.000 A 
ATOM      6  N   UNL     1      44.147   4.744   9.793  0.00  0.00    +0.000 N 
ATOM      7  N   UNL     1      45.718   4.554   8.106  0.00  0.00    +0.000 NA
ATOM      8  C   UNL     1      46.527   3.791   7.320  0.00  0.00    +0.000 A 
ATOM      9  H   UNL     1      44.357   5.708   9.546  0.00  0.00    +0.000 HD
BRANCH   2  11
ATOM     10  N   UNL     1      48.706   2.248   6.153  0.00  0.00    +0.000 N 
ATOM     11  C   UNL     1      47.524   1.669   6.523  0.00  0.00    +0.000 C 
ATOM     12  O   UNL     1      47.206   0.556   6.118  0.00  0.00    +0.000 OA
ATOM     13  H   UNL     1      49.331   1.677   5.594  0.00  0.00    +0.000 HD
ATOM     14  H   UNL     1      49.108   3.027   6.653  0.00  0.00    +0.000 HD
ENDBRANCH   2  11
ENDBRANCH   1   6
BRANCH   1  15
ATOM     15  C   UNL     1      45.214   4.689  12.014  0.00  0.00    +0.000 C 
BRANCH  15  16
ATOM     16  C   UNL     1      45.617   6.146  11.979  0.00  0.00    +0.000 A 
ATOM     17  C   UNL     1      44.644   7.151  11.968  0.00  0.00    +0.000 A 
ATOM     18  C   UNL     1      45.022   8.489  12.009  0.00  0.00    +0.000 A 
ATOM     19  C   UNL     1      46.372   8.831  12.104  0.00  0.00    +0.000 A 
ATOM     20  C   UNL     1      47.375   7.848  12.187  0.00  0.00    +0.000 A 
ATOM     21  C   UNL     1      46.973   6.504  12.076  0.00  0.00    +0.000 A 
BRANCH  20  22
ATOM     22  C   UNL     1      48.776   8.209  12.509  0.00  0.00    +0.000 A 
ATOM     23  C   UNL     1      49.353   7.781  13.720  0.00  0.00    +0.000 A 
ATOM     24  C   UNL     1      50.695   8.017  14.021  0.00  0.00    +0.000 A 
ATOM     25  C   UNL     1      51.501   8.685  13.106  0.00  0.00    +0.000 A 
ATOM     26  C   UNL     1      50.959   9.129  11.904  0.00  0.00    +0.000 A 
ATOM     27  C   UNL     1      49.607   8.900  11.611  0.00  0.00    +0.000 A 
ENDBRANCH  20  22
ENDBRANCH  15  16
ENDBRANCH   1  15
TORSDOF 5
ENDMDL
MODEL 6
REMARK VINA RESULT:    -6.987      3.514      6.726
REMARK INTER + INTRA:         -10.029
REMARK INTER:                  -8.874
REMARK INTRA:                  -1.155
REMARK UNBOUND:                -0.999
REMARK  Name = 
REMARK  5 active torsions:
REMARK  status: ('A' for Active; 'I' for Inactive)
REMARK    1  A    between atoms: C_2  and  C_4
REMARK    2  A    between atoms: N_8  and  C_9
REMARK    3  A    between atoms: C_9  and  C_10
REMARK    4  A    between atoms: C_10  and  C_11
REMARK    5  A    between atoms: C_15  and  C_16
REMARK                            x       y       z     vdW  Elec       q    Type
REMARK                         _______ _______ _______ _____ _____    ______ ____
ROOT
ATOM      1  C   UNL     1      46.775   4.281  13.966  0.00  0.00    +0.000 C 
ENDROOT
BRANCH   1   6
ATOM      2  C   UNL     1      49.396   8.247  12.193  0.00  0.00    +0.000 A 
ATOM      3  C   UNL     1      48.266   7.623  11.674  0.00  0.00    +0.000 A 
ATOM      4  C   UNL     1      47.618   6.654  12.436  0.00  0.00    +0.000 A 
ATOM      5  C   UNL     1      48.112   6.309  13.693  0.00  0.00    +0.000 A 
ATOM      6  N   UNL     1      47.463   5.427  14.542  0.00  0.00    +0.000 N 
ATOM      7  N   UNL     1      49.229   6.879  14.187  0.00  0.00    +0.000 NA
ATOM      8  C   UNL     1      49.851   7.825  13.432  0.00  0.00    +0.000 A 
ATOM      9  H   UNL     1      48.098   5.232  15.314  0.00  0.00    +0.000 HD
BRANCH   2  11
ATOM     10  N   UNL     1      51.461   9.218  11.374  0.00  0.00    +0.000 N 
ATOM     11  C   UNL     1      50.102   9.325  11.478  0.00  0.00    +0.000 C 
ATOM     12  O   UNL     1      49.496  10.259  10.963  0.00  0.00    +0.000 OA
ATOM     13  H   UNL     1      51.923   9.905  10.787  0.00  0.00    +0.000 HD
ATOM     14  H   UNL     1      51.952   8.356  11.557  0.00  0.00    +0.000 HD
ENDBRANCH   2  11
ENDBRANCH   1   6
BRANCH   1  15
ATOM     15  C   UNL     1      45.255   4.428  14.100  0.00  0.00    +0.000 C 
BRANCH  15  16
ATOM     16  C   UNL     1      44.613   4.530  12.735  0.00  0.00    +0.000 A 
ATOM     17  C   UNL     1      43.577   5.441  12.504  0.00  0.00    +0.000 A 
ATOM     18  C   UNL     1      43.041   5.581  11.228  0.00  0.00    +0.000 A 
ATOM     19  C   UNL     1      43.564   4.840  10.166  0.00  0.00    +0.000 A 
ATOM     20  C   UNL     1      44.650   3.965  10.345  0.00  0.00    +0.000 A 
ATOM     21  C   UNL     1      45.130   3.791  11.656  0.00  0.00    +0.000 A 
BRANCH  20  22
ATOM     22  C   UNL     1      45.341   3.355   9.185  0.00  0.00    +0.000 A 
ATOM     23  C   UNL     1      45.941   4.175   8.210  0.00  0.00    +0.000 A 
ATOM     24  C   UNL     1      46.682   3.644   7.153  0.00  0.00    +0.000 A 
ATOM     25  C   UNL     1      46.848   2.268   7.050  0.00  0.00    +0.000 A 
ATOM     26  C   UNL     1      46.260   1.429   7.992  0.00  0.00    +0.000 A 
ATOM     27  C   UNL     1      45.507   1.966   9.044  0.00  0.00    +0.000 A 
ENDBRANCH  20  22
ENDBRANCH  15  16
ENDBRANCH   1  15
TORSDOF 5
ENDMDL
MODEL 7
REMARK VINA RESULT:    -6.919      4.843      6.884
REMARK INTER + INTRA:          -9.941
REMARK INTER:                  -9.001
REMARK INTRA:                  -0.940
REMARK UNBOUND:                -0.999
REMARK  Name = 
REMARK  5 active torsions:
REMARK  status: ('A' for Active; 'I' for Inactive)
REMARK    1  A    between atoms: C_2  and  C_4
REMARK    2  A    between atoms: N_8  and  C_9
REMARK    3  A    between atoms: C_9  and  C_10
REMARK    4  A    between atoms: C_10  and  C_11
REMARK    5  A    between atoms: C_15  and  C_16
REMARK                            x       y       z     vdW  Elec       q    Type
REMARK                         _______ _______ _______ _____ _____    ______ ____
ROOT
ATOM      1  C   UNL     1      48.523   6.586  14.476  0.00  0.00    +0.000 C 
ENDROOT
BRANCH   1   6
ATOM      2  C   UNL     1      44.867   4.869  11.406  0.00  0.00    +0.000 A 
ATOM      3  C   UNL     1      45.522   4.231  12.454  0.00  0.00    +0.000 A 
ATOM      4  C   UNL     1      46.375   4.970  13.269  0.00  0.00    +0.000 A 
ATOM      5  C   UNL     1      46.577   6.326  13.020  0.00  0.00    +0.000 A 
ATOM      6  N   UNL     1      47.333   7.140  13.848  0.00  0.00    +0.000 N 
ATOM      7  N   UNL     1      45.978   6.945  11.983  0.00  0.00    +0.000 NA
ATOM      8  C   UNL     1      45.146   6.211  11.196  0.00  0.00    +0.000 A 
ATOM      9  H   UNL     1      47.448   8.031  13.369  0.00  0.00    +0.000 HD
BRANCH   2  11
ATOM     10  N   UNL     1      43.902   4.508   9.211  0.00  0.00    +0.000 N 
ATOM     11  C   UNL     1      43.901   4.174  10.537  0.00  0.00    +0.000 C 
ATOM     12  O   UNL     1      43.153   3.304  10.973  0.00  0.00    +0.000 OA
ATOM     13  H   UNL     1      43.313   3.948   8.605  0.00  0.00    +0.000 HD
ATOM     14  H   UNL     1      44.659   5.020   8.782  0.00  0.00    +0.000 HD
ENDBRANCH   2  11
ENDBRANCH   1   6
BRANCH   1  15
ATOM     15  C   UNL     1      48.456   6.723  16.002  0.00  0.00    +0.000 C 
BRANCH  15  16
ATOM     16  C   UNL     1      48.496   5.360  16.656  0.00  0.00    +0.000 A 
ATOM     17  C   UNL     1      47.336   4.584  16.753  0.00  0.00    +0.000 A 
ATOM     18  C   UNL     1      47.395   3.303  17.289  0.00  0.00    +0.000 A 
ATOM     19  C   UNL     1      48.621   2.772  17.695  0.00  0.00    +0.000 A 
ATOM     20  C   UNL     1      49.819   3.494  17.550  0.00  0.00    +0.000 A 
ATOM     21  C   UNL     1      49.724   4.812  17.067  0.00  0.00    +0.000 A 
BRANCH  20  22
ATOM     22  C   UNL     1      51.134   2.849  17.772  0.00  0.00    +0.000 A 
ATOM     23  C   UNL     1      51.334   1.507  17.394  0.00  0.00    +0.000 A 
ATOM     24  C   UNL     1      52.581   0.890  17.497  0.00  0.00    +0.000 A 
ATOM     25  C   UNL     1      53.670   1.608  17.979  0.00  0.00    +0.000 A 
ATOM     26  C   UNL     1      53.503   2.933  18.371  0.00  0.00    +0.000 A 
ATOM     27  C   UNL     1      52.246   3.546  18.276  0.00  0.00    +0.000 A 
ENDBRANCH  20  22
ENDBRANCH  15  16
ENDBRANCH   1  15
TORSDOF 5
ENDMDL
MODEL 8
REMARK VINA RESULT:    -6.855      3.644      6.839
REMARK INTER + INTRA:          -9.859
REMARK INTER:                  -8.988
REMARK INTRA:                  -0.870
REMARK UNBOUND:                -0.999
REMARK  Name = 
REMARK  5 active torsions:
REMARK  status: ('A' for Active; 'I' for Inactive)
REMARK    1  A    between atoms: C_2  and  C_4
REMARK    2  A    between atoms: N_8  and  C_9
REMARK    3  A    between atoms: C_9  and  C_10
REMARK    4  A    between atoms: C_10  and  C_11
REMARK    5  A    between atoms: C_15  and  C_16
REMARK                            x       y       z     vdW  Elec       q    Type
REMARK                         _______ _______ _______ _____ _____    ______ ____
ROOT
ATOM      1  C   UNL     1      44.746   7.310  11.338  0.00  0.00    +0.000 C 
ENDROOT
BRANCH   1   6
ATOM      2  C   UNL     1      49.040   7.400  14.041  0.00  0.00    +0.000 A 
ATOM      3  C   UNL     1      48.661   6.560  12.998  0.00  0.00    +0.000 A 
ATOM      4  C   UNL     1      47.495   6.842  12.292  0.00  0.00    +0.000 A 
ATOM      5  C   UNL     1      46.715   7.942  12.643  0.00  0.00    +0.000 A 
ATOM      6  N   UNL     1      45.598   8.336  11.922  0.00  0.00    +0.000 N 
ATOM      7  N   UNL     1      47.052   8.738  13.676  0.00  0.00    +0.000 NA
ATOM      8  C   UNL     1      48.195   8.452  14.357  0.00  0.00    +0.000 A 
ATOM      9  H   UNL     1      45.130   9.057  12.465  0.00  0.00    +0.000 HD
BRANCH   2  11
ATOM     10  N   UNL     1      51.395   7.879  14.354  0.00  0.00    +0.000 N 
ATOM     11  C   UNL     1      50.290   7.207  14.796  0.00  0.00    +0.000 C 
ATOM     12  O   UNL     1      50.333   6.506  15.802  0.00  0.00    +0.000 OA
ATOM     13  H   UNL     1      52.220   7.827  14.942  0.00  0.00    +0.000 HD
ATOM     14  H   UNL     1      51.337   8.646  13.700  0.00  0.00    +0.000 HD
ENDBRANCH   2  11
ENDBRANCH   1   6
BRANCH   1  15
ATOM     15  C   UNL     1      44.248   6.333  12.410  0.00  0.00    +0.000 C 
BRANCH  15  16
ATOM     16  C   UNL     1      44.212   4.924  11.862  0.00  0.00    +0.000 A 
ATOM     17  C   UNL     1      43.302   3.989  12.368  0.00  0.00    +0.000 A 
ATOM     18  C   UNL     1      43.225   2.717  11.810  0.00  0.00    +0.000 A 
ATOM     19  C   UNL     1      44.028   2.384  10.717  0.00  0.00    +0.000 A 
ATOM     20  C   UNL     1      44.905   3.319  10.138  0.00  0.00    +0.000 A 
ATOM     21  C   UNL     1      45.014   4.576  10.761  0.00  0.00    +0.000 A 
BRANCH  20  22
ATOM     22  C   UNL     1      45.585   3.036   8.853  0.00  0.00    +0.000 A 
ATOM     23  C   UNL     1      45.934   4.094   7.991  0.00  0.00    +0.000 A 
ATOM     24  C   UNL     1      46.657   3.881   6.817  0.00  0.00    +0.000 A 
ATOM     25  C   UNL     1      47.061   2.595   6.478  0.00  0.00    +0.000 A 
ATOM     26  C   UNL     1      46.725   1.526   7.303  0.00  0.00    +0.000 A 
ATOM     27  C   UNL     1      45.987   1.743   8.475  0.00  0.00    +0.000 A 
ENDBRANCH  20  22
ENDBRANCH  15  16
ENDBRANCH   1  15
TORSDOF 5
ENDMDL
MODEL 9
REMARK VINA RESULT:    -6.634      3.629      6.909
REMARK INTER + INTRA:          -9.573
REMARK INTER:                  -8.722
REMARK INTRA:                  -0.851
REMARK UNBOUND:                -0.999
REMARK  Name = 
REMARK  5 active torsions:
REMARK  status: ('A' for Active; 'I' for Inactive)
REMARK    1  A    between atoms: C_2  and  C_4
REMARK    2  A    between atoms: N_8  and  C_9
REMARK    3  A    between atoms: C_9  and  C_10
REMARK    4  A    between atoms: C_10  and  C_11
REMARK    5  A    between atoms: C_15  and  C_16
REMARK                            x       y       z     vdW  Elec       q    Type
REMARK                         _______ _______ _______ _____ _____    ______ ____
ROOT
ATOM      1  C   UNL     1      45.732   7.863  12.779  0.00  0.00    +0.000 C 
ENDROOT
BRANCH   1   6
ATOM      2  C   UNL     1      50.692   8.548  11.954  0.00  0.00    +0.000 A 
ATOM      3  C   UNL     1      49.833   7.571  11.459  0.00  0.00    +0.000 A 
ATOM      4  C   UNL     1      48.466   7.691  11.692  0.00  0.00    +0.000 A 
ATOM      5  C   UNL     1      47.974   8.770  12.424  0.00  0.00    +0.000 A 
ATOM      6  N   UNL     1      46.621   9.003  12.608  0.00  0.00    +0.000 N 
ATOM      7  N   UNL     1      48.801   9.700  12.941  0.00  0.00    +0.000 NA
ATOM      8  C   UNL     1      50.135   9.571  12.705  0.00  0.00    +0.000 A 
ATOM      9  H   UNL     1      46.536   9.750  13.294  0.00  0.00    +0.000 HD
BRANCH   2  11
ATOM     10  N   UNL     1      52.545   8.441  10.395  0.00  0.00    +0.000 N 
ATOM     11  C   UNL     1      52.143   8.527  11.699  0.00  0.00    +0.000 C 
ATOM     12  O   UNL     1      52.958   8.621  12.611  0.00  0.00    +0.000 OA
ATOM     13  H   UNL     1      53.540   8.539  10.223  0.00  0.00    +0.000 HD
ATOM     14  H   UNL     1      51.920   8.617   9.622  0.00  0.00    +0.000 HD
ENDBRANCH   2  11
ENDBRANCH   1   6
BRANCH   1  15
ATOM     15  C   UNL     1      44.766   7.735  11.596  0.00  0.00    +0.000 C 
BRANCH  15  16
ATOM     16  C   UNL     1      44.397   6.286  11.371  0.00  0.00    +0.000 A 
ATOM     17  C   UNL     1      43.251   5.745  11.964  0.00  0.00    +0.000 A 
ATOM     18  C   UNL     1      42.878   4.432  11.695  0.00  0.00    +0.000 A 
ATOM     19  C   UNL     1      43.625   3.664  10.799  0.00  0.00    +0.000 A 
ATOM     20  C   UNL     1      44.743   4.195  10.131  0.00  0.00    +0.000 A 
ATOM     21  C   UNL     1      45.139   5.502  10.470  0.00  0.00    +0.000 A 
BRANCH  20  22
ATOM     22  C   UNL     1      45.394   3.457   9.023  0.00  0.00    +0.000 A 
ATOM     23  C   UNL     1      46.003   4.162   7.967  0.00  0.00    +0.000 A 
ATOM     24  C   UNL     1      46.708   3.511   6.954  0.00  0.00    +0.000 A 
ATOM     25  C   UNL     1      46.829   2.126   6.978  0.00  0.00    +0.000 A 
ATOM     26  C   UNL     1      46.231   1.398   8.003  0.00  0.00    +0.000 A 
ATOM     27  C   UNL     1      45.513   2.056   9.011  0.00  0.00    +0.000 A 
ENDBRANCH  20  22
ENDBRANCH  15  16
ENDBRANCH   1  15
TORSDOF 5
ENDMDL
