MODEL 1
REMARK VINA RESULT:    -8.296      0.000      0.000
REMARK INTER + INTRA:         -13.039
REMARK INTER:                 -11.691
REMARK INTRA:                  -1.348
REMARK UNBOUND:                -1.348
REMARK  Name = 
REMARK  7 active torsions:
REMARK  status: ('A' for Active; 'I' for Inactive)
REMARK    1  A    between atoms: C_2  and  C_4
REMARK    2  A    between atoms: C_8  and  C_9
REMARK    3  A    between atoms: C_9  and  N_10
REMARK    4  A    between atoms: N_10  and  C_11
REMARK    5  A    between atoms: C_14  and  C_15
REMARK    6  A    between atoms: C_15  and  N_16
REMARK    7  A    between atoms: C_17  and  C_19
REMARK                            x       y       z     vdW  Elec       q    Type
REMARK                         _______ _______ _______ _____ _____    ______ ____
ROOT
ATOM      1  C   UNL     1      44.935   3.922  12.426  0.00  0.00    +0.000 A 
ATOM      2  C   UNL     1      44.392   5.211  12.483  0.00  0.00    +0.000 A 
ATOM      3  C   UNL     1      45.172   6.304  12.906  0.00  0.00    +0.000 A 
ATOM      4  C   UNL     1      46.508   6.125  13.283  0.00  0.00    +0.000 A 
ATOM      5  C   UNL     1      47.019   4.825  13.316  0.00  0.00    +0.000 A 
ATOM      6  C   UNL     1      46.235   3.743  12.904  0.00  0.00    +0.000 A 
ENDROOT
BRANCH   1   7
ATOM      7  N   UNL     1      44.251   2.784  11.981  0.00  0.00    +0.000 N 
ATOM      8  H   UNL     1      43.596   2.460  12.691  0.00  0.00    +0.000 HD
BRANCH   7   9
ATOM      9  C   UNL     1      43.655   2.794  10.654  0.00  0.00    +0.000 C 
BRANCH   9  14
ATOM     10  C   UNL     1      46.300   2.107   7.979  0.00  0.00    +0.000 A 
ATOM     11  C   UNL     1      46.528   3.387   7.467  0.00  0.00    +0.000 A 
ATOM     12  C   UNL     1      45.878   4.485   8.035  0.00  0.00    +0.000 A 
ATOM     13  C   UNL     1      44.983   4.298   9.094  0.00  0.00    +0.000 A 
ATOM     14  C   UNL     1      44.723   3.013   9.600  0.00  0.00    +0.000 A 
ATOM     15  C   UNL     1      45.403   1.923   9.039  0.00  0.00    +0.000 A 
BRANCH  10  17
ATOM     16  N   UNL     1      47.730   1.085   6.285  0.00  0.00    +0.000 N 
ATOM     17  C   UNL     1      46.938   0.903   7.379  0.00  0.00    +0.000 C 
ATOM     18  O   UNL     1      46.783  -0.211   7.867  0.00  0.00    +0.000 OA
ATOM     19  H   UNL     1      48.226   0.270   5.948  0.00  0.00    +0.000 HD
ATOM     20  H   UNL     1      48.079   1.994   6.012  0.00  0.00    +0.000 HD
ENDBRANCH  10  17
ENDBRANCH   9  14
ENDBRANCH   7   9
ENDBRANCH   1   7
BRANCH   4  21
ATOM     21  C   UNL     1      47.395   7.287  13.654  0.00  0.00    +0.000 C 
BRANCH  21  22
ATOM     22  N   UNL     1      47.819   7.230  15.029  0.00  0.00    +0.000 N 
ATOM     23  C   UNL     1      49.131   7.001  15.354  0.00  0.00    +0.000 C 
ATOM     24  O   UNL     1      50.006   6.880  14.498  0.00  0.00    +0.000 OA
ATOM     25  H   UNL     1      47.101   7.049  15.724  0.00  0.00    +0.000 HD
BRANCH  23  26
ATOM     26  C   UNL     1      49.457   6.971  16.785  0.00  0.00    +0.000 A 
ATOM     27  C   UNL     1      50.286   7.944  17.327  0.00  0.00    +0.000 A 
ATOM     28  S   UNL     1      50.535   7.771  19.006  0.00  0.00    +0.000 S 
ATOM     29  C   UNL     1      49.581   6.363  19.059  0.00  0.00    +0.000 A 
ATOM     30  N   UNL     1      49.411   5.674  20.219  0.00  0.00    +0.000 NA
ATOM     31  C   UNL     1      48.685   4.613  20.106  0.00  0.00    +0.000 A 
ATOM     32  N   UNL     1      48.104   4.182  18.940  0.00  0.00    +0.000 N 
ATOM     33  C   UNL     1      48.221   4.861  17.753  0.00  0.00    +0.000 A 
ATOM     34  O   UNL     1      47.647   4.480  16.741  0.00  0.00    +0.000 OA
ATOM     35  C   UNL     1      49.052   6.049  17.819  0.00  0.00    +0.000 A 
ATOM     36  H   UNL     1      47.533   3.350  18.923  0.00  0.00    +0.000 HD
ENDBRANCH  23  26
ENDBRANCH  21  22
ENDBRANCH   4  21
TORSDOF 7
ENDMDL
MODEL 2
REMARK VINA RESULT:    -8.078      3.657      6.371
REMARK INTER + INTRA:         -12.732
REMARK INTER:                 -11.626
REMARK INTRA:                  -1.105
REMARK UNBOUND:                -1.348
REMARK  Name = 
REMARK  7 active torsions:
REMARK  status: ('A' for Active; 'I' for Inactive)
REMARK    1  A    between atoms: C_2  and  C_4
REMARK    2  A    between atoms: C_8  and  C_9
REMARK    3  A    between atoms: C_9  and  N_10
REMARK    4  A    between atoms: N_10  and  C_11
REMARK    5  A    between atoms: C_14  and  C_15
REMARK    6  A    between atoms: C_15  and  N_16
REMARK    7  A    between atoms: C_17  and  C_19
REMARK                            x       y       z     vdW  Elec       q    Type
REMARK                         _______ _______ _______ _____ _____    ______ ____
ROOT
ATOM      1  C   UNL     1      46.579   1.999   7.265  0.00  0.00    +0.000 A 
ATOM      2  C   UNL     1      46.339   3.369   7.114  0.00  0.00    +0.000 A 
ATOM      3  C   UNL     1      45.490   4.055   8.003  0.00  0.00    +0.000 A 
ATOM      4  C   UNL     1      44.864   3.379   9.057  0.00  0.00    +0.000 A 
ATOM      5  C   UNL     1      45.030   1.994   9.148  0.00  0.00    +0.000 A 
ATOM      6  C   UNL     1      45.867   1.319   8.255  0.00  0.00    +0.000 A 
ENDROOT
BRANCH   1   7
ATOM      7  N   UNL     1      47.437   1.242   6.456  0.00  0.00    +0.000 N 
ATOM      8  H   UNL     1      47.192   0.254   6.500  0.00  0.00    +0.000 HD
BRANCH   7   9
ATOM      9  C   UNL     1      47.686   1.681   5.090  0.00  0.00    +0.000 C 
BRANCH   9  14
ATOM     10  C   UNL     1      46.504  -1.515   3.352  0.00  0.00    +0.000 A 
ATOM     11  C   UNL     1      45.558  -1.016   2.451  0.00  0.00    +0.000 A 
ATOM     12  C   UNL     1      45.352   0.361   2.356  0.00  0.00    +0.000 A 
ATOM     13  C   UNL     1      46.073   1.236   3.177  0.00  0.00    +0.000 A 
ATOM     14  C   UNL     1      47.006   0.747   4.108  0.00  0.00    +0.000 A 
ATOM     15  C   UNL     1      47.222  -0.636   4.174  0.00  0.00    +0.000 A 
BRANCH  10  17
ATOM     16  N   UNL     1      46.074  -3.605   4.536  0.00  0.00    +0.000 N 
ATOM     17  C   UNL     1      46.728  -2.977   3.518  0.00  0.00    +0.000 C 
ATOM     18  O   UNL     1      47.450  -3.603   2.751  0.00  0.00    +0.000 OA
ATOM     19  H   UNL     1      46.167  -4.612   4.577  0.00  0.00    +0.000 HD
ATOM     20  H   UNL     1      45.292  -3.185   5.021  0.00  0.00    +0.000 HD
ENDBRANCH  10  17
ENDBRANCH   9  14
ENDBRANCH   7   9
ENDBRANCH   1   7
BRANCH   4  21
ATOM     21  C   UNL     1      44.021   4.100  10.080  0.00  0.00    +0.000 C 
BRANCH  21  22
ATOM     22  N   UNL     1      44.689   5.257  10.616  0.00  0.00    +0.000 N 
ATOM     23  C   UNL     1      43.980   6.272  11.203  0.00  0.00    +0.000 C 
ATOM     24  O   UNL     1      42.758   6.225  11.339  0.00  0.00    +0.000 OA
ATOM     25  H   UNL     1      45.628   5.445  10.275  0.00  0.00    +0.000 HD
BRANCH  23  26
ATOM     26  C   UNL     1      44.760   7.401  11.724  0.00  0.00    +0.000 A 
ATOM     27  C   UNL     1      44.473   8.694  11.304  0.00  0.00    +0.000 A 
ATOM     28  S   UNL     1      45.458   9.882  12.031  0.00  0.00    +0.000 S 
ATOM     29  C   UNL     1      46.333   8.708  12.897  0.00  0.00    +0.000 A 
ATOM     30  N   UNL     1      47.371   9.059  13.702  0.00  0.00    +0.000 NA
ATOM     31  C   UNL     1      47.959   8.064  14.276  0.00  0.00    +0.000 A 
ATOM     32  N   UNL     1      47.597   6.749  14.128  0.00  0.00    +0.000 N 
ATOM     33  C   UNL     1      46.536   6.350  13.353  0.00  0.00    +0.000 A 
ATOM     34  O   UNL     1      46.205   5.173  13.283  0.00  0.00    +0.000 OA
ATOM     35  C   UNL     1      45.857   7.430  12.661  0.00  0.00    +0.000 A 
ATOM     36  H   UNL     1      48.090   6.017  14.619  0.00  0.00    +0.000 HD
ENDBRANCH  23  26
ENDBRANCH  21  22
ENDBRANCH   4  21
TORSDOF 7
ENDMDL
MODEL 3
REMARK VINA RESULT:    -8.056      3.390      5.500
REMARK INTER + INTRA:         -12.700
REMARK INTER:                 -11.714
REMARK INTRA:                  -0.986
REMARK UNBOUND:                -1.348
REMARK  Name = 
REMARK  7 active torsions:
REMARK  status: ('A' for Active; 'I' for Inactive)
REMARK    1  A    between atoms: C_2  and  C_4
REMARK    2  A    between atoms: C_8  and  C_9
REMARK    3  A    between atoms: C_9  and  N_10
REMARK    4  A    between atoms: N_10  and  C_11
REMARK    5  A    between atoms: C_14  and  C_15
REMARK    6  A    between atoms: C_15  and  N_16
REMARK    7  A    between atoms: C_17  and  C_19
REMARK                            x       y       z     vdW  Elec       q    Type
REMARK                         _______ _______ _______ _____ _____    ______ ____
ROOT
ATOM      1  C   UNL     1      46.533   1.943   7.302  0.00  0.00    +0.000 A 
ATOM      2  C   UNL     1      46.598   3.311   7.017  0.00  0.00    +0.000 A 
ATOM      3  C   UNL     1      46.012   4.257   7.880  0.00  0.00    +0.000 A 
ATOM      4  C   UNL     1      45.347   3.848   9.042  0.00  0.00    +0.000 A 
ATOM      5  C   UNL     1      45.200   2.477   9.274  0.00  0.00    +0.000 A 
ATOM      6  C   UNL     1      45.777   1.544   8.407  0.00  0.00    +0.000 A 
ENDROOT
BRANCH   1   7
ATOM      7  N   UNL     1      47.118   0.934   6.527  0.00  0.00    +0.000 N 
ATOM      8  H   UNL     1      46.501   0.126   6.466  0.00  0.00    +0.000 HD
BRANCH   7   9
ATOM      9  C   UNL     1      47.689   1.282   5.234  0.00  0.00    +0.000 C 
BRANCH   9  14
ATOM     10  C   UNL     1      46.252  -1.524   3.069  0.00  0.00    +0.000 A 
ATOM     11  C   UNL     1      45.394  -0.819   2.220  0.00  0.00    +0.000 A 
ATOM     12  C   UNL     1      45.332   0.573   2.300  0.00  0.00    +0.000 A 
ATOM     13  C   UNL     1      46.108   1.256   3.244  0.00  0.00    +0.000 A 
ATOM     14  C   UNL     1      46.953   0.557   4.123  0.00  0.00    +0.000 A 
ATOM     15  C   UNL     1      47.026  -0.838   4.014  0.00  0.00    +0.000 A 
BRANCH  10  17
ATOM     16  N   UNL     1      45.379  -3.677   2.320  0.00  0.00    +0.000 N 
ATOM     17  C   UNL     1      46.320  -3.011   3.048  0.00  0.00    +0.000 C 
ATOM     18  O   UNL     1      47.207  -3.617   3.638  0.00  0.00    +0.000 OA
ATOM     19  H   UNL     1      45.496  -4.680   2.245  0.00  0.00    +0.000 HD
ATOM     20  H   UNL     1      44.800  -3.218   1.631  0.00  0.00    +0.000 HD
ENDBRANCH  10  17
ENDBRANCH   9  14
ENDBRANCH   7   9
ENDBRANCH   1   7
BRANCH   4  21
ATOM     21  C   UNL     1      44.787   4.838  10.032  0.00  0.00    +0.000 C 
BRANCH  21  22
ATOM     22  N   UNL     1      45.715   5.127  11.095  0.00  0.00    +0.000 N 
ATOM     23  C   UNL     1      45.799   6.383  11.636  0.00  0.00    +0.000 C 
ATOM     24  O   UNL     1      45.067   7.303  11.275  0.00  0.00    +0.000 OA
ATOM     25  H   UNL     1      46.496   4.488  11.209  0.00  0.00    +0.000 HD
BRANCH  23  26
ATOM     26  C   UNL     1      46.772   6.567  12.720  0.00  0.00    +0.000 A 
ATOM     27  C   UNL     1      47.612   7.673  12.718  0.00  0.00    +0.000 A 
ATOM     28  S   UNL     1      48.656   7.740  14.065  0.00  0.00    +0.000 S 
ATOM     29  C   UNL     1      48.056   6.270  14.675  0.00  0.00    +0.000 A 
ATOM     30  N   UNL     1      48.562   5.724  15.812  0.00  0.00    +0.000 NA
ATOM     31  C   UNL     1      48.030   4.595  16.143  0.00  0.00    +0.000 A 
ATOM     32  N   UNL     1      47.029   3.967  15.445  0.00  0.00    +0.000 N 
ATOM     33  C   UNL     1      46.466   4.496  14.311  0.00  0.00    +0.000 A 
ATOM     34  O   UNL     1      45.537   3.936  13.740  0.00  0.00    +0.000 OA
ATOM     35  C   UNL     1      47.048   5.753  13.879  0.00  0.00    +0.000 A 
ATOM     36  H   UNL     1      46.644   3.091  15.767  0.00  0.00    +0.000 HD
ENDBRANCH  23  26
ENDBRANCH  21  22
ENDBRANCH   4  21
TORSDOF 7
ENDMDL
MODEL 4
REMARK VINA RESULT:    -7.791      1.615      1.951
REMARK INTER + INTRA:         -12.327
REMARK INTER:                 -11.290
REMARK INTRA:                  -1.037
REMARK UNBOUND:                -1.348
REMARK  Name = 
REMARK  7 active torsions:
REMARK  status: ('A' for Active; 'I' for Inactive)
REMARK    1  A    between atoms: C_2  and  C_4
REMARK    2  A    between atoms: C_8  and  C_9
REMARK    3  A    between atoms: C_9  and  N_10
REMARK    4  A    between atoms: N_10  and  C_11
REMARK    5  A    between atoms: C_14  and  C_15
REMARK    6  A    between atoms: C_15  and  N_16
REMARK    7  A    between atoms: C_17  and  C_19
REMARK                            x       y       z     vdW  Elec       q    Type
REMARK                         _______ _______ _______ _____ _____    ______ ____
ROOT
ATOM      1  C   UNL     1      45.172   5.136  11.408  0.00  0.00    +0.000 A 
ATOM      2  C   UNL     1      45.962   6.194  10.945  0.00  0.00    +0.000 A 
ATOM      3  C   UNL     1      47.028   6.692  11.719  0.00  0.00    +0.000 A 
ATOM      4  C   UNL     1      47.317   6.141  12.973  0.00  0.00    +0.000 A 
ATOM      5  C   UNL     1      46.468   5.149  13.474  0.00  0.00    +0.000 A 
ATOM      6  C   UNL     1      45.407   4.668  12.702  0.00  0.00    +0.000 A 
ENDROOT
BRANCH   1   7
ATOM      7  N   UNL     1      44.120   4.550  10.693  0.00  0.00    +0.000 N 
ATOM      8  H   UNL     1      43.222   4.830  11.084  0.00  0.00    +0.000 HD
BRANCH   7   9
ATOM      9  C   UNL     1      44.128   4.625   9.239  0.00  0.00    +0.000 C 
BRANCH   9  14
ATOM     10  C   UNL     1      46.507   2.504   7.127  0.00  0.00    +0.000 A 
ATOM     11  C   UNL     1      46.379   1.248   7.727  0.00  0.00    +0.000 A 
ATOM     12  C   UNL     1      45.470   1.070   8.771  0.00  0.00    +0.000 A 
ATOM     13  C   UNL     1      44.710   2.151   9.230  0.00  0.00    +0.000 A 
ATOM     14  C   UNL     1      44.849   3.426   8.655  0.00  0.00    +0.000 A 
ATOM     15  C   UNL     1      45.745   3.585   7.590  0.00  0.00    +0.000 A 
BRANCH  10  17
ATOM     16  N   UNL     1      48.812   2.797   6.380  0.00  0.00    +0.000 N 
ATOM     17  C   UNL     1      47.493   2.751   6.039  0.00  0.00    +0.000 C 
ATOM     18  O   UNL     1      47.137   2.879   4.874  0.00  0.00    +0.000 OA
ATOM     19  H   UNL     1      49.471   2.875   5.616  0.00  0.00    +0.000 HD
ATOM     20  H   UNL     1      49.158   2.451   7.265  0.00  0.00    +0.000 HD
ENDBRANCH  10  17
ENDBRANCH   9  14
ENDBRANCH   7   9
ENDBRANCH   1   7
BRANCH   4  21
ATOM     21  C   UNL     1      48.505   6.589  13.788  0.00  0.00    +0.000 C 
BRANCH  21  22
ATOM     22  N   UNL     1      48.172   6.779  15.176  0.00  0.00    +0.000 N 
ATOM     23  C   UNL     1      49.102   6.566  16.160  0.00  0.00    +0.000 C 
ATOM     24  O   UNL     1      50.264   6.250  15.907  0.00  0.00    +0.000 OA
ATOM     25  H   UNL     1      47.186   6.761  15.418  0.00  0.00    +0.000 HD
BRANCH  23  26
ATOM     26  C   UNL     1      48.660   6.796  17.540  0.00  0.00    +0.000 A 
ATOM     27  C   UNL     1      48.263   8.067  17.938  0.00  0.00    +0.000 A 
ATOM     28  S   UNL     1      47.757   8.146  19.565  0.00  0.00    +0.000 S 
ATOM     29  C   UNL     1      48.095   6.497  19.809  0.00  0.00    +0.000 A 
ATOM     30  N   UNL     1      47.917   5.917  21.026  0.00  0.00    +0.000 NA
ATOM     31  C   UNL     1      48.238   4.667  21.072  0.00  0.00    +0.000 A 
ATOM     32  N   UNL     1      48.710   3.940  20.009  0.00  0.00    +0.000 N 
ATOM     33  C   UNL     1      48.875   4.474  18.755  0.00  0.00    +0.000 A 
ATOM     34  O   UNL     1      49.249   3.786  17.813  0.00  0.00    +0.000 OA
ATOM     35  C   UNL     1      48.555   5.886  18.655  0.00  0.00    +0.000 A 
ATOM     36  H   UNL     1      48.928   2.959  20.108  0.00  0.00    +0.000 HD
ENDBRANCH  23  26
ENDBRANCH  21  22
ENDBRANCH   4  21
TORSDOF 7
ENDMDL
MODEL 5
REMARK VINA RESULT:    -7.654      3.190      8.672
REMARK INTER + INTRA:         -12.134
REMARK INTER:                 -10.642
REMARK INTRA:                  -1.493
REMARK UNBOUND:                -1.348
REMARK  Name = 
REMARK  7 active torsions:
REMARK  status: ('A' for Active; 'I' for Inactive)
REMARK    1  A    between atoms: C_2  and  C_4
REMARK    2  A    between atoms: C_8  and  C_9
REMARK    3  A    between atoms: C_9  and  N_10
REMARK    4  A    between atoms: N_10  and  C_11
REMARK    5  A    between atoms: C_14  and  C_15
REMARK    6  A    between atoms: C_15  and  N_16
REMARK    7  A    between atoms: C_17  and  C_19
REMARK                            x       y       z     vdW  Elec       q    Type
REMARK                         _______ _______ _______ _____ _____    ______ ____
ROOT
ATOM      1  C   UNL     1      49.628   7.907  15.952  0.00  0.00    +0.000 A 
ATOM      2  C   UNL     1      48.494   8.707  15.777  0.00  0.00    +0.000 A 
ATOM      3  C   UNL     1      47.826   8.753  14.538  0.00  0.00    +0.000 A 
ATOM      4  C   UNL     1      48.287   8.000  13.451  0.00  0.00    +0.000 A 
ATOM      5  C   UNL     1      49.474   7.277  13.601  0.00  0.00    +0.000 A 
ATOM      6  C   UNL     1      50.135   7.245  14.832  0.00  0.00    +0.000 A 
ENDROOT
BRANCH   1   7
ATOM      7  N   UNL     1      50.332   7.767  17.155  0.00  0.00    +0.000 N 
ATOM      8  H   UNL     1      50.788   8.642  17.407  0.00  0.00    +0.000 HD
BRANCH   7   9
ATOM      9  C   UNL     1      49.665   7.153  18.294  0.00  0.00    +0.000 C 
BRANCH   9  14
ATOM     10  C   UNL     1      49.371   3.464  17.327  0.00  0.00    +0.000 A 
ATOM     11  C   UNL     1      47.991   3.259  17.399  0.00  0.00    +0.000 A 
ATOM     12  C   UNL     1      47.146   4.332  17.692  0.00  0.00    +0.000 A 
ATOM     13  C   UNL     1      47.685   5.600  17.938  0.00  0.00    +0.000 A 
ATOM     14  C   UNL     1      49.073   5.814  17.896  0.00  0.00    +0.000 A 
ATOM     15  C   UNL     1      49.907   4.735  17.574  0.00  0.00    +0.000 A 
BRANCH  10  17
ATOM     16  N   UNL     1      51.354   2.171  17.922  0.00  0.00    +0.000 N 
ATOM     17  C   UNL     1      50.313   2.343  17.059  0.00  0.00    +0.000 C 
ATOM     18  O   UNL     1      50.145   1.581  16.114  0.00  0.00    +0.000 OA
ATOM     19  H   UNL     1      51.929   1.351  17.775  0.00  0.00    +0.000 HD
ATOM     20  H   UNL     1      51.382   2.609  18.833  0.00  0.00    +0.000 HD
ENDBRANCH  10  17
ENDBRANCH   9  14
ENDBRANCH   7   9
ENDBRANCH   1   7
BRANCH   4  21
ATOM     21  C   UNL     1      47.545   7.956  12.139  0.00  0.00    +0.000 C 
BRANCH  21  22
ATOM     22  N   UNL     1      46.852   6.708  11.948  0.00  0.00    +0.000 N 
ATOM     23  C   UNL     1      45.486   6.669  11.843  0.00  0.00    +0.000 C 
ATOM     24  O   UNL     1      44.797   7.688  11.863  0.00  0.00    +0.000 OA
ATOM     25  H   UNL     1      47.351   5.862  12.205  0.00  0.00    +0.000 HD
BRANCH  23  26
ATOM     26  C   UNL     1      44.882   5.346  11.641  0.00  0.00    +0.000 A 
ATOM     27  C   UNL     1      44.157   4.752  12.666  0.00  0.00    +0.000 A 
ATOM     28  S   UNL     1      43.504   3.232  12.249  0.00  0.00    +0.000 S 
ATOM     29  C   UNL     1      44.206   3.293  10.701  0.00  0.00    +0.000 A 
ATOM     30  N   UNL     1      44.065   2.262   9.826  0.00  0.00    +0.000 NA
ATOM     31  C   UNL     1      44.671   2.433   8.699  0.00  0.00    +0.000 A 
ATOM     32  N   UNL     1      45.397   3.548   8.362  0.00  0.00    +0.000 N 
ATOM     33  C   UNL     1      45.540   4.626   9.200  0.00  0.00    +0.000 A 
ATOM     34  O   UNL     1      46.150   5.629   8.849  0.00  0.00    +0.000 OA
ATOM     35  C   UNL     1      44.899   4.473  10.493  0.00  0.00    +0.000 A 
ATOM     36  H   UNL     1      45.834   3.627   7.456  0.00  0.00    +0.000 HD
ENDBRANCH  23  26
ENDBRANCH  21  22
ENDBRANCH   4  21
TORSDOF 7
ENDMDL
MODEL 6
REMARK VINA RESULT:    -7.619      3.252      5.165
REMARK INTER + INTRA:         -12.085
REMARK INTER:                 -10.630
REMARK INTRA:                  -1.455
REMARK UNBOUND:                -1.348
REMARK  Name = 
REMARK  7 active torsions:
REMARK  status: ('A' for Active; 'I' for Inactive)
REMARK    1  A    between atoms: C_2  and  C_4
REMARK    2  A    between atoms: C_8  and  C_9
REMARK    3  A    between atoms: C_9  and  N_10
REMARK    4  A    between atoms: N_10  and  C_11
REMARK    5  A    between atoms: C_14  and  C_15
REMARK    6  A    between atoms: C_15  and  N_16
REMARK    7  A    between atoms: C_17  and  C_19
REMARK                            x       y       z     vdW  Elec       q    Type
REMARK                         _______ _______ _______ _____ _____    ______ ____
ROOT
ATOM      1  C   UNL     1      45.026   3.603  12.419  0.00  0.00    +0.000 A 
ATOM      2  C   UNL     1      44.650   4.945  12.548  0.00  0.00    +0.000 A 
ATOM      3  C   UNL     1      45.506   5.878  13.164  0.00  0.00    +0.000 A 
ATOM      4  C   UNL     1      46.752   5.482  13.665  0.00  0.00    +0.000 A 
ATOM      5  C   UNL     1      47.083   4.125  13.621  0.00  0.00    +0.000 A 
ATOM      6  C   UNL     1      46.223   3.203  13.016  0.00  0.00    +0.000 A 
ENDROOT
BRANCH   1   7
ATOM      7  N   UNL     1      44.261   2.614  11.788  0.00  0.00    +0.000 N 
ATOM      8  H   UNL     1      43.570   2.230  12.431  0.00  0.00    +0.000 HD
BRANCH   7   9
ATOM      9  C   UNL     1      43.689   2.894  10.479  0.00  0.00    +0.000 C 
BRANCH   9  14
ATOM     10  C   UNL     1      46.357   2.044   7.874  0.00  0.00    +0.000 A 
ATOM     11  C   UNL     1      46.658   3.306   7.352  0.00  0.00    +0.000 A 
ATOM     12  C   UNL     1      46.050   4.441   7.890  0.00  0.00    +0.000 A 
ATOM     13  C   UNL     1      45.124   4.311   8.932  0.00  0.00    +0.000 A 
ATOM     14  C   UNL     1      44.790   3.047   9.447  0.00  0.00    +0.000 A 
ATOM     15  C   UNL     1      45.428   1.919   8.915  0.00  0.00    +0.000 A 
BRANCH  10  17
ATOM     16  N   UNL     1      47.657   0.914   6.144  0.00  0.00    +0.000 N 
ATOM     17  C   UNL     1      46.950   0.803   7.304  0.00  0.00    +0.000 C 
ATOM     18  O   UNL     1      46.832  -0.277   7.871  0.00  0.00    +0.000 OA
ATOM     19  H   UNL     1      48.127   0.078   5.822  0.00  0.00    +0.000 HD
ATOM     20  H   UNL     1      47.984   1.803   5.790  0.00  0.00    +0.000 HD
ENDBRANCH  10  17
ENDBRANCH   9  14
ENDBRANCH   7   9
ENDBRANCH   1   7
BRANCH   4  21
ATOM     21  C   UNL     1      47.729   6.472  14.249  0.00  0.00    +0.000 C 
BRANCH  21  22
ATOM     22  N   UNL     1      47.861   7.651  13.432  0.00  0.00    +0.000 N 
ATOM     23  C   UNL     1      48.083   8.879  13.997  0.00  0.00    +0.000 C 
ATOM     24  O   UNL     1      48.222   9.027  15.210  0.00  0.00    +0.000 OA
ATOM     25  H   UNL     1      47.481   7.603  12.491  0.00  0.00    +0.000 HD
BRANCH  23  26
ATOM     26  C   UNL     1      48.211  10.013  13.074  0.00  0.00    +0.000 A 
ATOM     27  C   UNL     1      49.402  10.725  13.011  0.00  0.00    +0.000 A 
ATOM     28  S   UNL     1      49.383  11.989  11.866  0.00  0.00    +0.000 S 
ATOM     29  C   UNL     1      47.767  11.661  11.447  0.00  0.00    +0.000 A 
ATOM     30  N   UNL     1      47.112  12.421  10.530  0.00  0.00    +0.000 NA
ATOM     31  C   UNL     1      45.885  12.075  10.330  0.00  0.00    +0.000 A 
ATOM     32  N   UNL     1      45.255  11.029  10.956  0.00  0.00    +0.000 N 
ATOM     33  C   UNL     1      45.885  10.214  11.864  0.00  0.00    +0.000 A 
ATOM     34  O   UNL     1      45.311   9.256  12.367  0.00  0.00    +0.000 OA
ATOM     35  C   UNL     1      47.261  10.579  12.147  0.00  0.00    +0.000 A 
ATOM     36  H   UNL     1      44.295  10.799  10.742  0.00  0.00    +0.000 HD
ENDBRANCH  23  26
ENDBRANCH  21  22
ENDBRANCH   4  21
TORSDOF 7
ENDMDL
MODEL 7
REMARK VINA RESULT:    -7.541      1.555      2.064
REMARK INTER + INTRA:         -11.975
REMARK INTER:                 -11.028
REMARK INTRA:                  -0.947
REMARK UNBOUND:                -1.348
REMARK  Name = 
REMARK  7 active torsions:
REMARK  status: ('A' for Active; 'I' for Inactive)
REMARK    1  A    between atoms: C_2  and  C_4
REMARK    2  A    between atoms: C_8  and  C_9
REMARK    3  A    between atoms: C_9  and  N_10
REMARK    4  A    between atoms: N_10  and  C_11
REMARK    5  A    between atoms: C_14  and  C_15
REMARK    6  A    between atoms: C_15  and  N_16
REMARK    7  A    between atoms: C_17  and  C_19
REMARK                            x       y       z     vdW  Elec       q    Type
REMARK                         _______ _______ _______ _____ _____    ______ ____
ROOT
ATOM      1  C   UNL     1      44.952   4.464  11.996  0.00  0.00    +0.000 A 
ATOM      2  C   UNL     1      46.227   4.747  12.500  0.00  0.00    +0.000 A 
ATOM      3  C   UNL     1      46.612   6.070  12.789  0.00  0.00    +0.000 A 
ATOM      4  C   UNL     1      45.728   7.134  12.572  0.00  0.00    +0.000 A 
ATOM      5  C   UNL     1      44.493   6.860  11.979  0.00  0.00    +0.000 A 
ATOM      6  C   UNL     1      44.122   5.544  11.687  0.00  0.00    +0.000 A 
ENDROOT
BRANCH   1   7
ATOM      7  N   UNL     1      44.467   3.180  11.717  0.00  0.00    +0.000 N 
ATOM      8  H   UNL     1      43.858   2.857  12.467  0.00  0.00    +0.000 HD
BRANCH   7   9
ATOM      9  C   UNL     1      43.902   2.911  10.403  0.00  0.00    +0.000 C 
BRANCH   9  14
ATOM     10  C   UNL     1      46.476   1.951   7.742  0.00  0.00    +0.000 A 
ATOM     11  C   UNL     1      46.788   3.194   7.186  0.00  0.00    +0.000 A 
ATOM     12  C   UNL     1      46.219   4.353   7.717  0.00  0.00    +0.000 A 
ATOM     13  C   UNL     1      45.321   4.265   8.787  0.00  0.00    +0.000 A 
ATOM     14  C   UNL     1      44.975   3.019   9.337  0.00  0.00    +0.000 A 
ATOM     15  C   UNL     1      45.574   1.866   8.812  0.00  0.00    +0.000 A 
BRANCH  10  17
ATOM     16  N   UNL     1      47.675   0.753   5.986  0.00  0.00    +0.000 N 
ATOM     17  C   UNL     1      47.025   0.685   7.182  0.00  0.00    +0.000 C 
ATOM     18  O   UNL     1      46.925  -0.376   7.787  0.00  0.00    +0.000 OA
ATOM     19  H   UNL     1      48.118  -0.099   5.666  0.00  0.00    +0.000 HD
ATOM     20  H   UNL     1      47.993   1.627   5.589  0.00  0.00    +0.000 HD
ENDBRANCH  10  17
ENDBRANCH   9  14
ENDBRANCH   7   9
ENDBRANCH   1   7
BRANCH   4  21
ATOM     21  C   UNL     1      46.076   8.551  12.954  0.00  0.00    +0.000 C 
BRANCH  21  22
ATOM     22  N   UNL     1      46.788   8.618  14.204  0.00  0.00    +0.000 N 
ATOM     23  C   UNL     1      48.060   9.124  14.266  0.00  0.00    +0.000 C 
ATOM     24  O   UNL     1      48.632   9.581  13.277  0.00  0.00    +0.000 OA
ATOM     25  H   UNL     1      46.464   8.010  14.951  0.00  0.00    +0.000 HD
BRANCH  23  26
ATOM     26  C   UNL     1      48.691   9.154  15.590  0.00  0.00    +0.000 A 
ATOM     27  C   UNL     1      48.909  10.369  16.227  0.00  0.00    +0.000 A 
ATOM     28  S   UNL     1      49.626  10.215  17.767  0.00  0.00    +0.000 S 
ATOM     29  C   UNL     1      49.714   8.522  17.619  0.00  0.00    +0.000 A 
ATOM     30  N   UNL     1      50.272   7.760  18.596  0.00  0.00    +0.000 NA
ATOM     31  C   UNL     1      50.294   6.496  18.338  0.00  0.00    +0.000 A 
ATOM     32  N   UNL     1      49.798   5.921  17.196  0.00  0.00    +0.000 N 
ATOM     33  C   UNL     1      49.197   6.646  16.196  0.00  0.00    +0.000 A 
ATOM     34  O   UNL     1      48.717   6.098  15.212  0.00  0.00    +0.000 OA
ATOM     35  C   UNL     1      49.171   8.079  16.425  0.00  0.00    +0.000 A 
ATOM     36  H   UNL     1      49.832   4.921  17.062  0.00  0.00    +0.000 HD
ENDBRANCH  23  26
ENDBRANCH  21  22
ENDBRANCH   4  21
TORSDOF 7
ENDMDL
MODEL 8
REMARK VINA RESULT:    -7.478      2.123      3.267
REMARK INTER + INTRA:         -11.886
REMARK INTER:                 -10.409
REMARK INTRA:                  -1.477
REMARK UNBOUND:                -1.348
REMARK  Name = 
REMARK  7 active torsions:
REMARK  status: ('A' for Active; 'I' for Inactive)
REMARK    1  A    between atoms: C_2  and  C_4
REMARK    2  A    between atoms: C_8  and  C_9
REMARK    3  A    between atoms: C_9  and  N_10
REMARK    4  A    between atoms: N_10  and  C_11
REMARK    5  A    between atoms: C_14  and  C_15
REMARK    6  A    between atoms: C_15  and  N_16
REMARK    7  A    between atoms: C_17  and  C_19
REMARK                            x       y       z     vdW  Elec       q    Type
REMARK                         _______ _______ _______ _____ _____    ______ ____
ROOT
ATOM      1  C   UNL     1      44.964   7.855  11.654  0.00  0.00    +0.000 A 
ATOM      2  C   UNL     1      46.018   6.944  11.783  0.00  0.00    +0.000 A 
ATOM      3  C   UNL     1      47.126   7.233  12.603  0.00  0.00    +0.000 A 
ATOM      4  C   UNL     1      47.199   8.443  13.303  0.00  0.00    +0.000 A 
ATOM      5  C   UNL     1      46.192   9.390  13.097  0.00  0.00    +0.000 A 
ATOM      6  C   UNL     1      45.100   9.099  12.274  0.00  0.00    +0.000 A 
ENDROOT
BRANCH   1   7
ATOM      7  N   UNL     1      43.806   7.639  10.897  0.00  0.00    +0.000 N 
ATOM      8  H   UNL     1      44.045   7.335   9.954  0.00  0.00    +0.000 HD
BRANCH   7   9
ATOM      9  C   UNL     1      42.730   6.841  11.468  0.00  0.00    +0.000 C 
BRANCH   9  14
ATOM     10  C   UNL     1      44.045   3.430  10.346  0.00  0.00    +0.000 A 
ATOM     11  C   UNL     1      44.064   2.721  11.551  0.00  0.00    +0.000 A 
ATOM     12  C   UNL     1      43.586   3.324  12.716  0.00  0.00    +0.000 A 
ATOM     13  C   UNL     1      43.113   4.641  12.680  0.00  0.00    +0.000 A 
ATOM     14  C   UNL     1      43.114   5.374  11.481  0.00  0.00    +0.000 A 
ATOM     15  C   UNL     1      43.571   4.748  10.314  0.00  0.00    +0.000 A 
BRANCH  10  17
ATOM     16  N   UNL     1      44.364   3.525   7.929  0.00  0.00    +0.000 N 
ATOM     17  C   UNL     1      44.583   2.843   9.088  0.00  0.00    +0.000 C 
ATOM     18  O   UNL     1      45.226   1.800   9.096  0.00  0.00    +0.000 OA
ATOM     19  H   UNL     1      44.814   3.158   7.100  0.00  0.00    +0.000 HD
ATOM     20  H   UNL     1      44.066   4.491   7.914  0.00  0.00    +0.000 HD
ENDBRANCH  10  17
ENDBRANCH   9  14
ENDBRANCH   7   9
ENDBRANCH   1   7
BRANCH   4  21
ATOM     21  C   UNL     1      48.327   8.745  14.258  0.00  0.00    +0.000 C 
BRANCH  21  22
ATOM     22  N   UNL     1      48.421   7.771  15.314  0.00  0.00    +0.000 N 
ATOM     23  C   UNL     1      49.574   7.060  15.518  0.00  0.00    +0.000 C 
ATOM     24  O   UNL     1      50.587   7.248  14.845  0.00  0.00    +0.000 OA
ATOM     25  H   UNL     1      47.547   7.408  15.683  0.00  0.00    +0.000 HD
BRANCH  23  26
ATOM     26  C   UNL     1      49.566   6.099  16.627  0.00  0.00    +0.000 A 
ATOM     27  C   UNL     1      50.515   6.197  17.636  0.00  0.00    +0.000 A 
ATOM     28  S   UNL     1      50.340   5.017  18.856  0.00  0.00    +0.000 S 
ATOM     29  C   UNL     1      49.018   4.305  18.055  0.00  0.00    +0.000 A 
ATOM     30  N   UNL     1      48.407   3.199  18.557  0.00  0.00    +0.000 NA
ATOM     31  C   UNL     1      47.437   2.752  17.832  0.00  0.00    +0.000 A 
ATOM     32  N   UNL     1      47.013   3.317  16.657  0.00  0.00    +0.000 N 
ATOM     33  C   UNL     1      47.578   4.452  16.128  0.00  0.00    +0.000 A 
ATOM     34  O   UNL     1      47.142   4.963  15.103  0.00  0.00    +0.000 OA
ATOM     35  C   UNL     1      48.694   4.980  16.891  0.00  0.00    +0.000 A 
ATOM     36  H   UNL     1      46.235   2.927  16.145  0.00  0.00    +0.000 HD
ENDBRANCH  23  26
ENDBRANCH  21  22
ENDBRANCH   4  21
TORSDOF 7
ENDMDL
MODEL 9
REMARK VINA RESULT:    -7.339      3.532      9.161
REMARK INTER + INTRA:         -11.690
REMARK INTER:                 -10.450
REMARK INTRA:                  -1.240
REMARK UNBOUND:                -1.348
REMARK  Name = 
REMARK  7 active torsions:
REMARK  status: ('A' for Active; 'I' for Inactive)
REMARK    1  A    between atoms: C_2  and  C_4
REMARK    2  A    between atoms: C_8  and  C_9
REMARK    3  A    between atoms: C_9  and  N_10
REMARK    4  A    between atoms: N_10  and  C_11
REMARK    5  A    between atoms: C_14  and  C_15
REMARK    6  A    between atoms: C_15  and  N_16
REMARK    7  A    between atoms: C_17  and  C_19
REMARK                            x       y       z     vdW  Elec       q    Type
REMARK                         _______ _______ _______ _____ _____    ______ ____
ROOT
ATOM      1  C   UNL     1      50.161   7.532  15.800  0.00  0.00    +0.000 A 
ATOM      2  C   UNL     1      50.769   7.982  14.623  0.00  0.00    +0.000 A 
ATOM      3  C   UNL     1      50.067   7.984  13.402  0.00  0.00    +0.000 A 
ATOM      4  C   UNL     1      48.744   7.530  13.339  0.00  0.00    +0.000 A 
ATOM      5  C   UNL     1      48.171   6.993  14.496  0.00  0.00    +0.000 A 
ATOM      6  C   UNL     1      48.880   6.986  15.701  0.00  0.00    +0.000 A 
ENDROOT
BRANCH   1   7
ATOM      7  N   UNL     1      50.765   7.530  17.064  0.00  0.00    +0.000 N 
ATOM      8  H   UNL     1      50.832   8.478  17.430  0.00  0.00    +0.000 HD
BRANCH   7   9
ATOM      9  C   UNL     1      50.289   6.591  18.069  0.00  0.00    +0.000 C 
BRANCH   9  14
ATOM     10  C   UNL     1      51.562   3.004  17.692  0.00  0.00    +0.000 A 
ATOM     11  C   UNL     1      52.924   3.154  17.971  0.00  0.00    +0.000 A 
ATOM     12  C   UNL     1      53.419   4.402  18.350  0.00  0.00    +0.000 A 
ATOM     13  C   UNL     1      52.559   5.504  18.426  0.00  0.00    +0.000 A 
ATOM     14  C   UNL     1      51.194   5.374  18.120  0.00  0.00    +0.000 A 
ATOM     15  C   UNL     1      50.704   4.110  17.767  0.00  0.00    +0.000 A 
BRANCH  10  17
ATOM     16  N   UNL     1      51.389   0.579  17.908  0.00  0.00    +0.000 N 
ATOM     17  C   UNL     1      50.997   1.702  17.243  0.00  0.00    +0.000 C 
ATOM     18  O   UNL     1      50.184   1.642  16.328  0.00  0.00    +0.000 OA
ATOM     19  H   UNL     1      50.927  -0.282  17.649  0.00  0.00    +0.000 HD
ATOM     20  H   UNL     1      51.849   0.613  18.808  0.00  0.00    +0.000 HD
ENDBRANCH  10  17
ENDBRANCH   9  14
ENDBRANCH   7   9
ENDBRANCH   1   7
BRANCH   4  21
ATOM     21  C   UNL     1      47.934   7.603  12.068  0.00  0.00    +0.000 C 
BRANCH  21  22
ATOM     22  N   UNL     1      47.153   6.412  11.853  0.00  0.00    +0.000 N 
ATOM     23  C   UNL     1      45.784   6.461  11.838  0.00  0.00    +0.000 C 
ATOM     24  O   UNL     1      45.164   7.516  11.962  0.00  0.00    +0.000 OA
ATOM     25  H   UNL     1      47.613   5.523  12.028  0.00  0.00    +0.000 HD
BRANCH  23  26
ATOM     26  C   UNL     1      45.085   5.192  11.602  0.00  0.00    +0.000 A 
ATOM     27  C   UNL     1      44.359   4.599  12.627  0.00  0.00    +0.000 A 
ATOM     28  S   UNL     1      43.591   3.147  12.169  0.00  0.00    +0.000 S 
ATOM     29  C   UNL     1      44.239   3.233  10.599  0.00  0.00    +0.000 A 
ATOM     30  N   UNL     1      43.999   2.255   9.685  0.00  0.00    +0.000 NA
ATOM     31  C   UNL     1      44.575   2.439   8.545  0.00  0.00    +0.000 A 
ATOM     32  N   UNL     1      45.361   3.518   8.229  0.00  0.00    +0.000 N 
ATOM     33  C   UNL     1      45.606   4.545   9.107  0.00  0.00    +0.000 A 
ATOM     34  O   UNL     1      46.269   5.520   8.778  0.00  0.00    +0.000 OA
ATOM     35  C   UNL     1      45.003   4.373  10.416  0.00  0.00    +0.000 A 
ATOM     36  H   UNL     1      45.770   3.610   7.311  0.00  0.00    +0.000 HD
ENDBRANCH  23  26
ENDBRANCH  21  22
ENDBRANCH   4  21
TORSDOF 7
ENDMDL
