MODEL 1
REMARK VINA RESULT:    -8.321      0.000      0.000
REMARK INTER + INTRA:         -12.650
REMARK INTER:                 -11.727
REMARK INTRA:                  -0.923
REMARK UNBOUND:                -0.923
REMARK  Name = 
REMARK  7 active torsions:
REMARK  status: ('A' for Active; 'I' for Inactive)
REMARK    1  A    between atoms: C_2  and  C_20
REMARK    2  A    between atoms: N_3  and  C_4
REMARK    3  A    between atoms: C_4  and  C_5
REMARK    4  A    between atoms: C_8  and  C_9
REMARK    5  A    between atoms: C_9  and  N_10
REMARK    6  A    between atoms: N_10  and  C_11
REMARK    7  A    between atoms: C_11  and  C_12
REMARK                            x       y       z     vdW  Elec       q    Type
REMARK                         _______ _______ _______ _____ _____    ______ ____
ROOT
ATOM      1  C   UNL     1      46.536   7.734  12.869  0.00  0.00    +0.000 C 
ENDROOT
BRANCH   1   2
ATOM      2  C   UNL     1      45.806   6.630  12.162  0.00  0.00    +0.000 A 
ATOM      3  C   UNL     1      46.037   6.344  10.816  0.00  0.00    +0.000 A 
ATOM      4  C   UNL     1      45.376   5.278  10.212  0.00  0.00    +0.000 A 
ATOM      5  C   UNL     1      44.513   4.497  10.979  0.00  0.00    +0.000 A 
ATOM      6  N   UNL     1      44.266   4.758  12.287  0.00  0.00    +0.000 NA
ATOM      7  C   UNL     1      44.910   5.813  12.839  0.00  0.00    +0.000 A 
BRANCH   5   8
ATOM      8  C   UNL     1      43.781   3.324  10.357  0.00  0.00    +0.000 C 
BRANCH   8   9
ATOM      9  N   UNL     1      44.255   2.960   9.011  0.00  0.00    +0.000 NA
ATOM     10  H   UNL     1      44.555   3.829   8.562  0.00  0.00    +0.000 HD
BRANCH   9  11
ATOM     11  C   UNL     1      45.410   2.059   9.045  0.00  0.00    +0.000 C 
BRANCH  11  12
ATOM     12  C   UNL     1      46.211   2.167   7.771  0.00  0.00    +0.000 A 
ATOM     13  C   UNL     1      46.136   3.275   6.918  0.00  0.00    +0.000 A 
ATOM     14  C   UNL     1      46.933   3.332   5.776  0.00  0.00    +0.000 A 
ATOM     15  C   UNL     1      47.776   2.265   5.513  0.00  0.00    +0.000 A 
ATOM     16  N   UNL     1      47.864   1.168   6.295  0.00  0.00    +0.000 NA
ATOM     17  C   UNL     1      47.082   1.147   7.399  0.00  0.00    +0.000 A 
ENDBRANCH  11  12
ENDBRANCH   9  11
ENDBRANCH   8   9
ENDBRANCH   5   8
ENDBRANCH   1   2
BRANCH   1  20
ATOM     18  O   UNL     1      48.791   6.152  13.210  0.00  0.00    +0.000 OA
ATOM     19  C   UNL     1      48.219   6.582  14.212  0.00  0.00    +0.000 C 
ATOM     20  N   UNL     1      47.090   7.348  14.137  0.00  0.00    +0.000 N 
ATOM     21  H   UNL     1      46.763   7.843  14.964  0.00  0.00    +0.000 HD
BRANCH  19  22
ATOM     22  C   UNL     1      48.716   6.284  15.544  0.00  0.00    +0.000 A 
ATOM     23  C   UNL     1      49.602   7.115  16.216  0.00  0.00    +0.000 A 
ATOM     24  S   UNL     1      49.944   6.569  17.803  0.00  0.00    +0.000 S 
ATOM     25  C   UNL     1      48.914   5.223  17.622  0.00  0.00    +0.000 A 
ATOM     26  N   UNL     1      48.715   4.335  18.633  0.00  0.00    +0.000 NA
ATOM     27  C   UNL     1      47.889   3.382  18.348  0.00  0.00    +0.000 A 
ATOM     28  N   UNL     1      47.242   3.221  17.149  0.00  0.00    +0.000 N 
ATOM     29  C   UNL     1      47.480   4.045  16.071  0.00  0.00    +0.000 A 
ATOM     30  O   UNL     1      47.023   3.762  14.969  0.00  0.00    +0.000 OA
ATOM     31  C   UNL     1      48.353   5.165  16.362  0.00  0.00    +0.000 A 
ATOM     32  H   UNL     1      46.657   2.432  16.966  0.00  0.00    +0.000 HD
ENDBRANCH  19  22
ENDBRANCH   1  20
TORSDOF 7
ENDMDL
MODEL 2
REMARK VINA RESULT:    -7.856      1.505      1.771
REMARK INTER + INTRA:         -11.994
REMARK INTER:                 -11.155
REMARK INTRA:                  -0.839
REMARK UNBOUND:                -0.923
REMARK  Name = 
REMARK  7 active torsions:
REMARK  status: ('A' for Active; 'I' for Inactive)
REMARK    1  A    between atoms: C_2  and  C_20
REMARK    2  A    between atoms: N_3  and  C_4
REMARK    3  A    between atoms: C_4  and  C_5
REMARK    4  A    between atoms: C_8  and  C_9
REMARK    5  A    between atoms: C_9  and  N_10
REMARK    6  A    between atoms: N_10  and  C_11
REMARK    7  A    between atoms: C_11  and  C_12
REMARK                            x       y       z     vdW  Elec       q    Type
REMARK                         _______ _______ _______ _____ _____    ______ ____
ROOT
ATOM      1  C   UNL     1      47.954   6.571  13.633  0.00  0.00    +0.000 C 
ENDROOT
BRANCH   1   2
ATOM      2  C   UNL     1      46.825   5.723  13.125  0.00  0.00    +0.000 A 
ATOM      3  C   UNL     1      45.897   6.213  12.205  0.00  0.00    +0.000 A 
ATOM      4  C   UNL     1      44.896   5.376  11.720  0.00  0.00    +0.000 A 
ATOM      5  C   UNL     1      44.858   4.050  12.147  0.00  0.00    +0.000 A 
ATOM      6  N   UNL     1      45.743   3.551  13.046  0.00  0.00    +0.000 NA
ATOM      7  C   UNL     1      46.692   4.395  13.512  0.00  0.00    +0.000 A 
BRANCH   5   8
ATOM      8  C   UNL     1      43.786   3.108  11.636  0.00  0.00    +0.000 C 
BRANCH   8   9
ATOM      9  N   UNL     1      44.174   2.343  10.439  0.00  0.00    +0.000 NA
ATOM     10  H   UNL     1      43.387   1.726  10.220  0.00  0.00    +0.000 HD
BRANCH   9  11
ATOM     11  C   UNL     1      44.403   3.199   9.272  0.00  0.00    +0.000 C 
BRANCH  11  12
ATOM     12  C   UNL     1      45.501   2.637   8.403  0.00  0.00    +0.000 A 
ATOM     13  C   UNL     1      46.236   3.421   7.505  0.00  0.00    +0.000 A 
ATOM     14  C   UNL     1      47.265   2.849   6.761  0.00  0.00    +0.000 A 
ATOM     15  C   UNL     1      47.521   1.498   6.926  0.00  0.00    +0.000 A 
ATOM     16  N   UNL     1      46.823   0.701   7.763  0.00  0.00    +0.000 NA
ATOM     17  C   UNL     1      45.834   1.288   8.477  0.00  0.00    +0.000 A 
ENDBRANCH  11  12
ENDBRANCH   9  11
ENDBRANCH   8   9
ENDBRANCH   5   8
ENDBRANCH   1   2
BRANCH   1  20
ATOM     18  O   UNL     1      50.338   6.963  14.999  0.00  0.00    +0.000 OA
ATOM     19  C   UNL     1      49.312   6.776  15.653  0.00  0.00    +0.000 C 
ATOM     20  N   UNL     1      48.100   6.551  15.062  0.00  0.00    +0.000 N 
ATOM     21  H   UNL     1      47.251   6.597  15.622  0.00  0.00    +0.000 HD
BRANCH  19  22
ATOM     22  C   UNL     1      49.338   6.774  17.105  0.00  0.00    +0.000 A 
ATOM     23  C   UNL     1      49.619   7.910  17.850  0.00  0.00    +0.000 A 
ATOM     24  S   UNL     1      49.488   7.642  19.537  0.00  0.00    +0.000 S 
ATOM     25  C   UNL     1      49.049   6.012  19.300  0.00  0.00    +0.000 A 
ATOM     26  N   UNL     1      48.759   5.192  20.345  0.00  0.00    +0.000 NA
ATOM     27  C   UNL     1      48.422   3.992  20.001  0.00  0.00    +0.000 A 
ATOM     28  N   UNL     1      48.349   3.524  18.715  0.00  0.00    +0.000 N 
ATOM     29  C   UNL     1      48.718   4.293  17.632  0.00  0.00    +0.000 A 
ATOM     30  O   UNL     1      48.812   3.784  16.521  0.00  0.00    +0.000 OA
ATOM     31  C   UNL     1      49.044   5.666  17.964  0.00  0.00    +0.000 A 
ATOM     32  H   UNL     1      48.137   2.569  18.511  0.00  0.00    +0.000 HD
ENDBRANCH  19  22
ENDBRANCH   1  20
TORSDOF 7
ENDMDL
MODEL 3
REMARK VINA RESULT:    -7.738      2.383      3.025
REMARK INTER + INTRA:         -11.828
REMARK INTER:                 -10.929
REMARK INTRA:                  -0.899
REMARK UNBOUND:                -0.923
REMARK  Name = 
REMARK  7 active torsions:
REMARK  status: ('A' for Active; 'I' for Inactive)
REMARK    1  A    between atoms: C_2  and  C_20
REMARK    2  A    between atoms: N_3  and  C_4
REMARK    3  A    between atoms: C_4  and  C_5
REMARK    4  A    between atoms: C_8  and  C_9
REMARK    5  A    between atoms: C_9  and  N_10
REMARK    6  A    between atoms: N_10  and  C_11
REMARK    7  A    between atoms: C_11  and  C_12
REMARK                            x       y       z     vdW  Elec       q    Type
REMARK                         _______ _______ _______ _____ _____    ______ ____
ROOT
ATOM      1  C   UNL     1      47.395   4.177  15.343  0.00  0.00    +0.000 C 
ENDROOT
BRANCH   1   2
ATOM      2  C   UNL     1      46.807   4.717  14.072  0.00  0.00    +0.000 A 
ATOM      3  C   UNL     1      47.441   5.724  13.342  0.00  0.00    +0.000 A 
ATOM      4  C   UNL     1      46.887   6.159  12.141  0.00  0.00    +0.000 A 
ATOM      5  C   UNL     1      45.719   5.557  11.678  0.00  0.00    +0.000 A 
ATOM      6  N   UNL     1      45.080   4.582  12.372  0.00  0.00    +0.000 NA
ATOM      7  C   UNL     1      45.633   4.195  13.545  0.00  0.00    +0.000 A 
BRANCH   5   8
ATOM      8  C   UNL     1      45.091   6.001  10.372  0.00  0.00    +0.000 C 
BRANCH   8   9
ATOM      9  N   UNL     1      45.659   5.355   9.177  0.00  0.00    +0.000 NA
ATOM     10  H   UNL     1      46.561   4.962   9.459  0.00  0.00    +0.000 HD
BRANCH   9  11
ATOM     11  C   UNL     1      44.830   4.251   8.684  0.00  0.00    +0.000 C 
BRANCH  11  12
ATOM     12  C   UNL     1      45.688   3.160   8.093  0.00  0.00    +0.000 A 
ATOM     13  C   UNL     1      46.587   3.384   7.043  0.00  0.00    +0.000 A 
ATOM     14  C   UNL     1      47.380   2.342   6.569  0.00  0.00    +0.000 A 
ATOM     15  C   UNL     1      47.239   1.094   7.153  0.00  0.00    +0.000 A 
ATOM     16  N   UNL     1      46.369   0.827   8.150  0.00  0.00    +0.000 NA
ATOM     17  C   UNL     1      45.619   1.863   8.593  0.00  0.00    +0.000 A 
ENDBRANCH  11  12
ENDBRANCH   9  11
ENDBRANCH   8   9
ENDBRANCH   5   8
ENDBRANCH   1   2
BRANCH   1  20
ATOM     18  O   UNL     1      49.601   5.548  16.323  0.00  0.00    +0.000 OA
ATOM     19  C   UNL     1      48.504   5.756  16.841  0.00  0.00    +0.000 C 
ATOM     20  N   UNL     1      47.370   5.107  16.437  0.00  0.00    +0.000 N 
ATOM     21  H   UNL     1      46.461   5.443  16.749  0.00  0.00    +0.000 HD
BRANCH  19  22
ATOM     22  C   UNL     1      48.357   6.705  17.931  0.00  0.00    +0.000 A 
ATOM     23  C   UNL     1      48.351   8.078  17.731  0.00  0.00    +0.000 A 
ATOM     24  S   UNL     1      48.068   8.954  19.176  0.00  0.00    +0.000 S 
ATOM     25  C   UNL     1      47.943   7.519  20.087  0.00  0.00    +0.000 A 
ATOM     26  N   UNL     1      47.673   7.540  21.420  0.00  0.00    +0.000 NA
ATOM     27  C   UNL     1      47.588   6.370  21.964  0.00  0.00    +0.000 A 
ATOM     28  N   UNL     1      47.749   5.176  21.310  0.00  0.00    +0.000 N 
ATOM     29  C   UNL     1      48.108   5.109  19.982  0.00  0.00    +0.000 A 
ATOM     30  O   UNL     1      48.419   4.032  19.483  0.00  0.00    +0.000 OA
ATOM     31  C   UNL     1      48.155   6.394  19.315  0.00  0.00    +0.000 A 
ATOM     32  H   UNL     1      47.728   4.301  21.794  0.00  0.00    +0.000 HD
ENDBRANCH  19  22
ENDBRANCH   1  20
TORSDOF 7
ENDMDL
MODEL 4
REMARK VINA RESULT:    -7.481      2.059      3.310
REMARK INTER + INTRA:         -11.466
REMARK INTER:                 -10.409
REMARK INTRA:                  -1.057
REMARK UNBOUND:                -0.923
REMARK  Name = 
REMARK  7 active torsions:
REMARK  status: ('A' for Active; 'I' for Inactive)
REMARK    1  A    between atoms: C_2  and  C_20
REMARK    2  A    between atoms: N_3  and  C_4
REMARK    3  A    between atoms: C_4  and  C_5
REMARK    4  A    between atoms: C_8  and  C_9
REMARK    5  A    between atoms: C_9  and  N_10
REMARK    6  A    between atoms: N_10  and  C_11
REMARK    7  A    between atoms: C_11  and  C_12
REMARK                            x       y       z     vdW  Elec       q    Type
REMARK                         _______ _______ _______ _____ _____    ______ ____
ROOT
ATOM      1  C   UNL     1      47.308   4.144  14.744  0.00  0.00    +0.000 C 
ENDROOT
BRANCH   1   2
ATOM      2  C   UNL     1      46.321   4.331  13.629  0.00  0.00    +0.000 A 
ATOM      3  C   UNL     1      45.881   5.598  13.245  0.00  0.00    +0.000 A 
ATOM      4  C   UNL     1      45.005   5.730  12.171  0.00  0.00    +0.000 A 
ATOM      5  C   UNL     1      44.605   4.587  11.480  0.00  0.00    +0.000 A 
ATOM      6  N   UNL     1      45.013   3.343  11.839  0.00  0.00    +0.000 NA
ATOM      7  C   UNL     1      45.849   3.248  12.898  0.00  0.00    +0.000 A 
BRANCH   5   8
ATOM      8  C   UNL     1      43.658   4.692  10.303  0.00  0.00    +0.000 C 
BRANCH   8   9
ATOM      9  N   UNL     1      43.998   3.812   9.172  0.00  0.00    +0.000 NA
ATOM     10  H   UNL     1      43.200   3.837   8.532  0.00  0.00    +0.000 HD
BRANCH   9  11
ATOM     11  C   UNL     1      45.174   4.276   8.430  0.00  0.00    +0.000 C 
BRANCH  11  12
ATOM     12  C   UNL     1      45.932   3.111   7.844  0.00  0.00    +0.000 A 
ATOM     13  C   UNL     1      46.735   3.223   6.702  0.00  0.00    +0.000 A 
ATOM     14  C   UNL     1      47.441   2.117   6.235  0.00  0.00    +0.000 A 
ATOM     15  C   UNL     1      47.311   0.920   6.919  0.00  0.00    +0.000 A 
ATOM     16  N   UNL     1      46.531   0.761   8.009  0.00  0.00    +0.000 NA
ATOM     17  C   UNL     1      45.863   1.856   8.442  0.00  0.00    +0.000 A 
ENDBRANCH  11  12
ENDBRANCH   9  11
ENDBRANCH   8   9
ENDBRANCH   5   8
ENDBRANCH   1   2
BRANCH   1  20
ATOM     18  O   UNL     1      49.229   4.443  16.724  0.00  0.00    +0.000 OA
ATOM     19  C   UNL     1      48.425   5.358  16.545  0.00  0.00    +0.000 C 
ATOM     20  N   UNL     1      47.432   5.284  15.608  0.00  0.00    +0.000 N 
ATOM     21  H   UNL     1      46.917   6.125  15.355  0.00  0.00    +0.000 HD
BRANCH  19  22
ATOM     22  C   UNL     1      48.483   6.574  17.337  0.00  0.00    +0.000 A 
ATOM     23  C   UNL     1      48.348   6.574  18.719  0.00  0.00    +0.000 A 
ATOM     24  S   UNL     1      48.552   8.131  19.402  0.00  0.00    +0.000 S 
ATOM     25  C   UNL     1      48.829   8.827  17.871  0.00  0.00    +0.000 A 
ATOM     26  N   UNL     1      49.106  10.151  17.728  0.00  0.00    +0.000 NA
ATOM     27  C   UNL     1      49.313  10.522  16.507  0.00  0.00    +0.000 A 
ATOM     28  N   UNL     1      49.269   9.702  15.408  0.00  0.00    +0.000 N 
ATOM     29  C   UNL     1      48.909   8.375  15.497  0.00  0.00    +0.000 A 
ATOM     30  O   UNL     1      48.705   7.725  14.477  0.00  0.00    +0.000 OA
ATOM     31  C   UNL     1      48.726   7.900  16.854  0.00  0.00    +0.000 A 
ATOM     32  H   UNL     1      49.383  10.056  14.481  0.00  0.00    +0.000 HD
ENDBRANCH  19  22
ENDBRANCH   1  20
TORSDOF 7
ENDMDL
MODEL 5
REMARK VINA RESULT:    -7.185      2.356      4.129
REMARK INTER + INTRA:         -11.048
REMARK INTER:                 -10.183
REMARK INTRA:                  -0.865
REMARK UNBOUND:                -0.923
REMARK  Name = 
REMARK  7 active torsions:
REMARK  status: ('A' for Active; 'I' for Inactive)
REMARK    1  A    between atoms: C_2  and  C_20
REMARK    2  A    between atoms: N_3  and  C_4
REMARK    3  A    between atoms: C_4  and  C_5
REMARK    4  A    between atoms: C_8  and  C_9
REMARK    5  A    between atoms: C_9  and  N_10
REMARK    6  A    between atoms: N_10  and  C_11
REMARK    7  A    between atoms: C_11  and  C_12
REMARK                            x       y       z     vdW  Elec       q    Type
REMARK                         _______ _______ _______ _____ _____    ______ ____
ROOT
ATOM      1  C   UNL     1      47.332   4.915  14.654  0.00  0.00    +0.000 C 
ENDROOT
BRANCH   1   2
ATOM      2  C   UNL     1      46.281   4.819  13.587  0.00  0.00    +0.000 A 
ATOM      3  C   UNL     1      45.623   5.951  13.104  0.00  0.00    +0.000 A 
ATOM      4  C   UNL     1      44.691   5.823  12.078  0.00  0.00    +0.000 A 
ATOM      5  C   UNL     1      44.455   4.562  11.532  0.00  0.00    +0.000 A 
ATOM      6  N   UNL     1      45.077   3.446  11.989  0.00  0.00    +0.000 NA
ATOM      7  C   UNL     1      45.962   3.602  13.000  0.00  0.00    +0.000 A 
BRANCH   5   8
ATOM      8  C   UNL     1      43.453   4.386  10.409  0.00  0.00    +0.000 C 
BRANCH   8   9
ATOM      9  N   UNL     1      43.898   3.478   9.339  0.00  0.00    +0.000 NA
ATOM     10  H   UNL     1      43.073   3.273   8.769  0.00  0.00    +0.000 HD
BRANCH   9  11
ATOM     11  C   UNL     1      44.901   4.087   8.462  0.00  0.00    +0.000 C 
BRANCH  11  12
ATOM     12  C   UNL     1      45.781   3.032   7.839  0.00  0.00    +0.000 A 
ATOM     13  C   UNL     1      46.542   3.260   6.687  0.00  0.00    +0.000 A 
ATOM     14  C   UNL     1      47.366   2.255   6.184  0.00  0.00    +0.000 A 
ATOM     15  C   UNL     1      47.392   1.039   6.845  0.00  0.00    +0.000 A 
ATOM     16  N   UNL     1      46.658   0.767   7.945  0.00  0.00    +0.000 NA
ATOM     17  C   UNL     1      45.873   1.767   8.412  0.00  0.00    +0.000 A 
ENDBRANCH  11  12
ENDBRANCH   9  11
ENDBRANCH   8   9
ENDBRANCH   5   8
ENDBRANCH   1   2
BRANCH   1  20
ATOM     18  O   UNL     1      49.198   6.462  13.301  0.00  0.00    +0.000 OA
ATOM     19  C   UNL     1      48.609   6.960  14.261  0.00  0.00    +0.000 C 
ATOM     20  N   UNL     1      47.693   6.262  14.997  0.00  0.00    +0.000 N 
ATOM     21  H   UNL     1      47.089   6.759  15.650  0.00  0.00    +0.000 HD
BRANCH  19  22
ATOM     22  C   UNL     1      48.868   8.328  14.672  0.00  0.00    +0.000 A 
ATOM     23  C   UNL     1      49.472   8.645  15.881  0.00  0.00    +0.000 A 
ATOM     24  S   UNL     1      49.741  10.326  16.065  0.00  0.00    +0.000 S 
ATOM     25  C   UNL     1      49.065  10.658  14.535  0.00  0.00    +0.000 A 
ATOM     26  N   UNL     1      49.004  11.923  14.040  0.00  0.00    +0.000 NA
ATOM     27  C   UNL     1      48.485  12.007  12.859  0.00  0.00    +0.000 A 
ATOM     28  N   UNL     1      48.013  10.953  12.121  0.00  0.00    +0.000 N 
ATOM     29  C   UNL     1      47.975   9.668  12.617  0.00  0.00    +0.000 A 
ATOM     30  O   UNL     1      47.381   8.789  12.001  0.00  0.00    +0.000 OA
ATOM     31  C   UNL     1      48.603   9.515  13.914  0.00  0.00    +0.000 A 
ATOM     32  H   UNL     1      47.569  11.084  11.235  0.00  0.00    +0.000 HD
ENDBRANCH  19  22
ENDBRANCH   1  20
TORSDOF 7
ENDMDL
MODEL 6
REMARK VINA RESULT:    -6.891      3.347      8.032
REMARK INTER + INTRA:         -10.635
REMARK INTER:                  -9.443
REMARK INTRA:                  -1.192
REMARK UNBOUND:                -0.923
REMARK  Name = 
REMARK  7 active torsions:
REMARK  status: ('A' for Active; 'I' for Inactive)
REMARK    1  A    between atoms: C_2  and  C_20
REMARK    2  A    between atoms: N_3  and  C_4
REMARK    3  A    between atoms: C_4  and  C_5
REMARK    4  A    between atoms: C_8  and  C_9
REMARK    5  A    between atoms: C_9  and  N_10
REMARK    6  A    between atoms: N_10  and  C_11
REMARK    7  A    between atoms: C_11  and  C_12
REMARK                            x       y       z     vdW  Elec       q    Type
REMARK                         _______ _______ _______ _____ _____    ______ ____
ROOT
ATOM      1  C   UNL     1      47.908   8.171  12.056  0.00  0.00    +0.000 C 
ENDROOT
BRANCH   1   2
ATOM      2  C   UNL     1      48.250   8.046  13.513  0.00  0.00    +0.000 A 
ATOM      3  C   UNL     1      48.149   9.130  14.384  0.00  0.00    +0.000 A 
ATOM      4  C   UNL     1      48.426   8.957  15.737  0.00  0.00    +0.000 A 
ATOM      5  C   UNL     1      48.775   7.690  16.200  0.00  0.00    +0.000 A 
ATOM      6  N   UNL     1      48.888   6.621  15.371  0.00  0.00    +0.000 NA
ATOM      7  C   UNL     1      48.629   6.826  14.059  0.00  0.00    +0.000 A 
BRANCH   5   8
ATOM      8  C   UNL     1      49.078   7.462  17.667  0.00  0.00    +0.000 C 
BRANCH   8   9
ATOM      9  N   UNL     1      47.984   6.824  18.419  0.00  0.00    +0.000 NA
ATOM     10  H   UNL     1      47.310   6.490  17.725  0.00  0.00    +0.000 HD
BRANCH   9  11
ATOM     11  C   UNL     1      48.433   5.665  19.194  0.00  0.00    +0.000 C 
BRANCH  11  12
ATOM     12  C   UNL     1      48.621   4.463  18.300  0.00  0.00    +0.000 A 
ATOM     13  C   UNL     1      47.564   3.857  17.610  0.00  0.00    +0.000 A 
ATOM     14  C   UNL     1      47.811   2.775  16.768  0.00  0.00    +0.000 A 
ATOM     15  C   UNL     1      49.114   2.319  16.652  0.00  0.00    +0.000 A 
ATOM     16  N   UNL     1      50.158   2.858  17.316  0.00  0.00    +0.000 NA
ATOM     17  C   UNL     1      49.886   3.913  18.120  0.00  0.00    +0.000 A 
ENDBRANCH  11  12
ENDBRANCH   9  11
ENDBRANCH   8   9
ENDBRANCH   5   8
ENDBRANCH   1   2
BRANCH   1  20
ATOM     18  O   UNL     1      45.209   7.897  11.473  0.00  0.00    +0.000 OA
ATOM     19  C   UNL     1      45.962   6.956  11.221  0.00  0.00    +0.000 C 
ATOM     20  N   UNL     1      47.300   6.997  11.498  0.00  0.00    +0.000 N 
ATOM     21  H   UNL     1      47.916   6.290  11.101  0.00  0.00    +0.000 HD
BRANCH  19  22
ATOM     22  C   UNL     1      45.458   5.733  10.620  0.00  0.00    +0.000 A 
ATOM     23  C   UNL     1      45.749   5.367   9.313  0.00  0.00    +0.000 A 
ATOM     24  S   UNL     1      45.105   3.835   8.898  0.00  0.00    +0.000 S 
ATOM     25  C   UNL     1      44.435   3.633  10.453  0.00  0.00    +0.000 A 
ATOM     26  N   UNL     1      43.759   2.505  10.799  0.00  0.00    +0.000 NA
ATOM     27  C   UNL     1      43.332   2.494  12.019  0.00  0.00    +0.000 A 
ATOM     28  N   UNL     1      43.509   3.501  12.933  0.00  0.00    +0.000 N 
ATOM     29  C   UNL     1      44.111   4.695  12.601  0.00  0.00    +0.000 A 
ATOM     30  O   UNL     1      44.088   5.635  13.390  0.00  0.00    +0.000 OA
ATOM     31  C   UNL     1      44.661   4.730  11.261  0.00  0.00    +0.000 A 
ATOM     32  H   UNL     1      43.108   3.462  13.847  0.00  0.00    +0.000 HD
ENDBRANCH  19  22
ENDBRANCH   1  20
TORSDOF 7
ENDMDL
MODEL 7
REMARK VINA RESULT:    -6.768      2.091      2.569
REMARK INTER + INTRA:         -10.461
REMARK INTER:                  -9.691
REMARK INTRA:                  -0.770
REMARK UNBOUND:                -0.923
REMARK  Name = 
REMARK  7 active torsions:
REMARK  status: ('A' for Active; 'I' for Inactive)
REMARK    1  A    between atoms: C_2  and  C_20
REMARK    2  A    between atoms: N_3  and  C_4
REMARK    3  A    between atoms: C_4  and  C_5
REMARK    4  A    between atoms: C_8  and  C_9
REMARK    5  A    between atoms: C_9  and  N_10
REMARK    6  A    between atoms: N_10  and  C_11
REMARK    7  A    between atoms: C_11  and  C_12
REMARK                            x       y       z     vdW  Elec       q    Type
REMARK                         _______ _______ _______ _____ _____    ______ ____
ROOT
ATOM      1  C   UNL     1      47.949   8.588  14.146  0.00  0.00    +0.000 C 
ENDROOT
BRANCH   1   2
ATOM      2  C   UNL     1      47.071   7.744  13.268  0.00  0.00    +0.000 A 
ATOM      3  C   UNL     1      47.400   6.425  12.954  0.00  0.00    +0.000 A 
ATOM      4  C   UNL     1      46.531   5.662  12.180  0.00  0.00    +0.000 A 
ATOM      5  C   UNL     1      45.330   6.227  11.754  0.00  0.00    +0.000 A 
ATOM      6  N   UNL     1      44.991   7.509  12.039  0.00  0.00    +0.000 NA
ATOM      7  C   UNL     1      45.865   8.230  12.779  0.00  0.00    +0.000 A 
BRANCH   5   8
ATOM      8  C   UNL     1      44.357   5.424  10.914  0.00  0.00    +0.000 C 
BRANCH   8   9
ATOM      9  N   UNL     1      44.854   5.088   9.569  0.00  0.00    +0.000 NA
ATOM     10  H   UNL     1      45.869   4.984   9.651  0.00  0.00    +0.000 HD
BRANCH   9  11
ATOM     11  C   UNL     1      44.318   3.818   9.072  0.00  0.00    +0.000 C 
BRANCH  11  12
ATOM     12  C   UNL     1      45.391   3.023   8.367  0.00  0.00    +0.000 A 
ATOM     13  C   UNL     1      46.291   3.598   7.463  0.00  0.00    +0.000 A 
ATOM     14  C   UNL     1      47.285   2.818   6.876  0.00  0.00    +0.000 A 
ATOM     15  C   UNL     1      47.339   1.473   7.203  0.00  0.00    +0.000 A 
ATOM     16  N   UNL     1      46.478   0.873   8.051  0.00  0.00    +0.000 NA
ATOM     17  C   UNL     1      45.529   1.660   8.610  0.00  0.00    +0.000 A 
ENDBRANCH  11  12
ENDBRANCH   9  11
ENDBRANCH   8   9
ENDBRANCH   5   8
ENDBRANCH   1   2
BRANCH   1  20
ATOM     18  O   UNL     1      48.714   8.192  16.784  0.00  0.00    +0.000 OA
ATOM     19  C   UNL     1      49.443   7.760  15.892  0.00  0.00    +0.000 C 
ATOM     20  N   UNL     1      49.155   7.931  14.566  0.00  0.00    +0.000 N 
ATOM     21  H   UNL     1      49.668   7.397  13.868  0.00  0.00    +0.000 HD
BRANCH  19  22
ATOM     22  C   UNL     1      50.669   7.046  16.205  0.00  0.00    +0.000 A 
ATOM     23  C   UNL     1      51.927   7.564  15.930  0.00  0.00    +0.000 A 
ATOM     24  S   UNL     1      53.192   6.554  16.490  0.00  0.00    +0.000 S 
ATOM     25  C   UNL     1      52.085   5.417  17.111  0.00  0.00    +0.000 A 
ATOM     26  N   UNL     1      52.501   4.297  17.761  0.00  0.00    +0.000 NA
ATOM     27  C   UNL     1      51.541   3.546  18.193  0.00  0.00    +0.000 A 
ATOM     28  N   UNL     1      50.202   3.798  18.037  0.00  0.00    +0.000 N 
ATOM     29  C   UNL     1      49.737   4.873  17.311  0.00  0.00    +0.000 A 
ATOM     30  O   UNL     1      48.544   4.962  17.042  0.00  0.00    +0.000 OA
ATOM     31  C   UNL     1      50.776   5.777  16.860  0.00  0.00    +0.000 A 
ATOM     32  H   UNL     1      49.504   3.151  18.343  0.00  0.00    +0.000 HD
ENDBRANCH  19  22
ENDBRANCH   1  20
TORSDOF 7
ENDMDL
MODEL 8
REMARK VINA RESULT:    -6.730      2.892      8.593
REMARK INTER + INTRA:         -10.407
REMARK INTER:                  -9.364
REMARK INTRA:                  -1.043
REMARK UNBOUND:                -0.923
REMARK  Name = 
REMARK  7 active torsions:
REMARK  status: ('A' for Active; 'I' for Inactive)
REMARK    1  A    between atoms: C_2  and  C_20
REMARK    2  A    between atoms: N_3  and  C_4
REMARK    3  A    between atoms: C_4  and  C_5
REMARK    4  A    between atoms: C_8  and  C_9
REMARK    5  A    between atoms: C_9  and  N_10
REMARK    6  A    between atoms: N_10  and  C_11
REMARK    7  A    between atoms: C_11  and  C_12
REMARK                            x       y       z     vdW  Elec       q    Type
REMARK                         _______ _______ _______ _____ _____    ______ ____
ROOT
ATOM      1  C   UNL     1      47.089   7.897  12.807  0.00  0.00    +0.000 C 
ENDROOT
BRANCH   1   2
ATOM      2  C   UNL     1      48.006   7.908  13.996  0.00  0.00    +0.000 A 
ATOM      3  C   UNL     1      48.058   8.995  14.870  0.00  0.00    +0.000 A 
ATOM      4  C   UNL     1      48.884   8.942  15.989  0.00  0.00    +0.000 A 
ATOM      5  C   UNL     1      49.625   7.787  16.230  0.00  0.00    +0.000 A 
ATOM      6  N   UNL     1      49.597   6.720  15.391  0.00  0.00    +0.000 NA
ATOM      7  C   UNL     1      48.799   6.810  14.303  0.00  0.00    +0.000 A 
BRANCH   5   8
ATOM      8  C   UNL     1      50.530   7.691  17.441  0.00  0.00    +0.000 C 
BRANCH   8   9
ATOM      9  N   UNL     1      49.885   7.117  18.634  0.00  0.00    +0.000 NA
ATOM     10  H   UNL     1      48.877   7.147  18.463  0.00  0.00    +0.000 HD
BRANCH   9  11
ATOM     11  C   UNL     1      50.255   5.716  18.855  0.00  0.00    +0.000 C 
BRANCH  11  12
ATOM     12  C   UNL     1      49.235   4.789  18.240  0.00  0.00    +0.000 A 
ATOM     13  C   UNL     1      49.579   3.570  17.643  0.00  0.00    +0.000 A 
ATOM     14  C   UNL     1      48.585   2.741  17.129  0.00  0.00    +0.000 A 
ATOM     15  C   UNL     1      47.269   3.165  17.213  0.00  0.00    +0.000 A 
ATOM     16  N   UNL     1      46.895   4.342  17.759  0.00  0.00    +0.000 NA
ATOM     17  C   UNL     1      47.884   5.122  18.256  0.00  0.00    +0.000 A 
ENDBRANCH  11  12
ENDBRANCH   9  11
ENDBRANCH   8   9
ENDBRANCH   5   8
ENDBRANCH   1   2
BRANCH   1  20
ATOM     18  O   UNL     1      44.665   7.514  11.513  0.00  0.00    +0.000 OA
ATOM     19  C   UNL     1      45.292   6.523  11.887  0.00  0.00    +0.000 C 
ATOM     20  N   UNL     1      46.482   6.621  12.552  0.00  0.00    +0.000 N 
ATOM     21  H   UNL     1      47.061   5.792  12.669  0.00  0.00    +0.000 HD
BRANCH  19  22
ATOM     22  C   UNL     1      44.788   5.182  11.647  0.00  0.00    +0.000 A 
ATOM     23  C   UNL     1      44.088   4.464  12.606  0.00  0.00    +0.000 A 
ATOM     24  S   UNL     1      43.532   2.952  12.022  0.00  0.00    +0.000 S 
ATOM     25  C   UNL     1      44.210   3.234  10.484  0.00  0.00    +0.000 A 
ATOM     26  N   UNL     1      44.079   2.337   9.470  0.00  0.00    +0.000 NA
ATOM     27  C   UNL     1      44.628   2.706   8.360  0.00  0.00    +0.000 A 
ATOM     28  N   UNL     1      45.303   3.883   8.158  0.00  0.00    +0.000 N 
ATOM     29  C   UNL     1      45.534   4.780   9.178  0.00  0.00    +0.000 A 
ATOM     30  O   UNL     1      46.293   5.727   9.002  0.00  0.00    +0.000 OA
ATOM     31  C   UNL     1      44.884   4.438  10.427  0.00  0.00    +0.000 A 
ATOM     32  H   UNL     1      45.756   4.090   7.292  0.00  0.00    +0.000 HD
ENDBRANCH  19  22
ENDBRANCH   1  20
TORSDOF 7
ENDMDL
MODEL 9
REMARK VINA RESULT:    -6.617      4.365      9.204
REMARK INTER + INTRA:         -10.247
REMARK INTER:                  -9.347
REMARK INTRA:                  -0.900
REMARK UNBOUND:                -0.923
REMARK  Name = 
REMARK  7 active torsions:
REMARK  status: ('A' for Active; 'I' for Inactive)
REMARK    1  A    between atoms: C_2  and  C_20
REMARK    2  A    between atoms: N_3  and  C_4
REMARK    3  A    between atoms: C_4  and  C_5
REMARK    4  A    between atoms: C_8  and  C_9
REMARK    5  A    between atoms: C_9  and  N_10
REMARK    6  A    between atoms: N_10  and  C_11
REMARK    7  A    between atoms: C_11  and  C_12
REMARK                            x       y       z     vdW  Elec       q    Type
REMARK                         _______ _______ _______ _____ _____    ______ ____
ROOT
ATOM      1  C   UNL     1      47.287   3.460  16.524  0.00  0.00    +0.000 C 
ENDROOT
BRANCH   1   2
ATOM      2  C   UNL     1      48.704   3.624  16.990  0.00  0.00    +0.000 A 
ATOM      3  C   UNL     1      49.518   2.524  17.263  0.00  0.00    +0.000 A 
ATOM      4  C   UNL     1      50.842   2.721  17.643  0.00  0.00    +0.000 A 
ATOM      5  C   UNL     1      51.339   4.021  17.716  0.00  0.00    +0.000 A 
ATOM      6  N   UNL     1      50.567   5.108  17.462  0.00  0.00    +0.000 NA
ATOM      7  C   UNL     1      49.279   4.883  17.114  0.00  0.00    +0.000 A 
BRANCH   5   8
ATOM      8  C   UNL     1      52.777   4.273  18.120  0.00  0.00    +0.000 C 
BRANCH   8   9
ATOM      9  N   UNL     1      53.354   3.231  18.985  0.00  0.00    +0.000 NA
ATOM     10  H   UNL     1      52.777   2.395  18.859  0.00  0.00    +0.000 HD
BRANCH   9  11
ATOM     11  C   UNL     1      54.726   2.880  18.607  0.00  0.00    +0.000 C 
BRANCH  11  12
ATOM     12  C   UNL     1      54.769   1.529  17.938  0.00  0.00    +0.000 A 
ATOM     13  C   UNL     1      55.165   1.352  16.607  0.00  0.00    +0.000 A 
ATOM     14  C   UNL     1      55.222   0.072  16.060  0.00  0.00    +0.000 A 
ATOM     15  C   UNL     1      54.865  -0.999  16.861  0.00  0.00    +0.000 A 
ATOM     16  N   UNL     1      54.456  -0.873  18.142  0.00  0.00    +0.000 NA
ATOM     17  C   UNL     1      54.418   0.383  18.645  0.00  0.00    +0.000 A 
ENDBRANCH  11  12
ENDBRANCH   9  11
ENDBRANCH   8   9
ENDBRANCH   5   8
ENDBRANCH   1   2
BRANCH   1  20
ATOM     18  O   UNL     1      47.221   3.287  13.755  0.00  0.00    +0.000 OA
ATOM     19  C   UNL     1      46.820   4.322  14.288  0.00  0.00    +0.000 C 
ATOM     20  N   UNL     1      46.839   4.501  15.643  0.00  0.00    +0.000 N 
ATOM     21  H   UNL     1      46.324   5.277  16.055  0.00  0.00    +0.000 HD
BRANCH  19  22
ATOM     22  C   UNL     1      46.310   5.426  13.493  0.00  0.00    +0.000 A 
ATOM     23  C   UNL     1      47.056   6.566  13.229  0.00  0.00    +0.000 A 
ATOM     24  S   UNL     1      46.245   7.660  12.191  0.00  0.00    +0.000 S 
ATOM     25  C   UNL     1      44.891   6.631  12.073  0.00  0.00    +0.000 A 
ATOM     26  N   UNL     1      43.817   6.950  11.302  0.00  0.00    +0.000 NA
ATOM     27  C   UNL     1      42.882   6.057  11.299  0.00  0.00    +0.000 A 
ATOM     28  N   UNL     1      42.907   4.876  11.994  0.00  0.00    +0.000 N 
ATOM     29  C   UNL     1      43.934   4.553  12.854  0.00  0.00    +0.000 A 
ATOM     30  O   UNL     1      43.833   3.578  13.592  0.00  0.00    +0.000 OA
ATOM     31  C   UNL     1      45.035   5.495  12.843  0.00  0.00    +0.000 A 
ATOM     32  H   UNL     1      42.129   4.248  11.998  0.00  0.00    +0.000 HD
ENDBRANCH  19  22
ENDBRANCH   1  20
TORSDOF 7
ENDMDL
