MODEL 1
REMARK VINA RESULT:    -7.536      0.000      0.000
REMARK INTER + INTRA:         -12.235
REMARK INTER:                 -10.620
REMARK INTRA:                  -1.615
REMARK UNBOUND:                -1.615
REMARK  Name = 
REMARK  7 active torsions:
REMARK  status: ('A' for Active; 'I' for Inactive)
REMARK    1  A    between atoms: C_2  and  C_20
REMARK    2  A    between atoms: N_3  and  C_4
REMARK    3  A    between atoms: C_4  and  C_5
REMARK    4  A    between atoms: C_8  and  N_9
REMARK    5  A    between atoms: N_9  and  C_10
REMARK    6  A    between atoms: C_10  and  C_11
REMARK    7  A    between atoms: C_11  and  C_12
REMARK                            x       y       z     vdW  Elec       q    Type
REMARK                         _______ _______ _______ _____ _____    ______ ____
ROOT
ATOM      1  C   UNL     1      47.312   8.624  13.132  0.00  0.00    +0.000 C 
ENDROOT
BRANCH   1   2
ATOM      2  C   UNL     1      46.483   7.545  12.479  0.00  0.00    +0.000 A 
ATOM      3  C   UNL     1      47.027   6.746  11.469  0.00  0.00    +0.000 A 
ATOM      4  C   UNL     1      46.264   5.739  10.865  0.00  0.00    +0.000 A 
ATOM      5  C   UNL     1      44.946   5.503  11.262  0.00  0.00    +0.000 A 
ATOM      6  C   UNL     1      44.372   6.375  12.192  0.00  0.00    +0.000 A 
ATOM      7  C   UNL     1      45.131   7.376  12.809  0.00  0.00    +0.000 A 
BRANCH   5   8
ATOM      8  N   UNL     1      44.130   4.507  10.712  0.00  0.00    +0.000 N 
ATOM      9  H   UNL     1      43.887   4.747   9.752  0.00  0.00    +0.000 HD
BRANCH   8  10
ATOM     10  C   UNL     1      44.586   3.113  10.827  0.00  0.00    +0.000 C 
BRANCH  10  11
ATOM     11  C   UNL     1      44.253   2.366   9.540  0.00  0.00    +0.000 C 
BRANCH  11  12
ATOM     12  C   UNL     1      45.406   2.428   8.581  0.00  0.00    +0.000 A 
ATOM     13  N   UNL     1      46.087   1.291   8.344  0.00  0.00    +0.000 NA
ATOM     14  C   UNL     1      47.112   1.373   7.476  0.00  0.00    +0.000 A 
ATOM     15  C   UNL     1      47.486   2.539   6.854  0.00  0.00    +0.000 A 
ATOM     16  C   UNL     1      46.738   3.646   7.174  0.00  0.00    +0.000 A 
ATOM     17  N   UNL     1      45.705   3.625   8.039  0.00  0.00    +0.000 NA
ENDBRANCH  11  12
ENDBRANCH  10  11
ENDBRANCH   8  10
ENDBRANCH   5   8
ENDBRANCH   1   2
BRANCH   1  20
ATOM     18  O   UNL     1      49.605   7.039  13.822  0.00  0.00    +0.000 OA
ATOM     19  C   UNL     1      48.777   7.345  14.665  0.00  0.00    +0.000 C 
ATOM     20  N   UNL     1      47.706   8.182  14.440  0.00  0.00    +0.000 N 
ATOM     21  H   UNL     1      46.979   8.212  15.137  0.00  0.00    +0.000 HD
BRANCH  19  22
ATOM     22  C   UNL     1      48.668   6.707  15.971  0.00  0.00    +0.000 A 
ATOM     23  C   UNL     1      49.183   7.270  17.122  0.00  0.00    +0.000 A 
ATOM     24  S   UNL     1      49.436   6.087  18.344  0.00  0.00    +0.000 S 
ATOM     25  C   UNL     1      48.743   4.862  17.382  0.00  0.00    +0.000 A 
ATOM     26  N   UNL     1      48.773   3.547  17.731  0.00  0.00    +0.000 NA
ATOM     27  C   UNL     1      48.164   2.764  16.898  0.00  0.00    +0.000 A 
ATOM     28  N   UNL     1      47.479   3.180  15.782  0.00  0.00    +0.000 N 
ATOM     29  C   UNL     1      47.398   4.499  15.406  0.00  0.00    +0.000 A 
ATOM     30  O   UNL     1      46.710   4.865  14.462  0.00  0.00    +0.000 OA
ATOM     31  C   UNL     1      48.189   5.384  16.234  0.00  0.00    +0.000 A 
ATOM     32  H   UNL     1      46.953   2.527  15.220  0.00  0.00    +0.000 HD
ENDBRANCH  19  22
ENDBRANCH   1  20
TORSDOF 7
ENDMDL
MODEL 2
REMARK VINA RESULT:    -7.203      1.480      1.722
REMARK INTER + INTRA:         -11.766
REMARK INTER:                 -10.606
REMARK INTRA:                  -1.159
REMARK UNBOUND:                -1.615
REMARK  Name = 
REMARK  7 active torsions:
REMARK  status: ('A' for Active; 'I' for Inactive)
REMARK    1  A    between atoms: C_2  and  C_20
REMARK    2  A    between atoms: N_3  and  C_4
REMARK    3  A    between atoms: C_4  and  C_5
REMARK    4  A    between atoms: C_8  and  N_9
REMARK    5  A    between atoms: N_9  and  C_10
REMARK    6  A    between atoms: C_10  and  C_11
REMARK    7  A    between atoms: C_11  and  C_12
REMARK                            x       y       z     vdW  Elec       q    Type
REMARK                         _______ _______ _______ _____ _____    ______ ____
ROOT
ATOM      1  C   UNL     1      48.278   7.109  13.382  0.00  0.00    +0.000 C 
ENDROOT
BRANCH   1   2
ATOM      2  C   UNL     1      47.155   6.298  12.783  0.00  0.00    +0.000 A 
ATOM      3  C   UNL     1      46.613   5.213  13.481  0.00  0.00    +0.000 A 
ATOM      4  C   UNL     1      45.566   4.462  12.933  0.00  0.00    +0.000 A 
ATOM      5  C   UNL     1      45.034   4.781  11.681  0.00  0.00    +0.000 A 
ATOM      6  C   UNL     1      45.652   5.794  10.942  0.00  0.00    +0.000 A 
ATOM      7  C   UNL     1      46.690   6.557  11.487  0.00  0.00    +0.000 A 
BRANCH   5   8
ATOM      8  N   UNL     1      43.981   4.083  11.078  0.00  0.00    +0.000 N 
ATOM      9  H   UNL     1      43.096   4.546  11.280  0.00  0.00    +0.000 HD
BRANCH   8  10
ATOM     10  C   UNL     1      44.112   3.755   9.650  0.00  0.00    +0.000 C 
BRANCH  10  11
ATOM     11  C   UNL     1      44.614   2.322   9.505  0.00  0.00    +0.000 C 
BRANCH  11  12
ATOM     12  C   UNL     1      45.698   2.246   8.470  0.00  0.00    +0.000 A 
ATOM     13  N   UNL     1      46.240   1.040   8.215  0.00  0.00    +0.000 NA
ATOM     14  C   UNL     1      47.206   0.999   7.278  0.00  0.00    +0.000 A 
ATOM     15  C   UNL     1      47.653   2.108   6.604  0.00  0.00    +0.000 A 
ATOM     16  C   UNL     1      47.048   3.294   6.947  0.00  0.00    +0.000 A 
ATOM     17  N   UNL     1      46.081   3.395   7.879  0.00  0.00    +0.000 NA
ENDBRANCH  11  12
ENDBRANCH  10  11
ENDBRANCH   8  10
ENDBRANCH   5   8
ENDBRANCH   1   2
BRANCH   1  20
ATOM     18  O   UNL     1      48.482   8.282  15.995  0.00  0.00    +0.000 OA
ATOM     19  C   UNL     1      48.871   7.145  15.786  0.00  0.00    +0.000 C 
ATOM     20  N   UNL     1      48.719   6.475  14.592  0.00  0.00    +0.000 N 
ATOM     21  H   UNL     1      49.244   5.625  14.460  0.00  0.00    +0.000 HD
BRANCH  19  22
ATOM     22  C   UNL     1      49.742   6.402  16.688  0.00  0.00    +0.000 A 
ATOM     23  C   UNL     1      50.949   6.899  17.138  0.00  0.00    +0.000 A 
ATOM     24  S   UNL     1      51.991   5.639  17.670  0.00  0.00    +0.000 S 
ATOM     25  C   UNL     1      50.787   4.458  17.418  0.00  0.00    +0.000 A 
ATOM     26  N   UNL     1      51.033   3.124  17.512  0.00  0.00    +0.000 NA
ATOM     27  C   UNL     1      49.991   2.378  17.325  0.00  0.00    +0.000 A 
ATOM     28  N   UNL     1      48.716   2.844  17.113  0.00  0.00    +0.000 N 
ATOM     29  C   UNL     1      48.415   4.182  17.038  0.00  0.00    +0.000 A 
ATOM     30  O   UNL     1      47.264   4.586  16.939  0.00  0.00    +0.000 OA
ATOM     31  C   UNL     1      49.580   5.040  17.096  0.00  0.00    +0.000 A 
ATOM     32  H   UNL     1      47.931   2.212  17.061  0.00  0.00    +0.000 HD
ENDBRANCH  19  22
ENDBRANCH   1  20
TORSDOF 7
ENDMDL
MODEL 3
REMARK VINA RESULT:    -7.073      1.595      2.209
REMARK INTER + INTRA:         -11.583
REMARK INTER:                 -10.483
REMARK INTRA:                  -1.100
REMARK UNBOUND:                -1.615
REMARK  Name = 
REMARK  7 active torsions:
REMARK  status: ('A' for Active; 'I' for Inactive)
REMARK    1  A    between atoms: C_2  and  C_20
REMARK    2  A    between atoms: N_3  and  C_4
REMARK    3  A    between atoms: C_4  and  C_5
REMARK    4  A    between atoms: C_8  and  N_9
REMARK    5  A    between atoms: N_9  and  C_10
REMARK    6  A    between atoms: C_10  and  C_11
REMARK    7  A    between atoms: C_11  and  C_12
REMARK                            x       y       z     vdW  Elec       q    Type
REMARK                         _______ _______ _______ _____ _____    ______ ____
ROOT
ATOM      1  C   UNL     1      48.624   6.864  13.706  0.00  0.00    +0.000 C 
ENDROOT
BRANCH   1   2
ATOM      2  C   UNL     1      47.442   6.161  13.085  0.00  0.00    +0.000 A 
ATOM      3  C   UNL     1      46.883   5.035  13.700  0.00  0.00    +0.000 A 
ATOM      4  C   UNL     1      45.781   4.384  13.132  0.00  0.00    +0.000 A 
ATOM      5  C   UNL     1      45.209   4.845  11.944  0.00  0.00    +0.000 A 
ATOM      6  C   UNL     1      45.839   5.902  11.277  0.00  0.00    +0.000 A 
ATOM      7  C   UNL     1      46.932   6.565  11.844  0.00  0.00    +0.000 A 
BRANCH   5   8
ATOM      8  N   UNL     1      44.101   4.253  11.326  0.00  0.00    +0.000 N 
ATOM      9  H   UNL     1      43.248   4.736  11.605  0.00  0.00    +0.000 HD
BRANCH   8  10
ATOM     10  C   UNL     1      44.162   4.049   9.871  0.00  0.00    +0.000 C 
BRANCH  10  11
ATOM     11  C   UNL     1      44.435   2.577   9.578  0.00  0.00    +0.000 C 
BRANCH  11  12
ATOM     12  C   UNL     1      45.536   2.436   8.568  0.00  0.00    +0.000 A 
ATOM     13  N   UNL     1      45.913   3.537   7.893  0.00  0.00    +0.000 NA
ATOM     14  C   UNL     1      46.906   3.384   6.997  0.00  0.00    +0.000 A 
ATOM     15  C   UNL     1      47.520   2.181   6.746  0.00  0.00    +0.000 A 
ATOM     16  C   UNL     1      47.052   1.115   7.475  0.00  0.00    +0.000 A 
ATOM     17  N   UNL     1      46.058   1.208   8.380  0.00  0.00    +0.000 NA
ENDBRANCH  11  12
ENDBRANCH  10  11
ENDBRANCH   8  10
ENDBRANCH   5   8
ENDBRANCH   1   2
BRANCH   1  20
ATOM     18  O   UNL     1      50.456   6.930  15.916  0.00  0.00    +0.000 OA
ATOM     19  C   UNL     1      49.256   7.075  16.091  0.00  0.00    +0.000 C 
ATOM     20  N   UNL     1      48.325   7.156  15.079  0.00  0.00    +0.000 N 
ATOM     21  H   UNL     1      47.352   7.076  15.329  0.00  0.00    +0.000 HD
BRANCH  19  22
ATOM     22  C   UNL     1      48.603   6.967  17.389  0.00  0.00    +0.000 A 
ATOM     23  C   UNL     1      48.134   8.066  18.082  0.00  0.00    +0.000 A 
ATOM     24  S   UNL     1      47.967   7.729  19.759  0.00  0.00    +0.000 S 
ATOM     25  C   UNL     1      48.396   6.094  19.533  0.00  0.00    +0.000 A 
ATOM     26  N   UNL     1      48.618   5.241  20.568  0.00  0.00    +0.000 NA
ATOM     27  C   UNL     1      48.897   4.029  20.206  0.00  0.00    +0.000 A 
ATOM     28  N   UNL     1      48.916   3.578  18.908  0.00  0.00    +0.000 N 
ATOM     29  C   UNL     1      48.670   4.397  17.833  0.00  0.00    +0.000 A 
ATOM     30  O   UNL     1      48.600   3.965  16.689  0.00  0.00    +0.000 OA
ATOM     31  C   UNL     1      48.499   5.788  18.193  0.00  0.00    +0.000 A 
ATOM     32  H   UNL     1      49.056   2.602  18.697  0.00  0.00    +0.000 HD
ENDBRANCH  19  22
ENDBRANCH   1  20
TORSDOF 7
ENDMDL
MODEL 4
REMARK VINA RESULT:    -6.906      2.383      3.099
REMARK INTER + INTRA:         -11.348
REMARK INTER:                 -10.257
REMARK INTRA:                  -1.091
REMARK UNBOUND:                -1.615
REMARK  Name = 
REMARK  7 active torsions:
REMARK  status: ('A' for Active; 'I' for Inactive)
REMARK    1  A    between atoms: C_2  and  C_20
REMARK    2  A    between atoms: N_3  and  C_4
REMARK    3  A    between atoms: C_4  and  C_5
REMARK    4  A    between atoms: C_8  and  N_9
REMARK    5  A    between atoms: N_9  and  C_10
REMARK    6  A    between atoms: C_10  and  C_11
REMARK    7  A    between atoms: C_11  and  C_12
REMARK                            x       y       z     vdW  Elec       q    Type
REMARK                         _______ _______ _______ _____ _____    ______ ____
ROOT
ATOM      1  C   UNL     1      47.561   4.327  15.294  0.00  0.00    +0.000 C 
ENDROOT
BRANCH   1   2
ATOM      2  C   UNL     1      46.820   4.580  14.005  0.00  0.00    +0.000 A 
ATOM      3  C   UNL     1      46.702   5.877  13.496  0.00  0.00    +0.000 A 
ATOM      4  C   UNL     1      46.022   6.115  12.295  0.00  0.00    +0.000 A 
ATOM      5  C   UNL     1      45.450   5.064  11.574  0.00  0.00    +0.000 A 
ATOM      6  C   UNL     1      45.475   3.786  12.143  0.00  0.00    +0.000 A 
ATOM      7  C   UNL     1      46.163   3.538  13.335  0.00  0.00    +0.000 A 
BRANCH   5   8
ATOM      8  N   UNL     1      44.767   5.226  10.363  0.00  0.00    +0.000 N 
ATOM      9  H   UNL     1      45.335   5.769   9.713  0.00  0.00    +0.000 HD
BRANCH   8  10
ATOM     10  C   UNL     1      44.213   4.021   9.728  0.00  0.00    +0.000 C 
BRANCH  10  11
ATOM     11  C   UNL     1      44.443   4.093   8.222  0.00  0.00    +0.000 C 
BRANCH  11  12
ATOM     12  C   UNL     1      45.570   3.189   7.817  0.00  0.00    +0.000 A 
ATOM     13  N   UNL     1      45.598   1.948   8.339  0.00  0.00    +0.000 NA
ATOM     14  C   UNL     1      46.616   1.156   7.955  0.00  0.00    +0.000 A 
ATOM     15  C   UNL     1      47.603   1.558   7.088  0.00  0.00    +0.000 A 
ATOM     16  C   UNL     1      47.493   2.846   6.623  0.00  0.00    +0.000 A 
ATOM     17  N   UNL     1      46.499   3.685   6.977  0.00  0.00    +0.000 NA
ENDBRANCH  11  12
ENDBRANCH  10  11
ENDBRANCH   8  10
ENDBRANCH   5   8
ENDBRANCH   1   2
BRANCH   1  20
ATOM     18  O   UNL     1      49.972   5.183  16.599  0.00  0.00    +0.000 OA
ATOM     19  C   UNL     1      48.964   5.871  16.629  0.00  0.00    +0.000 C 
ATOM     20  N   UNL     1      47.802   5.582  15.948  0.00  0.00    +0.000 N 
ATOM     21  H   UNL     1      46.973   6.101  16.193  0.00  0.00    +0.000 HD
BRANCH  19  22
ATOM     22  C   UNL     1      48.761   6.980  17.552  0.00  0.00    +0.000 A 
ATOM     23  C   UNL     1      49.374   8.207  17.391  0.00  0.00    +0.000 A 
ATOM     24  S   UNL     1      49.433   9.082  18.870  0.00  0.00    +0.000 S 
ATOM     25  C   UNL     1      48.535   7.881  19.682  0.00  0.00    +0.000 A 
ATOM     26  N   UNL     1      48.344   7.889  21.029  0.00  0.00    +0.000 NA
ATOM     27  C   UNL     1      47.605   6.920  21.465  0.00  0.00    +0.000 A 
ATOM     28  N   UNL     1      46.989   5.980  20.674  0.00  0.00    +0.000 N 
ATOM     29  C   UNL     1      47.130   5.949  19.308  0.00  0.00    +0.000 A 
ATOM     30  O   UNL     1      46.506   5.163  18.607  0.00  0.00    +0.000 OA
ATOM     31  C   UNL     1      48.067   6.929  18.802  0.00  0.00    +0.000 A 
ATOM     32  H   UNL     1      46.355   5.301  21.068  0.00  0.00    +0.000 HD
ENDBRANCH  19  22
ENDBRANCH   1  20
TORSDOF 7
ENDMDL
MODEL 5
REMARK VINA RESULT:    -6.873      3.122      8.006
REMARK INTER + INTRA:         -11.301
REMARK INTER:                 -10.327
REMARK INTRA:                  -0.973
REMARK UNBOUND:                -1.615
REMARK  Name = 
REMARK  7 active torsions:
REMARK  status: ('A' for Active; 'I' for Inactive)
REMARK    1  A    between atoms: C_2  and  C_20
REMARK    2  A    between atoms: N_3  and  C_4
REMARK    3  A    between atoms: C_4  and  C_5
REMARK    4  A    between atoms: C_8  and  N_9
REMARK    5  A    between atoms: N_9  and  C_10
REMARK    6  A    between atoms: C_10  and  C_11
REMARK    7  A    between atoms: C_11  and  C_12
REMARK                            x       y       z     vdW  Elec       q    Type
REMARK                         _______ _______ _______ _____ _____    ______ ____
ROOT
ATOM      1  C   UNL     1      47.208   6.782  12.753  0.00  0.00    +0.000 C 
ENDROOT
BRANCH   1   2
ATOM      2  C   UNL     1      47.534   6.129  14.074  0.00  0.00    +0.000 A 
ATOM      3  C   UNL     1      48.534   6.655  14.899  0.00  0.00    +0.000 A 
ATOM      4  C   UNL     1      48.834   6.056  16.129  0.00  0.00    +0.000 A 
ATOM      5  C   UNL     1      48.139   4.925  16.564  0.00  0.00    +0.000 A 
ATOM      6  C   UNL     1      47.219   4.339  15.688  0.00  0.00    +0.000 A 
ATOM      7  C   UNL     1      46.905   4.938  14.463  0.00  0.00    +0.000 A 
BRANCH   5   8
ATOM      8  N   UNL     1      48.377   4.282  17.785  0.00  0.00    +0.000 N 
ATOM      9  H   UNL     1      47.804   4.701  18.516  0.00  0.00    +0.000 HD
BRANCH   8  10
ATOM     10  C   UNL     1      48.299   2.813  17.806  0.00  0.00    +0.000 C 
BRANCH  10  11
ATOM     11  C   UNL     1      49.236   2.243  16.746  0.00  0.00    +0.000 C 
BRANCH  11  12
ATOM     12  C   UNL     1      50.647   2.204  17.255  0.00  0.00    +0.000 A 
ATOM     13  N   UNL     1      51.225   3.372  17.592  0.00  0.00    +0.000 NA
ATOM     14  C   UNL     1      52.489   3.309  18.051  0.00  0.00    +0.000 A 
ATOM     15  C   UNL     1      53.192   2.135  18.171  0.00  0.00    +0.000 A 
ATOM     16  C   UNL     1      52.520   1.000  17.787  0.00  0.00    +0.000 A 
ATOM     17  N   UNL     1      51.257   1.004  17.316  0.00  0.00    +0.000 NA
ENDBRANCH  11  12
ENDBRANCH  10  11
ENDBRANCH   8  10
ENDBRANCH   5   8
ENDBRANCH   1   2
BRANCH   1  20
ATOM     18  O   UNL     1      44.870   7.334  11.180  0.00  0.00    +0.000 OA
ATOM     19  C   UNL     1      45.293   6.195  11.297  0.00  0.00    +0.000 C 
ATOM     20  N   UNL     1      46.460   5.859  11.948  0.00  0.00    +0.000 N 
ATOM     21  H   UNL     1      46.617   4.886  12.159  0.00  0.00    +0.000 HD
BRANCH  19  22
ATOM     22  C   UNL     1      44.528   5.002  10.958  0.00  0.00    +0.000 A 
ATOM     23  C   UNL     1      43.505   4.521  11.752  0.00  0.00    +0.000 A 
ATOM     24  S   UNL     1      43.199   2.857  11.446  0.00  0.00    +0.000 S 
ATOM     25  C   UNL     1      44.338   2.821  10.177  0.00  0.00    +0.000 A 
ATOM     26  N   UNL     1      44.719   1.670   9.563  0.00  0.00    +0.000 NA
ATOM     27  C   UNL     1      45.564   1.839   8.597  0.00  0.00    +0.000 A 
ATOM     28  N   UNL     1      46.017   3.057   8.149  0.00  0.00    +0.000 N 
ATOM     29  C   UNL     1      45.638   4.247   8.721  0.00  0.00    +0.000 A 
ATOM     30  O   UNL     1      45.976   5.329   8.257  0.00  0.00    +0.000 OA
ATOM     31  C   UNL     1      44.809   4.085   9.896  0.00  0.00    +0.000 A 
ATOM     32  H   UNL     1      46.609   3.127   7.335  0.00  0.00    +0.000 HD
ENDBRANCH  19  22
ENDBRANCH   1  20
TORSDOF 7
ENDMDL
MODEL 6
REMARK VINA RESULT:    -6.552      2.234      3.063
REMARK INTER + INTRA:         -10.849
REMARK INTER:                  -9.867
REMARK INTRA:                  -0.982
REMARK UNBOUND:                -1.615
REMARK  Name = 
REMARK  7 active torsions:
REMARK  status: ('A' for Active; 'I' for Inactive)
REMARK    1  A    between atoms: C_2  and  C_20
REMARK    2  A    between atoms: N_3  and  C_4
REMARK    3  A    between atoms: C_4  and  C_5
REMARK    4  A    between atoms: C_8  and  N_9
REMARK    5  A    between atoms: N_9  and  C_10
REMARK    6  A    between atoms: C_10  and  C_11
REMARK    7  A    between atoms: C_11  and  C_12
REMARK                            x       y       z     vdW  Elec       q    Type
REMARK                         _______ _______ _______ _____ _____    ______ ____
ROOT
ATOM      1  C   UNL     1      46.406   8.764  13.125  0.00  0.00    +0.000 C 
ENDROOT
BRANCH   1   2
ATOM      2  C   UNL     1      45.893   7.423  12.659  0.00  0.00    +0.000 A 
ATOM      3  C   UNL     1      46.458   6.239  13.144  0.00  0.00    +0.000 A 
ATOM      4  C   UNL     1      45.980   4.993  12.720  0.00  0.00    +0.000 A 
ATOM      5  C   UNL     1      44.925   4.902  11.810  0.00  0.00    +0.000 A 
ATOM      6  C   UNL     1      44.438   6.085  11.245  0.00  0.00    +0.000 A 
ATOM      7  C   UNL     1      44.902   7.334  11.672  0.00  0.00    +0.000 A 
BRANCH   5   8
ATOM      8  N   UNL     1      44.388   3.692  11.352  0.00  0.00    +0.000 N 
ATOM      9  H   UNL     1      43.574   3.440  11.910  0.00  0.00    +0.000 HD
BRANCH   8  10
ATOM     10  C   UNL     1      44.121   3.569   9.911  0.00  0.00    +0.000 C 
BRANCH  10  11
ATOM     11  C   UNL     1      44.523   2.174   9.441  0.00  0.00    +0.000 C 
BRANCH  11  12
ATOM     12  C   UNL     1      45.615   2.259   8.415  0.00  0.00    +0.000 A 
ATOM     13  N   UNL     1      45.778   3.427   7.765  0.00  0.00    +0.000 NA
ATOM     14  C   UNL     1      46.767   3.478   6.854  0.00  0.00    +0.000 A 
ATOM     15  C   UNL     1      47.582   2.412   6.563  0.00  0.00    +0.000 A 
ATOM     16  C   UNL     1      47.326   1.260   7.268  0.00  0.00    +0.000 A 
ATOM     17  N   UNL     1      46.347   1.150   8.187  0.00  0.00    +0.000 NA
ENDBRANCH  11  12
ENDBRANCH  10  11
ENDBRANCH   8  10
ENDBRANCH   5   8
ENDBRANCH   1   2
BRANCH   1  20
ATOM     18  O   UNL     1      49.028   9.587  13.957  0.00  0.00    +0.000 OA
ATOM     19  C   UNL     1      48.301   8.956  14.707  0.00  0.00    +0.000 C 
ATOM     20  N   UNL     1      46.998   8.611  14.424  0.00  0.00    +0.000 N 
ATOM     21  H   UNL     1      46.553   7.928  15.017  0.00  0.00    +0.000 HD
BRANCH  19  22
ATOM     22  C   UNL     1      48.761   8.287  15.918  0.00  0.00    +0.000 A 
ATOM     23  C   UNL     1      49.423   7.075  15.895  0.00  0.00    +0.000 A 
ATOM     24  S   UNL     1      49.316   6.270  17.411  0.00  0.00    +0.000 S 
ATOM     25  C   UNL     1      48.502   7.591  18.120  0.00  0.00    +0.000 A 
ATOM     26  N   UNL     1      47.956   7.537  19.364  0.00  0.00    +0.000 NA
ATOM     27  C   UNL     1      47.412   8.646  19.753  0.00  0.00    +0.000 A 
ATOM     28  N   UNL     1      47.416   9.820  19.037  0.00  0.00    +0.000 N 
ATOM     29  C   UNL     1      47.980   9.928  17.790  0.00  0.00    +0.000 A 
ATOM     30  O   UNL     1      48.057  11.000  17.202  0.00  0.00    +0.000 OA
ATOM     31  C   UNL     1      48.468   8.671  17.265  0.00  0.00    +0.000 A 
ATOM     32  H   UNL     1      47.050  10.673  19.433  0.00  0.00    +0.000 HD
ENDBRANCH  19  22
ENDBRANCH   1  20
TORSDOF 7
ENDMDL
MODEL 7
REMARK VINA RESULT:    -6.483      2.853      3.605
REMARK INTER + INTRA:         -10.750
REMARK INTER:                  -9.579
REMARK INTRA:                  -1.172
REMARK UNBOUND:                -1.615
REMARK  Name = 
REMARK  7 active torsions:
REMARK  status: ('A' for Active; 'I' for Inactive)
REMARK    1  A    between atoms: C_2  and  C_20
REMARK    2  A    between atoms: N_3  and  C_4
REMARK    3  A    between atoms: C_4  and  C_5
REMARK    4  A    between atoms: C_8  and  N_9
REMARK    5  A    between atoms: N_9  and  C_10
REMARK    6  A    between atoms: C_10  and  C_11
REMARK    7  A    between atoms: C_11  and  C_12
REMARK                            x       y       z     vdW  Elec       q    Type
REMARK                         _______ _______ _______ _____ _____    ______ ____
ROOT
ATOM      1  C   UNL     1      45.547   8.671  12.921  0.00  0.00    +0.000 C 
ENDROOT
BRANCH   1   2
ATOM      2  C   UNL     1      45.360   7.237  12.490  0.00  0.00    +0.000 A 
ATOM      3  C   UNL     1      46.183   6.229  13.004  0.00  0.00    +0.000 A 
ATOM      4  C   UNL     1      46.009   4.896  12.614  0.00  0.00    +0.000 A 
ATOM      5  C   UNL     1      45.006   4.539  11.709  0.00  0.00    +0.000 A 
ATOM      6  C   UNL     1      44.261   5.562  11.115  0.00  0.00    +0.000 A 
ATOM      7  C   UNL     1      44.421   6.895  11.508  0.00  0.00    +0.000 A 
BRANCH   5   8
ATOM      8  N   UNL     1      44.767   3.227  11.283  0.00  0.00    +0.000 N 
ATOM      9  H   UNL     1      44.260   2.714  12.004  0.00  0.00    +0.000 HD
BRANCH   8  10
ATOM     10  C   UNL     1      44.162   3.042   9.955  0.00  0.00    +0.000 C 
BRANCH  10  11
ATOM     11  C   UNL     1      44.627   1.713   9.369  0.00  0.00    +0.000 C 
BRANCH  11  12
ATOM     12  C   UNL     1      45.752   1.930   8.399  0.00  0.00    +0.000 A 
ATOM     13  N   UNL     1      46.464   0.855   8.012  0.00  0.00    +0.000 NA
ATOM     14  C   UNL     1      47.463   1.077   7.138  0.00  0.00    +0.000 A 
ATOM     15  C   UNL     1      47.780   2.322   6.652  0.00  0.00    +0.000 A 
ATOM     16  C   UNL     1      47.005   3.355   7.119  0.00  0.00    +0.000 A 
ATOM     17  N   UNL     1      45.996   3.193   7.998  0.00  0.00    +0.000 NA
ENDBRANCH  11  12
ENDBRANCH  10  11
ENDBRANCH   8  10
ENDBRANCH   5   8
ENDBRANCH   1   2
BRANCH   1  20
ATOM     18  O   UNL     1      47.838  10.335  12.445  0.00  0.00    +0.000 OA
ATOM     19  C   UNL     1      47.827   9.530  13.362  0.00  0.00    +0.000 C 
ATOM     20  N   UNL     1      46.736   8.768  13.719  0.00  0.00    +0.000 N 
ATOM     21  H   UNL     1      46.887   8.000  14.353  0.00  0.00    +0.000 HD
BRANCH  19  22
ATOM     22  C   UNL     1      49.019   9.093  14.078  0.00  0.00    +0.000 A 
ATOM     23  C   UNL     1      49.192   9.297  15.433  0.00  0.00    +0.000 A 
ATOM     24  S   UNL     1      50.852   9.232  15.874  0.00  0.00    +0.000 S 
ATOM     25  C   UNL     1      51.316   8.808  14.289  0.00  0.00    +0.000 A 
ATOM     26  N   UNL     1      52.616   8.750  13.892  0.00  0.00    +0.000 NA
ATOM     27  C   UNL     1      52.779   8.374  12.664  0.00  0.00    +0.000 A 
ATOM     28  N   UNL     1      51.768   7.995  11.814  0.00  0.00    +0.000 N 
ATOM     29  C   UNL     1      50.444   8.011  12.179  0.00  0.00    +0.000 A 
ATOM     30  O   UNL     1      49.561   7.586  11.445  0.00  0.00    +0.000 OA
ATOM     31  C   UNL     1      50.215   8.565  13.497  0.00  0.00    +0.000 A 
ATOM     32  H   UNL     1      51.968   7.630  10.895  0.00  0.00    +0.000 HD
ENDBRANCH  19  22
ENDBRANCH   1  20
TORSDOF 7
ENDMDL
MODEL 8
REMARK VINA RESULT:    -6.425      3.649      8.493
REMARK INTER + INTRA:         -10.670
REMARK INTER:                  -9.135
REMARK INTRA:                  -1.535
REMARK UNBOUND:                -1.615
REMARK  Name = 
REMARK  7 active torsions:
REMARK  status: ('A' for Active; 'I' for Inactive)
REMARK    1  A    between atoms: C_2  and  C_20
REMARK    2  A    between atoms: N_3  and  C_4
REMARK    3  A    between atoms: C_4  and  C_5
REMARK    4  A    between atoms: C_8  and  N_9
REMARK    5  A    between atoms: N_9  and  C_10
REMARK    6  A    between atoms: C_10  and  C_11
REMARK    7  A    between atoms: C_11  and  C_12
REMARK                            x       y       z     vdW  Elec       q    Type
REMARK                         _______ _______ _______ _____ _____    ______ ____
ROOT
ATOM      1  C   UNL     1      48.713   7.391  15.657  0.00  0.00    +0.000 C 
ENDROOT
BRANCH   1   2
ATOM      2  C   UNL     1      49.315   6.185  16.336  0.00  0.00    +0.000 A 
ATOM      3  C   UNL     1      48.505   5.115  16.731  0.00  0.00    +0.000 A 
ATOM      4  C   UNL     1      49.060   3.991  17.355  0.00  0.00    +0.000 A 
ATOM      5  C   UNL     1      50.435   3.908  17.592  0.00  0.00    +0.000 A 
ATOM      6  C   UNL     1      51.222   5.025  17.296  0.00  0.00    +0.000 A 
ATOM      7  C   UNL     1      50.678   6.147  16.662  0.00  0.00    +0.000 A 
BRANCH   5   8
ATOM      8  N   UNL     1      51.059   2.811  18.199  0.00  0.00    +0.000 N 
ATOM      9  H   UNL     1      50.586   2.581  19.072  0.00  0.00    +0.000 HD
BRANCH   8  10
ATOM     10  C   UNL     1      51.289   1.616  17.372  0.00  0.00    +0.000 C 
BRANCH  10  11
ATOM     11  C   UNL     1      52.658   1.030  17.703  0.00  0.00    +0.000 C 
BRANCH  11  12
ATOM     12  C   UNL     1      53.573   2.095  18.233  0.00  0.00    +0.000 A 
ATOM     13  N   UNL     1      53.753   2.162  19.566  0.00  0.00    +0.000 NA
ATOM     14  C   UNL     1      54.583   3.122  20.015  0.00  0.00    +0.000 A 
ATOM     15  C   UNL     1      55.220   4.017  19.191  0.00  0.00    +0.000 A 
ATOM     16  C   UNL     1      54.958   3.877  17.849  0.00  0.00    +0.000 A 
ATOM     17  N   UNL     1      54.134   2.938  17.344  0.00  0.00    +0.000 NA
ENDBRANCH  11  12
ENDBRANCH  10  11
ENDBRANCH   8  10
ENDBRANCH   5   8
ENDBRANCH   1   2
BRANCH   1  20
ATOM     18  O   UNL     1      49.043   6.229  13.052  0.00  0.00    +0.000 OA
ATOM     19  C   UNL     1      47.933   6.490  13.486  0.00  0.00    +0.000 C 
ATOM     20  N   UNL     1      47.682   6.954  14.759  0.00  0.00    +0.000 N 
ATOM     21  H   UNL     1      46.765   7.324  14.951  0.00  0.00    +0.000 HD
BRANCH  19  22
ATOM     22  C   UNL     1      46.731   6.560  12.664  0.00  0.00    +0.000 A 
ATOM     23  C   UNL     1      46.412   7.665  11.900  0.00  0.00    +0.000 A 
ATOM     24  S   UNL     1      44.733   7.714  11.532  0.00  0.00    +0.000 S 
ATOM     25  C   UNL     1      44.466   6.205  12.280  0.00  0.00    +0.000 A 
ATOM     26  N   UNL     1      43.222   5.695  12.486  0.00  0.00    +0.000 NA
ATOM     27  C   UNL     1      43.214   4.522  13.033  0.00  0.00    +0.000 A 
ATOM     28  N   UNL     1      44.335   3.787  13.339  0.00  0.00    +0.000 N 
ATOM     29  C   UNL     1      45.610   4.249  13.124  0.00  0.00    +0.000 A 
ATOM     30  O   UNL     1      46.597   3.550  13.316  0.00  0.00    +0.000 OA
ATOM     31  C   UNL     1      45.656   5.616  12.649  0.00  0.00    +0.000 A 
ATOM     32  H   UNL     1      44.260   2.842  13.685  0.00  0.00    +0.000 HD
ENDBRANCH  19  22
ENDBRANCH   1  20
TORSDOF 7
ENDMDL
MODEL 9
REMARK VINA RESULT:    -6.423      2.023      3.554
REMARK INTER + INTRA:         -10.667
REMARK INTER:                  -9.694
REMARK INTRA:                  -0.973
REMARK UNBOUND:                -1.615
REMARK  Name = 
REMARK  7 active torsions:
REMARK  status: ('A' for Active; 'I' for Inactive)
REMARK    1  A    between atoms: C_2  and  C_20
REMARK    2  A    between atoms: N_3  and  C_4
REMARK    3  A    between atoms: C_4  and  C_5
REMARK    4  A    between atoms: C_8  and  N_9
REMARK    5  A    between atoms: N_9  and  C_10
REMARK    6  A    between atoms: C_10  and  C_11
REMARK    7  A    between atoms: C_11  and  C_12
REMARK                            x       y       z     vdW  Elec       q    Type
REMARK                         _______ _______ _______ _____ _____    ______ ____
ROOT
ATOM      1  C   UNL     1      47.347   4.375  15.637  0.00  0.00    +0.000 C 
ENDROOT
BRANCH   1   2
ATOM      2  C   UNL     1      46.781   4.802  14.305  0.00  0.00    +0.000 A 
ATOM      3  C   UNL     1      45.711   4.107  13.733  0.00  0.00    +0.000 A 
ATOM      4  C   UNL     1      45.177   4.504  12.500  0.00  0.00    +0.000 A 
ATOM      5  C   UNL     1      45.695   5.607  11.817  0.00  0.00    +0.000 A 
ATOM      6  C   UNL     1      46.834   6.229  12.338  0.00  0.00    +0.000 A 
ATOM      7  C   UNL     1      47.366   5.845  13.574  0.00  0.00    +0.000 A 
BRANCH   5   8
ATOM      8  N   UNL     1      45.205   6.067  10.589  0.00  0.00    +0.000 N 
ATOM      9  H   UNL     1      45.233   7.086  10.563  0.00  0.00    +0.000 HD
BRANCH   8  10
ATOM     10  C   UNL     1      45.769   5.475   9.366  0.00  0.00    +0.000 C 
BRANCH  10  11
ATOM     11  C   UNL     1      44.922   4.278   8.948  0.00  0.00    +0.000 C 
BRANCH  11  12
ATOM     12  C   UNL     1      45.747   3.295   8.169  0.00  0.00    +0.000 A 
ATOM     13  N   UNL     1      46.407   3.748   7.087  0.00  0.00    +0.000 NA
ATOM     14  C   UNL     1      47.144   2.848   6.409  0.00  0.00    +0.000 A 
ATOM     15  C   UNL     1      47.233   1.524   6.763  0.00  0.00    +0.000 A 
ATOM     16  C   UNL     1      46.511   1.158   7.873  0.00  0.00    +0.000 A 
ATOM     17  N   UNL     1      45.753   2.014   8.586  0.00  0.00    +0.000 NA
ENDBRANCH  11  12
ENDBRANCH  10  11
ENDBRANCH   8  10
ENDBRANCH   5   8
ENDBRANCH   1   2
BRANCH   1  20
ATOM     18  O   UNL     1      50.005   4.632  16.693  0.00  0.00    +0.000 OA
ATOM     19  C   UNL     1      49.181   5.519  16.846  0.00  0.00    +0.000 C 
ATOM     20  N   UNL     1      47.921   5.518  16.288  0.00  0.00    +0.000 N 
ATOM     21  H   UNL     1      47.255   6.192  16.632  0.00  0.00    +0.000 HD
BRANCH  19  22
ATOM     22  C   UNL     1      49.319   6.604  17.809  0.00  0.00    +0.000 A 
ATOM     23  C   UNL     1      49.658   6.390  19.131  0.00  0.00    +0.000 A 
ATOM     24  S   UNL     1      49.181   7.708  20.126  0.00  0.00    +0.000 S 
ATOM     25  C   UNL     1      48.645   8.606  18.778  0.00  0.00    +0.000 A 
ATOM     26  N   UNL     1      47.963   9.777  18.897  0.00  0.00    +0.000 NA
ATOM     27  C   UNL     1      47.670  10.337  17.768  0.00  0.00    +0.000 A 
ATOM     28  N   UNL     1      48.047   9.866  16.532  0.00  0.00    +0.000 N 
ATOM     29  C   UNL     1      48.759   8.704  16.365  0.00  0.00    +0.000 A 
ATOM     30  O   UNL     1      49.167   8.342  15.268  0.00  0.00    +0.000 OA
ATOM     31  C   UNL     1      48.977   7.977  17.598  0.00  0.00    +0.000 A 
ATOM     32  H   UNL     1      47.860  10.395  15.694  0.00  0.00    +0.000 HD
ENDBRANCH  19  22
ENDBRANCH   1  20
TORSDOF 7
ENDMDL
