MODEL 1
REMARK VINA RESULT:    -7.594      0.000      0.000
REMARK INTER + INTRA:         -10.877
REMARK INTER:                  -9.814
REMARK INTRA:                  -1.063
REMARK UNBOUND:                -1.063
REMARK  Name = 
REMARK  5 active torsions:
REMARK  status: ('A' for Active; 'I' for Inactive)
REMARK    1  A    between atoms: C_2  and  C_3
REMARK    2  A    between atoms: C_7  and  O_8
REMARK    3  A    between atoms: O_8  and  C_9
REMARK    4  A    between atoms: C_9  and  C_10
REMARK    5  A    between atoms: C_14  and  N_15
REMARK                            x       y       z     vdW  Elec       q    Type
REMARK                         _______ _______ _______ _____ _____    ______ ____
ROOT
ATOM      1  C   UNL     1      43.845   4.837  11.198  0.00  0.00    +0.000 C 
ATOM      2  C   UNL     1      42.469   5.143  11.788  0.00  0.00    +0.000 C 
ATOM      3  C   UNL     1      43.151   6.161  10.941  0.00  0.00    +0.000 C 
ENDROOT
BRANCH   1   4
ATOM      4  C   UNL     1      45.047   4.833  12.131  0.00  0.00    +0.000 A 
ATOM      5  C   UNL     1      45.493   3.636  12.711  0.00  0.00    +0.000 A 
ATOM      6  C   UNL     1      46.658   3.598  13.469  0.00  0.00    +0.000 A 
ATOM      7  C   UNL     1      47.410   4.760  13.641  0.00  0.00    +0.000 A 
ATOM      8  C   UNL     1      47.010   5.989  13.095  0.00  0.00    +0.000 A 
ATOM      9  C   UNL     1      45.799   6.004  12.388  0.00  0.00    +0.000 A 
BRANCH   8  10
ATOM     10  N   UNL     1      47.810   7.112  13.245  0.00  0.00    +0.000 N 
ATOM     11  C   UNL     1      47.258   8.455  13.429  0.00  0.00    +0.000 C 
ATOM     12  C   UNL     1      47.478   9.322  12.191  0.00  0.00    +0.000 C 
ATOM     13  C   UNL     1      48.941   9.306  11.750  0.00  0.00    +0.000 C 
ATOM     14  C   UNL     1      49.421   7.872  11.547  0.00  0.00    +0.000 C 
ATOM     15  C   UNL     1      49.209   7.034  12.808  0.00  0.00    +0.000 C 
ENDBRANCH   8  10
ENDBRANCH   1   4
BRANCH   1  16
ATOM     16  O   UNL     1      43.756   3.758  10.240  0.00  0.00    +0.000 OA
BRANCH  16  21
ATOM     17  C   UNL     1      46.107   1.973   8.157  0.00  0.00    +0.000 A 
ATOM     18  C   UNL     1      46.641   3.016   7.405  0.00  0.00    +0.000 A 
ATOM     19  C   UNL     1      46.217   4.301   7.688  0.00  0.00    +0.000 A 
ATOM     20  N   UNL     1      45.311   4.602   8.646  0.00  0.00    +0.000 NA
ATOM     21  C   UNL     1      44.800   3.569   9.349  0.00  0.00    +0.000 A 
ATOM     22  C   UNL     1      45.164   2.251   9.145  0.00  0.00    +0.000 A 
BRANCH  17  24
ATOM     23  N   UNL     1      46.821  -0.473   7.692  0.00  0.00    +0.000 NA
ATOM     24  C   UNL     1      46.504   0.620   7.903  0.00  0.00    +0.000 C 
ENDBRANCH  17  24
ENDBRANCH  16  21
ENDBRANCH   1  16
TORSDOF 5
ENDMDL
MODEL 2
REMARK VINA RESULT:    -7.146      2.368      6.746
REMARK INTER + INTRA:         -10.298
REMARK INTER:                  -9.409
REMARK INTRA:                  -0.890
REMARK UNBOUND:                -1.063
REMARK  Name = 
REMARK  5 active torsions:
REMARK  status: ('A' for Active; 'I' for Inactive)
REMARK    1  A    between atoms: C_2  and  C_3
REMARK    2  A    between atoms: C_7  and  O_8
REMARK    3  A    between atoms: O_8  and  C_9
REMARK    4  A    between atoms: C_9  and  C_10
REMARK    5  A    between atoms: C_14  and  N_15
REMARK                            x       y       z     vdW  Elec       q    Type
REMARK                         _______ _______ _______ _____ _____    ______ ____
ROOT
ATOM      1  C   UNL     1      46.137   6.409  12.439  0.00  0.00    +0.000 C 
ATOM      2  C   UNL     1      46.036   7.683  11.602  0.00  0.00    +0.000 C 
ATOM      3  C   UNL     1      45.424   7.642  12.959  0.00  0.00    +0.000 C 
ENDROOT
BRANCH   1   4
ATOM      4  C   UNL     1      45.288   5.211  12.038  0.00  0.00    +0.000 A 
ATOM      5  C   UNL     1      44.266   4.751  12.881  0.00  0.00    +0.000 A 
ATOM      6  C   UNL     1      43.406   3.735  12.476  0.00  0.00    +0.000 A 
ATOM      7  C   UNL     1      43.546   3.175  11.206  0.00  0.00    +0.000 A 
ATOM      8  C   UNL     1      44.555   3.587  10.323  0.00  0.00    +0.000 A 
ATOM      9  C   UNL     1      45.441   4.570  10.787  0.00  0.00    +0.000 A 
BRANCH   8  10
ATOM     10  N   UNL     1      44.631   3.042   9.049  0.00  0.00    +0.000 N 
ATOM     11  C   UNL     1      44.864   1.617   8.812  0.00  0.00    +0.000 C 
ATOM     12  C   UNL     1      46.261   1.368   8.246  0.00  0.00    +0.000 C 
ATOM     13  C   UNL     1      46.537   2.253   7.031  0.00  0.00    +0.000 C 
ATOM     14  C   UNL     1      46.305   3.720   7.378  0.00  0.00    +0.000 C 
ATOM     15  C   UNL     1      44.894   3.945   7.921  0.00  0.00    +0.000 C 
ENDBRANCH   8  10
ENDBRANCH   1   4
BRANCH   1  16
ATOM     16  O   UNL     1      47.512   6.145  12.796  0.00  0.00    +0.000 OA
BRANCH  16  21
ATOM     17  C   UNL     1      47.735   4.829  16.153  0.00  0.00    +0.000 A 
ATOM     18  C   UNL     1      48.675   5.689  16.714  0.00  0.00    +0.000 A 
ATOM     19  C   UNL     1      49.150   6.727  15.933  0.00  0.00    +0.000 A 
ATOM     20  N   UNL     1      48.758   6.951  14.658  0.00  0.00    +0.000 NA
ATOM     21  C   UNL     1      47.856   6.093  14.137  0.00  0.00    +0.000 A 
ATOM     22  C   UNL     1      47.319   5.029  14.838  0.00  0.00    +0.000 A 
BRANCH  17  24
ATOM     23  N   UNL     1      46.798   2.840  17.522  0.00  0.00    +0.000 NA
ATOM     24  C   UNL     1      47.215   3.731  16.912  0.00  0.00    +0.000 C 
ENDBRANCH  17  24
ENDBRANCH  16  21
ENDBRANCH   1  16
TORSDOF 5
ENDMDL
MODEL 3
REMARK VINA RESULT:    -6.636      2.732      6.930
REMARK INTER + INTRA:          -9.638
REMARK INTER:                  -8.634
REMARK INTRA:                  -1.004
REMARK UNBOUND:                -1.063
REMARK  Name = 
REMARK  5 active torsions:
REMARK  status: ('A' for Active; 'I' for Inactive)
REMARK    1  A    between atoms: C_2  and  C_3
REMARK    2  A    between atoms: C_7  and  O_8
REMARK    3  A    between atoms: O_8  and  C_9
REMARK    4  A    between atoms: C_9  and  C_10
REMARK    5  A    between atoms: C_14  and  N_15
REMARK                            x       y       z     vdW  Elec       q    Type
REMARK                         _______ _______ _______ _____ _____    ______ ____
ROOT
ATOM      1  C   UNL     1      46.212   6.913  12.500  0.00  0.00    +0.000 C 
ATOM      2  C   UNL     1      47.482   6.542  13.264  0.00  0.00    +0.000 C 
ATOM      3  C   UNL     1      47.569   6.905  11.822  0.00  0.00    +0.000 C 
ENDROOT
BRANCH   1   4
ATOM      4  C   UNL     1      45.232   5.804  12.144  0.00  0.00    +0.000 A 
ATOM      5  C   UNL     1      44.123   5.546  12.963  0.00  0.00    +0.000 A 
ATOM      6  C   UNL     1      43.157   4.617  12.589  0.00  0.00    +0.000 A 
ATOM      7  C   UNL     1      43.279   3.945  11.373  0.00  0.00    +0.000 A 
ATOM      8  C   UNL     1      44.370   4.153  10.517  0.00  0.00    +0.000 A 
ATOM      9  C   UNL     1      45.356   5.050  10.953  0.00  0.00    +0.000 A 
BRANCH   8  10
ATOM     10  N   UNL     1      44.430   3.503   9.292  0.00  0.00    +0.000 N 
ATOM     11  C   UNL     1      44.494   2.045   9.175  0.00  0.00    +0.000 C 
ATOM     12  C   UNL     1      45.871   1.585   8.700  0.00  0.00    +0.000 C 
ATOM     13  C   UNL     1      46.305   2.330   7.439  0.00  0.00    +0.000 C 
ATOM     14  C   UNL     1      46.242   3.838   7.662  0.00  0.00    +0.000 C 
ATOM     15  C   UNL     1      44.849   4.273   8.115  0.00  0.00    +0.000 C 
ENDBRANCH   8  10
ENDBRANCH   1   4
BRANCH   1  16
ATOM     16  O   UNL     1      45.651   8.140  13.017  0.00  0.00    +0.000 OA
BRANCH  16  21
ATOM     17  C   UNL     1      44.237  10.560  10.736  0.00  0.00    +0.000 A 
ATOM     18  C   UNL     1      45.226  11.540  10.742  0.00  0.00    +0.000 A 
ATOM     19  C   UNL     1      46.370  11.301  11.482  0.00  0.00    +0.000 A 
ATOM     20  N   UNL     1      46.580  10.176  12.203  0.00  0.00    +0.000 NA
ATOM     21  C   UNL     1      45.598   9.250  12.189  0.00  0.00    +0.000 A 
ATOM     22  C   UNL     1      44.421   9.394  11.478  0.00  0.00    +0.000 A 
BRANCH  17  24
ATOM     23  N   UNL     1      42.051  10.910   9.393  0.00  0.00    +0.000 NA
ATOM     24  C   UNL     1      43.027  10.757   9.995  0.00  0.00    +0.000 C 
ENDBRANCH  17  24
ENDBRANCH  16  21
ENDBRANCH   1  16
TORSDOF 5
ENDMDL
MODEL 4
REMARK VINA RESULT:    -6.172      3.012      7.128
REMARK INTER + INTRA:          -9.039
REMARK INTER:                  -7.902
REMARK INTRA:                  -1.137
REMARK UNBOUND:                -1.063
REMARK  Name = 
REMARK  5 active torsions:
REMARK  status: ('A' for Active; 'I' for Inactive)
REMARK    1  A    between atoms: C_2  and  C_3
REMARK    2  A    between atoms: C_7  and  O_8
REMARK    3  A    between atoms: O_8  and  C_9
REMARK    4  A    between atoms: C_9  and  C_10
REMARK    5  A    between atoms: C_14  and  N_15
REMARK                            x       y       z     vdW  Elec       q    Type
REMARK                         _______ _______ _______ _____ _____    ______ ____
ROOT
ATOM      1  C   UNL     1      48.823   7.692  12.633  0.00  0.00    +0.000 C 
ATOM      2  C   UNL     1      49.805   7.915  11.484  0.00  0.00    +0.000 C 
ATOM      3  C   UNL     1      49.718   8.915  12.584  0.00  0.00    +0.000 C 
ENDROOT
BRANCH   1   4
ATOM      4  C   UNL     1      47.338   7.885  12.364  0.00  0.00    +0.000 A 
ATOM      5  C   UNL     1      46.758   9.158  12.458  0.00  0.00    +0.000 A 
ATOM      6  C   UNL     1      45.430   9.369  12.100  0.00  0.00    +0.000 A 
ATOM      7  C   UNL     1      44.666   8.306  11.621  0.00  0.00    +0.000 A 
ATOM      8  C   UNL     1      45.187   7.008  11.514  0.00  0.00    +0.000 A 
ATOM      9  C   UNL     1      46.510   6.819  11.940  0.00  0.00    +0.000 A 
BRANCH   8  10
ATOM     10  N   UNL     1      44.411   5.986  10.985  0.00  0.00    +0.000 N 
ATOM     11  C   UNL     1      42.999   5.810  11.326  0.00  0.00    +0.000 C 
ATOM     12  C   UNL     1      42.788   4.575  12.200  0.00  0.00    +0.000 C 
ATOM     13  C   UNL     1      43.437   3.337  11.584  0.00  0.00    +0.000 C 
ATOM     14  C   UNL     1      44.913   3.597  11.295  0.00  0.00    +0.000 C 
ATOM     15  C   UNL     1      45.094   4.825  10.401  0.00  0.00    +0.000 C 
ENDBRANCH   8  10
ENDBRANCH   1   4
BRANCH   1  16
ATOM     16  O   UNL     1      49.203   6.529  13.404  0.00  0.00    +0.000 OA
BRANCH  16  21
ATOM     17  C   UNL     1      47.933   5.195  16.512  0.00  0.00    +0.000 A 
ATOM     18  C   UNL     1      48.434   6.121  17.423  0.00  0.00    +0.000 A 
ATOM     19  C   UNL     1      49.137   7.203  16.926  0.00  0.00    +0.000 A 
ATOM     20  N   UNL     1      49.370   7.411  15.609  0.00  0.00    +0.000 NA
ATOM     21  C   UNL     1      48.884   6.489  14.752  0.00  0.00    +0.000 A 
ATOM     22  C   UNL     1      48.165   5.377  15.150  0.00  0.00    +0.000 A 
BRANCH  17  24
ATOM     23  N   UNL     1      46.620   3.125  17.347  0.00  0.00    +0.000 NA
ATOM     24  C   UNL     1      47.204   4.050  16.971  0.00  0.00    +0.000 C 
ENDBRANCH  17  24
ENDBRANCH  16  21
ENDBRANCH   1  16
TORSDOF 5
ENDMDL
MODEL 5
REMARK VINA RESULT:    -5.861      3.537      8.051
REMARK INTER + INTRA:          -8.637
REMARK INTER:                  -7.762
REMARK INTRA:                  -0.875
REMARK UNBOUND:                -1.063
REMARK  Name = 
REMARK  5 active torsions:
REMARK  status: ('A' for Active; 'I' for Inactive)
REMARK    1  A    between atoms: C_2  and  C_3
REMARK    2  A    between atoms: C_7  and  O_8
REMARK    3  A    between atoms: O_8  and  C_9
REMARK    4  A    between atoms: C_9  and  C_10
REMARK    5  A    between atoms: C_14  and  N_15
REMARK                            x       y       z     vdW  Elec       q    Type
REMARK                         _______ _______ _______ _____ _____    ______ ____
ROOT
ATOM      1  C   UNL     1      49.109   7.559  14.473  0.00  0.00    +0.000 C 
ATOM      2  C   UNL     1      50.248   8.214  13.695  0.00  0.00    +0.000 C 
ATOM      3  C   UNL     1      49.639   8.929  14.851  0.00  0.00    +0.000 C 
ENDROOT
BRANCH   1   4
ATOM      4  C   UNL     1      47.737   7.482  13.820  0.00  0.00    +0.000 A 
ATOM      5  C   UNL     1      46.948   8.633  13.684  0.00  0.00    +0.000 A 
ATOM      6  C   UNL     1      45.746   8.601  12.985  0.00  0.00    +0.000 A 
ATOM      7  C   UNL     1      45.324   7.412  12.391  0.00  0.00    +0.000 A 
ATOM      8  C   UNL     1      46.064   6.225  12.501  0.00  0.00    +0.000 A 
ATOM      9  C   UNL     1      47.239   6.280  13.264  0.00  0.00    +0.000 A 
BRANCH   8  10
ATOM     10  N   UNL     1      45.636   5.075  11.854  0.00  0.00    +0.000 N 
ATOM     11  C   UNL     1      45.065   5.093  10.507  0.00  0.00    +0.000 C 
ATOM     12  C   UNL     1      43.566   4.798  10.533  0.00  0.00    +0.000 C 
ATOM     13  C   UNL     1      43.262   3.524  11.320  0.00  0.00    +0.000 C 
ATOM     14  C   UNL     1      43.862   3.606  12.720  0.00  0.00    +0.000 C 
ATOM     15  C   UNL     1      45.365   3.880  12.664  0.00  0.00    +0.000 C 
ENDBRANCH   8  10
ENDBRANCH   1   4
BRANCH   1  16
ATOM     16  O   UNL     1      49.578   6.372  15.153  0.00  0.00    +0.000 OA
BRANCH  16  21
ATOM     17  C   UNL     1      47.966   6.493  18.384  0.00  0.00    +0.000 A 
ATOM     18  C   UNL     1      47.289   5.276  18.389  0.00  0.00    +0.000 A 
ATOM     19  C   UNL     1      47.464   4.434  17.306  0.00  0.00    +0.000 A 
ATOM     20  N   UNL     1      48.248   4.725  16.243  0.00  0.00    +0.000 NA
ATOM     21  C   UNL     1      48.880   5.918  16.261  0.00  0.00    +0.000 A 
ATOM     22  C   UNL     1      48.774   6.825  17.298  0.00  0.00    +0.000 A 
BRANCH  17  24
ATOM     23  N   UNL     1      47.696   8.144  20.361  0.00  0.00    +0.000 NA
ATOM     24  C   UNL     1      47.816   7.409  19.475  0.00  0.00    +0.000 C 
ENDBRANCH  17  24
ENDBRANCH  16  21
ENDBRANCH   1  16
TORSDOF 5
ENDMDL
MODEL 6
REMARK VINA RESULT:    -5.805      3.101      5.691
REMARK INTER + INTRA:          -8.565
REMARK INTER:                  -7.723
REMARK INTRA:                  -0.842
REMARK UNBOUND:                -1.063
REMARK  Name = 
REMARK  5 active torsions:
REMARK  status: ('A' for Active; 'I' for Inactive)
REMARK    1  A    between atoms: C_2  and  C_3
REMARK    2  A    between atoms: C_7  and  O_8
REMARK    3  A    between atoms: O_8  and  C_9
REMARK    4  A    between atoms: C_9  and  C_10
REMARK    5  A    between atoms: C_14  and  N_15
REMARK                            x       y       z     vdW  Elec       q    Type
REMARK                         _______ _______ _______ _____ _____    ______ ____
ROOT
ATOM      1  C   UNL     1      48.064   7.578  13.069  0.00  0.00    +0.000 C 
ATOM      2  C   UNL     1      48.955   8.377  12.119  0.00  0.00    +0.000 C 
ATOM      3  C   UNL     1      49.103   6.897  12.198  0.00  0.00    +0.000 C 
ENDROOT
BRANCH   1   4
ATOM      4  C   UNL     1      48.335   7.668  14.563  0.00  0.00    +0.000 A 
ATOM      5  C   UNL     1      48.294   8.906  15.221  0.00  0.00    +0.000 A 
ATOM      6  C   UNL     1      48.422   8.988  16.603  0.00  0.00    +0.000 A 
ATOM      7  C   UNL     1      48.575   7.823  17.354  0.00  0.00    +0.000 A 
ATOM      8  C   UNL     1      48.634   6.556  16.753  0.00  0.00    +0.000 A 
ATOM      9  C   UNL     1      48.562   6.516  15.353  0.00  0.00    +0.000 A 
BRANCH   8  10
ATOM     10  N   UNL     1      48.735   5.416  17.537  0.00  0.00    +0.000 N 
ATOM     11  C   UNL     1      49.991   4.995  18.159  0.00  0.00    +0.000 C 
ATOM     12  C   UNL     1      50.550   3.741  17.491  0.00  0.00    +0.000 C 
ATOM     13  C   UNL     1      49.498   2.636  17.406  0.00  0.00    +0.000 C 
ATOM     14  C   UNL     1      48.240   3.151  16.714  0.00  0.00    +0.000 C 
ATOM     15  C   UNL     1      47.690   4.393  17.415  0.00  0.00    +0.000 C 
ENDBRANCH   8  10
ENDBRANCH   1   4
BRANCH   1  16
ATOM     16  O   UNL     1      46.683   7.653  12.649  0.00  0.00    +0.000 OA
BRANCH  16  21
ATOM     17  C   UNL     1      45.387   4.946  10.637  0.00  0.00    +0.000 A 
ATOM     18  C   UNL     1      44.974   4.056  11.625  0.00  0.00    +0.000 A 
ATOM     19  C   UNL     1      45.100   4.449  12.945  0.00  0.00    +0.000 A 
ATOM     20  N   UNL     1      45.605   5.643  13.331  0.00  0.00    +0.000 NA
ATOM     21  C   UNL     1      46.010   6.479  12.352  0.00  0.00    +0.000 A 
ATOM     22  C   UNL     1      45.921   6.180  11.005  0.00  0.00    +0.000 A 
BRANCH  17  24
ATOM     23  N   UNL     1      45.214   4.300   8.135  0.00  0.00    +0.000 NA
ATOM     24  C   UNL     1      45.288   4.589   9.253  0.00  0.00    +0.000 C 
ENDBRANCH  17  24
ENDBRANCH  16  21
ENDBRANCH   1  16
TORSDOF 5
ENDMDL
MODEL 7
REMARK VINA RESULT:    -5.366      3.891      7.919
REMARK INTER + INTRA:          -7.997
REMARK INTER:                  -7.343
REMARK INTRA:                  -0.654
REMARK UNBOUND:                -1.063
REMARK  Name = 
REMARK  5 active torsions:
REMARK  status: ('A' for Active; 'I' for Inactive)
REMARK    1  A    between atoms: C_2  and  C_3
REMARK    2  A    between atoms: C_7  and  O_8
REMARK    3  A    between atoms: O_8  and  C_9
REMARK    4  A    between atoms: C_9  and  C_10
REMARK    5  A    between atoms: C_14  and  N_15
REMARK                            x       y       z     vdW  Elec       q    Type
REMARK                         _______ _______ _______ _____ _____    ______ ____
ROOT
ATOM      1  C   UNL     1      49.348   7.342  15.507  0.00  0.00    +0.000 C 
ATOM      2  C   UNL     1      50.125   8.587  15.933  0.00  0.00    +0.000 C 
ATOM      3  C   UNL     1      48.771   8.334  16.500  0.00  0.00    +0.000 C 
ENDROOT
BRANCH   1   4
ATOM      4  C   UNL     1      48.749   7.306  14.108  0.00  0.00    +0.000 A 
ATOM      5  C   UNL     1      49.504   7.720  13.001  0.00  0.00    +0.000 A 
ATOM      6  C   UNL     1      49.014   7.581  11.707  0.00  0.00    +0.000 A 
ATOM      7  C   UNL     1      47.761   7.004  11.501  0.00  0.00    +0.000 A 
ATOM      8  C   UNL     1      46.955   6.581  12.568  0.00  0.00    +0.000 A 
ATOM      9  C   UNL     1      47.455   6.791  13.861  0.00  0.00    +0.000 A 
BRANCH   8  10
ATOM     10  N   UNL     1      45.737   5.965  12.320  0.00  0.00    +0.000 N 
ATOM     11  C   UNL     1      45.231   4.860  13.135  0.00  0.00    +0.000 C 
ATOM     12  C   UNL     1      45.264   3.540  12.366  0.00  0.00    +0.000 C 
ATOM     13  C   UNL     1      44.584   3.670  11.004  0.00  0.00    +0.000 C 
ATOM     14  C   UNL     1      45.196   4.820  10.210  0.00  0.00    +0.000 C 
ATOM     15  C   UNL     1      45.130   6.131  10.993  0.00  0.00    +0.000 C 
ENDBRANCH   8  10
ENDBRANCH   1   4
BRANCH   1  16
ATOM     16  O   UNL     1      50.019   6.146  15.963  0.00  0.00    +0.000 OA
BRANCH  16  21
ATOM     17  C   UNL     1      48.565   4.415  18.780  0.00  0.00    +0.000 A 
ATOM     18  C   UNL     1      47.677   3.558  18.136  0.00  0.00    +0.000 A 
ATOM     19  C   UNL     1      47.658   3.565  16.753  0.00  0.00    +0.000 A 
ATOM     20  N   UNL     1      48.447   4.359  15.993  0.00  0.00    +0.000 NA
ATOM     21  C   UNL     1      49.288   5.189  16.646  0.00  0.00    +0.000 A 
ATOM     22  C   UNL     1      49.384   5.252  18.024  0.00  0.00    +0.000 A 
BRANCH  17  24
ATOM     23  N   UNL     1      48.671   4.484  21.367  0.00  0.00    +0.000 NA
ATOM     24  C   UNL     1      48.621   4.456  20.211  0.00  0.00    +0.000 C 
ENDBRANCH  17  24
ENDBRANCH  16  21
ENDBRANCH   1  16
TORSDOF 5
ENDMDL
MODEL 8
REMARK VINA RESULT:    -5.292      2.677      4.248
REMARK INTER + INTRA:          -7.902
REMARK INTER:                  -7.369
REMARK INTRA:                  -0.533
REMARK UNBOUND:                -1.063
REMARK  Name = 
REMARK  5 active torsions:
REMARK  status: ('A' for Active; 'I' for Inactive)
REMARK    1  A    between atoms: C_2  and  C_3
REMARK    2  A    between atoms: C_7  and  O_8
REMARK    3  A    between atoms: O_8  and  C_9
REMARK    4  A    between atoms: C_9  and  C_10
REMARK    5  A    between atoms: C_14  and  N_15
REMARK                            x       y       z     vdW  Elec       q    Type
REMARK                         _______ _______ _______ _____ _____    ______ ____
ROOT
ATOM      1  C   UNL     1      45.863   7.479  12.528  0.00  0.00    +0.000 C 
ATOM      2  C   UNL     1      45.099   8.745  12.913  0.00  0.00    +0.000 C 
ATOM      3  C   UNL     1      45.265   8.394  11.475  0.00  0.00    +0.000 C 
ENDROOT
BRANCH   1   4
ATOM      4  C   UNL     1      47.377   7.471  12.687  0.00  0.00    +0.000 A 
ATOM      5  C   UNL     1      48.203   7.923  11.648  0.00  0.00    +0.000 A 
ATOM      6  C   UNL     1      49.579   8.032  11.823  0.00  0.00    +0.000 A 
ATOM      7  C   UNL     1      50.147   7.708  13.054  0.00  0.00    +0.000 A 
ATOM      8  C   UNL     1      49.374   7.241  14.128  0.00  0.00    +0.000 A 
ATOM      9  C   UNL     1      47.999   7.085  13.897  0.00  0.00    +0.000 A 
BRANCH   8  10
ATOM     10  N   UNL     1      49.969   6.978  15.353  0.00  0.00    +0.000 N 
ATOM     11  C   UNL     1      49.196   6.637  16.549  0.00  0.00    +0.000 C 
ATOM     12  C   UNL     1      49.218   7.774  17.569  0.00  0.00    +0.000 C 
ATOM     13  C   UNL     1      50.645   8.235  17.861  0.00  0.00    +0.000 C 
ATOM     14  C   UNL     1      51.362   8.604  16.566  0.00  0.00    +0.000 C 
ATOM     15  C   UNL     1      51.345   7.441  15.573  0.00  0.00    +0.000 C 
ENDBRANCH   8  10
ENDBRANCH   1   4
BRANCH   1  16
ATOM     16  O   UNL     1      45.152   6.303  12.974  0.00  0.00    +0.000 OA
BRANCH  16  21
ATOM     17  C   UNL     1      44.982   4.446   9.880  0.00  0.00    +0.000 A 
ATOM     18  C   UNL     1      43.964   3.541  10.169  0.00  0.00    +0.000 A 
ATOM     19  C   UNL     1      43.333   3.646  11.395  0.00  0.00    +0.000 A 
ATOM     20  N   UNL     1      43.651   4.571  12.329  0.00  0.00    +0.000 NA
ATOM     21  C   UNL     1      44.651   5.426  12.026  0.00  0.00    +0.000 A 
ATOM     22  C   UNL     1      45.338   5.404  10.827  0.00  0.00    +0.000 A 
BRANCH  17  24
ATOM     23  N   UNL     1      46.236   4.331   7.617  0.00  0.00    +0.000 NA
ATOM     24  C   UNL     1      45.676   4.379   8.629  0.00  0.00    +0.000 C 
ENDBRANCH  17  24
ENDBRANCH  16  21
ENDBRANCH   1  16
TORSDOF 5
ENDMDL
MODEL 9
REMARK VINA RESULT:    -5.201      4.697      7.625
REMARK INTER + INTRA:          -7.784
REMARK INTER:                  -6.548
REMARK INTRA:                  -1.236
REMARK UNBOUND:                -1.063
REMARK  Name = 
REMARK  5 active torsions:
REMARK  status: ('A' for Active; 'I' for Inactive)
REMARK    1  A    between atoms: C_2  and  C_3
REMARK    2  A    between atoms: C_7  and  O_8
REMARK    3  A    between atoms: O_8  and  C_9
REMARK    4  A    between atoms: C_9  and  C_10
REMARK    5  A    between atoms: C_14  and  N_15
REMARK                            x       y       z     vdW  Elec       q    Type
REMARK                         _______ _______ _______ _____ _____    ______ ____
ROOT
ATOM      1  C   UNL     1      48.887   7.730  17.913  0.00  0.00    +0.000 C 
ATOM      2  C   UNL     1      49.070   8.914  18.861  0.00  0.00    +0.000 C 
ATOM      3  C   UNL     1      47.710   8.579  18.354  0.00  0.00    +0.000 C 
ENDROOT
BRANCH   1   4
ATOM      4  C   UNL     1      49.368   7.872  16.476  0.00  0.00    +0.000 A 
ATOM      5  C   UNL     1      50.739   7.860  16.180  0.00  0.00    +0.000 A 
ATOM      6  C   UNL     1      51.189   7.870  14.864  0.00  0.00    +0.000 A 
ATOM      7  C   UNL     1      50.266   7.872  13.818  0.00  0.00    +0.000 A 
ATOM      8  C   UNL     1      48.883   7.896  14.051  0.00  0.00    +0.000 A 
ATOM      9  C   UNL     1      48.466   7.947  15.389  0.00  0.00    +0.000 A 
BRANCH   8  10
ATOM     10  N   UNL     1      47.996   7.847  12.985  0.00  0.00    +0.000 N 
ATOM     11  C   UNL     1      47.163   8.986  12.598  0.00  0.00    +0.000 C 
ATOM     12  C   UNL     1      45.692   8.738  12.929  0.00  0.00    +0.000 C 
ATOM     13  C   UNL     1      45.211   7.400  12.372  0.00  0.00    +0.000 C 
ATOM     14  C   UNL     1      46.113   6.267  12.854  0.00  0.00    +0.000 C 
ATOM     15  C   UNL     1      47.575   6.530  12.490  0.00  0.00    +0.000 C 
ENDBRANCH   8  10
ENDBRANCH   1   4
BRANCH   1  16
ATOM     16  O   UNL     1      49.197   6.489  18.586  0.00  0.00    +0.000 OA
BRANCH  16  21
ATOM     17  C   UNL     1      49.418   3.085  17.398  0.00  0.00    +0.000 A 
ATOM     18  C   UNL     1      48.075   2.795  17.171  0.00  0.00    +0.000 A 
ATOM     19  C   UNL     1      47.152   3.804  17.376  0.00  0.00    +0.000 A 
ATOM     20  N   UNL     1      47.476   5.051  17.789  0.00  0.00    +0.000 NA
ATOM     21  C   UNL     1      48.784   5.297  18.014  0.00  0.00    +0.000 A 
ATOM     22  C   UNL     1      49.782   4.358  17.833  0.00  0.00    +0.000 A 
BRANCH  17  24
ATOM     23  N   UNL     1      51.222   1.259  17.052  0.00  0.00    +0.000 NA
ATOM     24  C   UNL     1      50.418   2.076  17.209  0.00  0.00    +0.000 C 
ENDBRANCH  17  24
ENDBRANCH  16  21
ENDBRANCH   1  16
TORSDOF 5
ENDMDL
