MODEL 1
REMARK VINA RESULT:    -7.929      0.000      0.000
REMARK INTER + INTRA:         -10.867
REMARK INTER:                 -10.247
REMARK INTRA:                  -0.620
REMARK UNBOUND:                -0.620
REMARK  Name = 
REMARK  5 active torsions:
REMARK  status: ('A' for Active; 'I' for Inactive)
REMARK    1  A    between atoms: C_2  and  C_4
REMARK    2  A    between atoms: C_7  and  O_8
REMARK    3  A    between atoms: O_8  and  C_9
REMARK    4  A    between atoms: C_9  and  C_10
REMARK    5  A    between atoms: C_14  and  C_15
REMARK                            x       y       z     vdW  Elec       q    Type
REMARK                         _______ _______ _______ _____ _____    ______ ____
ROOT
ATOM      1  C   UNL     1      43.846   3.366  11.204  0.00  0.00    +0.000 C 
ENDROOT
BRANCH   1   2
ATOM      2  C   UNL     1      44.933   4.050  12.006  0.00  0.00    +0.000 A 
ATOM      3  C   UNL     1      45.788   3.310  12.825  0.00  0.00    +0.000 A 
ATOM      4  C   UNL     1      46.815   3.943  13.527  0.00  0.00    +0.000 A 
ATOM      5  C   UNL     1      47.013   5.317  13.393  0.00  0.00    +0.000 A 
ATOM      6  C   UNL     1      46.197   6.092  12.545  0.00  0.00    +0.000 A 
ATOM      7  C   UNL     1      45.143   5.433  11.880  0.00  0.00    +0.000 A 
BRANCH   6   8
ATOM      8  C   UNL     1      46.464   7.528  12.331  0.00  0.00    +0.000 A 
ATOM      9  C   UNL     1      47.753   8.024  12.092  0.00  0.00    +0.000 A 
ATOM     10  C   UNL     1      47.968   9.390  11.914  0.00  0.00    +0.000 A 
ATOM     11  C   UNL     1      46.882  10.240  11.978  0.00  0.00    +0.000 A 
ATOM     12  N   UNL     1      45.622   9.823  12.210  0.00  0.00    +0.000 NA
ATOM     13  C   UNL     1      45.449   8.489  12.384  0.00  0.00    +0.000 A 
ENDBRANCH   6   8
ENDBRANCH   1   2
BRANCH   1  14
ATOM     14  O   UNL     1      43.811   3.985   9.917  0.00  0.00    +0.000 OA
BRANCH  14  18
ATOM     15  C   UNL     1      46.609   2.402   7.435  0.00  0.00    +0.000 A 
ATOM     16  C   UNL     1      46.316   3.759   7.379  0.00  0.00    +0.000 A 
ATOM     17  N   UNL     1      45.388   4.347   8.185  0.00  0.00    +0.000 NA
ATOM     18  C   UNL     1      44.771   3.512   9.050  0.00  0.00    +0.000 A 
ATOM     19  C   UNL     1      45.066   2.151   9.105  0.00  0.00    +0.000 A 
ATOM     20  N   UNL     1      45.987   1.555   8.302  0.00  0.00    +0.000 NA
BRANCH  15  22
ATOM     21  N   UNL     1      48.784   2.542   6.361  0.00  0.00    +0.000 N 
ATOM     22  C   UNL     1      47.632   1.826   6.520  0.00  0.00    +0.000 C 
ATOM     23  O   UNL     1      47.460   0.754   5.949  0.00  0.00    +0.000 OA
ATOM     24  H   UNL     1      49.529   2.153   5.796  0.00  0.00    +0.000 HD
ATOM     25  H   UNL     1      48.956   3.372   6.919  0.00  0.00    +0.000 HD
ENDBRANCH  15  22
ENDBRANCH  14  18
ENDBRANCH   1  14
TORSDOF 5
ENDMDL
MODEL 2
REMARK VINA RESULT:    -7.827      1.985      3.337
REMARK INTER + INTRA:         -10.734
REMARK INTER:                 -10.124
REMARK INTRA:                  -0.610
REMARK UNBOUND:                -0.620
REMARK  Name = 
REMARK  5 active torsions:
REMARK  status: ('A' for Active; 'I' for Inactive)
REMARK    1  A    between atoms: C_2  and  C_4
REMARK    2  A    between atoms: C_7  and  O_8
REMARK    3  A    between atoms: O_8  and  C_9
REMARK    4  A    between atoms: C_9  and  C_10
REMARK    5  A    between atoms: C_14  and  C_15
REMARK                            x       y       z     vdW  Elec       q    Type
REMARK                         _______ _______ _______ _____ _____    ______ ____
ROOT
ATOM      1  C   UNL     1      43.992   3.983  11.199  0.00  0.00    +0.000 C 
ENDROOT
BRANCH   1   2
ATOM      2  C   UNL     1      44.970   4.982  11.781  0.00  0.00    +0.000 A 
ATOM      3  C   UNL     1      45.049   6.281  11.273  0.00  0.00    +0.000 A 
ATOM      4  C   UNL     1      45.922   7.208  11.844  0.00  0.00    +0.000 A 
ATOM      5  C   UNL     1      46.701   6.853  12.945  0.00  0.00    +0.000 A 
ATOM      6  C   UNL     1      46.620   5.567  13.511  0.00  0.00    +0.000 A 
ATOM      7  C   UNL     1      45.760   4.638  12.889  0.00  0.00    +0.000 A 
BRANCH   6   8
ATOM      8  C   UNL     1      47.375   5.219  14.731  0.00  0.00    +0.000 A 
ATOM      9  C   UNL     1      47.092   4.074  15.487  0.00  0.00    +0.000 A 
ATOM     10  C   UNL     1      47.814   3.790  16.646  0.00  0.00    +0.000 A 
ATOM     11  C   UNL     1      48.814   4.663  17.027  0.00  0.00    +0.000 A 
ATOM     12  N   UNL     1      49.128   5.781  16.345  0.00  0.00    +0.000 NA
ATOM     13  C   UNL     1      48.402   6.030  15.226  0.00  0.00    +0.000 A 
ENDBRANCH   6   8
ENDBRANCH   1   2
BRANCH   1  14
ATOM     14  O   UNL     1      43.829   4.301   9.816  0.00  0.00    +0.000 OA
BRANCH  14  18
ATOM     15  C   UNL     1      46.568   2.409   7.491  0.00  0.00    +0.000 A 
ATOM     16  C   UNL     1      46.372   3.779   7.361  0.00  0.00    +0.000 A 
ATOM     17  N   UNL     1      45.468   4.468   8.112  0.00  0.00    +0.000 NA
ATOM     18  C   UNL     1      44.774   3.721   8.999  0.00  0.00    +0.000 A 
ATOM     19  C   UNL     1      44.972   2.348   9.128  0.00  0.00    +0.000 A 
ATOM     20  N   UNL     1      45.869   1.651   8.380  0.00  0.00    +0.000 NA
BRANCH  15  22
ATOM     21  N   UNL     1      48.708   2.417   6.339  0.00  0.00    +0.000 N 
ATOM     22  C   UNL     1      47.571   1.720   6.633  0.00  0.00    +0.000 C 
ATOM     23  O   UNL     1      47.395   0.577   6.223  0.00  0.00    +0.000 OA
ATOM     24  H   UNL     1      49.440   1.958   5.810  0.00  0.00    +0.000 HD
ATOM     25  H   UNL     1      48.887   3.318   6.770  0.00  0.00    +0.000 HD
ENDBRANCH  15  22
ENDBRANCH  14  18
ENDBRANCH   1  14
TORSDOF 5
ENDMDL
MODEL 3
REMARK VINA RESULT:    -7.705      1.644      1.937
REMARK INTER + INTRA:         -10.576
REMARK INTER:                  -9.847
REMARK INTRA:                  -0.730
REMARK UNBOUND:                -0.620
REMARK  Name = 
REMARK  5 active torsions:
REMARK  status: ('A' for Active; 'I' for Inactive)
REMARK    1  A    between atoms: C_2  and  C_4
REMARK    2  A    between atoms: C_7  and  O_8
REMARK    3  A    between atoms: O_8  and  C_9
REMARK    4  A    between atoms: C_9  and  C_10
REMARK    5  A    between atoms: C_14  and  C_15
REMARK                            x       y       z     vdW  Elec       q    Type
REMARK                         _______ _______ _______ _____ _____    ______ ____
ROOT
ATOM      1  C   UNL     1      44.137   5.339  10.473  0.00  0.00    +0.000 C 
ENDROOT
BRANCH   1   2
ATOM      2  C   UNL     1      45.107   5.302  11.636  0.00  0.00    +0.000 A 
ATOM      3  C   UNL     1      44.964   4.354  12.652  0.00  0.00    +0.000 A 
ATOM      4  C   UNL     1      45.888   4.299  13.697  0.00  0.00    +0.000 A 
ATOM      5  C   UNL     1      46.977   5.171  13.719  0.00  0.00    +0.000 A 
ATOM      6  C   UNL     1      47.177   6.112  12.691  0.00  0.00    +0.000 A 
ATOM      7  C   UNL     1      46.207   6.173  11.669  0.00  0.00    +0.000 A 
BRANCH   6   8
ATOM      8  C   UNL     1      48.377   6.971  12.665  0.00  0.00    +0.000 A 
ATOM      9  C   UNL     1      48.815   7.613  11.499  0.00  0.00    +0.000 A 
ATOM     10  C   UNL     1      49.966   8.400  11.508  0.00  0.00    +0.000 A 
ATOM     11  C   UNL     1      50.660   8.533  12.694  0.00  0.00    +0.000 A 
ATOM     12  N   UNL     1      50.291   7.938  13.845  0.00  0.00    +0.000 NA
ATOM     13  C   UNL     1      49.172   7.174  13.799  0.00  0.00    +0.000 A 
ENDBRANCH   6   8
ENDBRANCH   1   2
BRANCH   1  14
ATOM     14  O   UNL     1      43.896   3.989  10.074  0.00  0.00    +0.000 OA
BRANCH  14  18
ATOM     15  C   UNL     1      46.610   2.359   7.531  0.00  0.00    +0.000 A 
ATOM     16  C   UNL     1      46.321   3.717   7.464  0.00  0.00    +0.000 A 
ATOM     17  N   UNL     1      45.421   4.320   8.290  0.00  0.00    +0.000 NA
ATOM     18  C   UNL     1      44.827   3.500   9.185  0.00  0.00    +0.000 A 
ATOM     19  C   UNL     1      45.118   2.139   9.251  0.00  0.00    +0.000 A 
ATOM     20  N   UNL     1      46.012   1.527   8.429  0.00  0.00    +0.000 NA
BRANCH  15  22
ATOM     21  N   UNL     1      48.676   2.545   6.264  0.00  0.00    +0.000 N 
ATOM     22  C   UNL     1      47.603   1.766   6.594  0.00  0.00    +0.000 C 
ATOM     23  O   UNL     1      47.476   0.629   6.151  0.00  0.00    +0.000 OA
ATOM     24  H   UNL     1      49.403   2.153   5.679  0.00  0.00    +0.000 HD
ATOM     25  H   UNL     1      48.822   3.440   6.719  0.00  0.00    +0.000 HD
ENDBRANCH  15  22
ENDBRANCH  14  18
ENDBRANCH   1  14
TORSDOF 5
ENDMDL
MODEL 4
REMARK VINA RESULT:    -7.048      2.913      7.232
REMARK INTER + INTRA:          -9.728
REMARK INTER:                  -9.159
REMARK INTRA:                  -0.568
REMARK UNBOUND:                -0.620
REMARK  Name = 
REMARK  5 active torsions:
REMARK  status: ('A' for Active; 'I' for Inactive)
REMARK    1  A    between atoms: C_2  and  C_4
REMARK    2  A    between atoms: C_7  and  O_8
REMARK    3  A    between atoms: O_8  and  C_9
REMARK    4  A    between atoms: C_9  and  C_10
REMARK    5  A    between atoms: C_14  and  C_15
REMARK                            x       y       z     vdW  Elec       q    Type
REMARK                         _______ _______ _______ _____ _____    ______ ____
ROOT
ATOM      1  C   UNL     1      44.811   6.457  10.808  0.00  0.00    +0.000 C 
ENDROOT
BRANCH   1   2
ATOM      2  C   UNL     1      44.740   4.992  10.434  0.00  0.00    +0.000 A 
ATOM      3  C   UNL     1      43.868   4.127  11.100  0.00  0.00    +0.000 A 
ATOM      4  C   UNL     1      43.779   2.787  10.720  0.00  0.00    +0.000 A 
ATOM      5  C   UNL     1      44.538   2.308   9.653  0.00  0.00    +0.000 A 
ATOM      6  C   UNL     1      45.398   3.158   8.931  0.00  0.00    +0.000 A 
ATOM      7  C   UNL     1      45.499   4.496   9.362  0.00  0.00    +0.000 A 
BRANCH   6   8
ATOM      8  C   UNL     1      46.131   2.674   7.744  0.00  0.00    +0.000 A 
ATOM      9  C   UNL     1      46.296   3.457   6.594  0.00  0.00    +0.000 A 
ATOM     10  C   UNL     1      46.977   2.958   5.484  0.00  0.00    +0.000 A 
ATOM     11  C   UNL     1      47.486   1.676   5.549  0.00  0.00    +0.000 A 
ATOM     12  N   UNL     1      47.356   0.875   6.623  0.00  0.00    +0.000 NA
ATOM     13  C   UNL     1      46.682   1.389   7.682  0.00  0.00    +0.000 A 
ENDBRANCH   6   8
ENDBRANCH   1   2
BRANCH   1  14
ATOM     14  O   UNL     1      44.738   6.539  12.232  0.00  0.00    +0.000 OA
BRANCH  14  18
ATOM     15  C   UNL     1      48.348   7.048  14.020  0.00  0.00    +0.000 A 
ATOM     16  C   UNL     1      47.596   8.154  13.644  0.00  0.00    +0.000 A 
ATOM     17  N   UNL     1      46.379   8.046  13.041  0.00  0.00    +0.000 NA
ATOM     18  C   UNL     1      45.952   6.780  12.836  0.00  0.00    +0.000 A 
ATOM     19  C   UNL     1      46.708   5.673  13.214  0.00  0.00    +0.000 A 
ATOM     20  N   UNL     1      47.925   5.770  13.813  0.00  0.00    +0.000 NA
BRANCH  15  22
ATOM     21  N   UNL     1      50.707   7.614  13.861  0.00  0.00    +0.000 N 
ATOM     22  C   UNL     1      49.673   7.240  14.672  0.00  0.00    +0.000 C 
ATOM     23  O   UNL     1      49.829   7.088  15.879  0.00  0.00    +0.000 OA
ATOM     24  H   UNL     1      51.607   7.815  14.277  0.00  0.00    +0.000 HD
ATOM     25  H   UNL     1      50.540   7.838  12.885  0.00  0.00    +0.000 HD
ENDBRANCH  15  22
ENDBRANCH  14  18
ENDBRANCH   1  14
TORSDOF 5
ENDMDL
MODEL 5
REMARK VINA RESULT:    -6.974      3.918      7.376
REMARK INTER + INTRA:          -9.632
REMARK INTER:                  -9.198
REMARK INTRA:                  -0.434
REMARK UNBOUND:                -0.620
REMARK  Name = 
REMARK  5 active torsions:
REMARK  status: ('A' for Active; 'I' for Inactive)
REMARK    1  A    between atoms: C_2  and  C_4
REMARK    2  A    between atoms: C_7  and  O_8
REMARK    3  A    between atoms: O_8  and  C_9
REMARK    4  A    between atoms: C_9  and  C_10
REMARK    5  A    between atoms: C_14  and  C_15
REMARK                            x       y       z     vdW  Elec       q    Type
REMARK                         _______ _______ _______ _____ _____    ______ ____
ROOT
ATOM      1  C   UNL     1      46.193   7.042  12.842  0.00  0.00    +0.000 C 
ENDROOT
BRANCH   1   2
ATOM      2  C   UNL     1      45.270   6.193  11.994  0.00  0.00    +0.000 A 
ATOM      3  C   UNL     1      43.884   6.262  12.160  0.00  0.00    +0.000 A 
ATOM      4  C   UNL     1      43.039   5.508  11.345  0.00  0.00    +0.000 A 
ATOM      5  C   UNL     1      43.570   4.701  10.339  0.00  0.00    +0.000 A 
ATOM      6  C   UNL     1      44.958   4.636  10.114  0.00  0.00    +0.000 A 
ATOM      7  C   UNL     1      45.791   5.377  10.978  0.00  0.00    +0.000 A 
BRANCH   6   8
ATOM      8  C   UNL     1      45.514   3.855   8.991  0.00  0.00    +0.000 A 
ATOM      9  C   UNL     1      45.566   2.455   9.004  0.00  0.00    +0.000 A 
ATOM     10  C   UNL     1      46.118   1.753   7.933  0.00  0.00    +0.000 A 
ATOM     11  C   UNL     1      46.609   2.471   6.860  0.00  0.00    +0.000 A 
ATOM     12  N   UNL     1      46.591   3.816   6.793  0.00  0.00    +0.000 NA
ATOM     13  C   UNL     1      46.054   4.468   7.854  0.00  0.00    +0.000 A 
ENDBRANCH   6   8
ENDBRANCH   1   2
BRANCH   1  14
ATOM     14  O   UNL     1      47.432   6.340  12.958  0.00  0.00    +0.000 OA
BRANCH  14  18
ATOM     15  C   UNL     1      47.745   4.214  16.404  0.00  0.00    +0.000 A 
ATOM     16  C   UNL     1      48.414   5.425  16.270  0.00  0.00    +0.000 A 
ATOM     17  N   UNL     1      48.348   6.182  15.139  0.00  0.00    +0.000 NA
ATOM     18  C   UNL     1      47.578   5.670  14.152  0.00  0.00    +0.000 A 
ATOM     19  C   UNL     1      46.908   4.456  14.289  0.00  0.00    +0.000 A 
ATOM     20  N   UNL     1      46.972   3.692  15.412  0.00  0.00    +0.000 NA
BRANCH  15  22
ATOM     21  N   UNL     1      46.878   2.531  17.928  0.00  0.00    +0.000 N 
ATOM     22  C   UNL     1      47.867   3.437  17.668  0.00  0.00    +0.000 C 
ATOM     23  O   UNL     1      48.815   3.588  18.432  0.00  0.00    +0.000 OA
ATOM     24  H   UNL     1      46.959   1.941  18.746  0.00  0.00    +0.000 HD
ATOM     25  H   UNL     1      46.158   2.342  17.239  0.00  0.00    +0.000 HD
ENDBRANCH  15  22
ENDBRANCH  14  18
ENDBRANCH   1  14
TORSDOF 5
ENDMDL
MODEL 6
REMARK VINA RESULT:    -6.564      5.560      7.958
REMARK INTER + INTRA:          -9.103
REMARK INTER:                  -8.424
REMARK INTRA:                  -0.679
REMARK UNBOUND:                -0.620
REMARK  Name = 
REMARK  5 active torsions:
REMARK  status: ('A' for Active; 'I' for Inactive)
REMARK    1  A    between atoms: C_2  and  C_4
REMARK    2  A    between atoms: C_7  and  O_8
REMARK    3  A    between atoms: O_8  and  C_9
REMARK    4  A    between atoms: C_9  and  C_10
REMARK    5  A    between atoms: C_14  and  C_15
REMARK                            x       y       z     vdW  Elec       q    Type
REMARK                         _______ _______ _______ _____ _____    ______ ____
ROOT
ATOM      1  C   UNL     1      48.633   6.384  15.876  0.00  0.00    +0.000 C 
ENDROOT
BRANCH   1   2
ATOM      2  C   UNL     1      48.161   6.525  14.445  0.00  0.00    +0.000 A 
ATOM      3  C   UNL     1      48.872   7.309  13.533  0.00  0.00    +0.000 A 
ATOM      4  C   UNL     1      48.454   7.398  12.204  0.00  0.00    +0.000 A 
ATOM      5  C   UNL     1      47.339   6.681  11.770  0.00  0.00    +0.000 A 
ATOM      6  C   UNL     1      46.620   5.848  12.649  0.00  0.00    +0.000 A 
ATOM      7  C   UNL     1      47.041   5.809  13.994  0.00  0.00    +0.000 A 
BRANCH   6   8
ATOM      8  C   UNL     1      45.498   5.018  12.169  0.00  0.00    +0.000 A 
ATOM      9  C   UNL     1      44.752   5.352  11.030  0.00  0.00    +0.000 A 
ATOM     10  C   UNL     1      43.685   4.554  10.619  0.00  0.00    +0.000 A 
ATOM     11  C   UNL     1      43.384   3.428  11.359  0.00  0.00    +0.000 A 
ATOM     12  N   UNL     1      44.061   3.059  12.463  0.00  0.00    +0.000 NA
ATOM     13  C   UNL     1      45.088   3.861  12.839  0.00  0.00    +0.000 A 
ENDBRANCH   6   8
ENDBRANCH   1   2
BRANCH   1  14
ATOM     14  O   UNL     1      48.064   5.182  16.398  0.00  0.00    +0.000 OA
BRANCH  14  18
ATOM     15  C   UNL     1      50.935   2.484  17.382  0.00  0.00    +0.000 A 
ATOM     16  C   UNL     1      49.738   2.054  16.823  0.00  0.00    +0.000 A 
ATOM     17  N   UNL     1      48.738   2.911  16.472  0.00  0.00    +0.000 NA
ATOM     18  C   UNL     1      48.996   4.217  16.706  0.00  0.00    +0.000 A 
ATOM     19  C   UNL     1      50.198   4.646  17.267  0.00  0.00    +0.000 A 
ATOM     20  N   UNL     1      51.199   3.798  17.623  0.00  0.00    +0.000 NA
BRANCH  15  22
ATOM     21  N   UNL     1      51.548   0.247  18.107  0.00  0.00    +0.000 N 
ATOM     22  C   UNL     1      51.982   1.490  17.744  0.00  0.00    +0.000 C 
ATOM     23  O   UNL     1      53.177   1.766  17.705  0.00  0.00    +0.000 OA
ATOM     24  H   UNL     1      52.233  -0.473  18.300  0.00  0.00    +0.000 HD
ATOM     25  H   UNL     1      50.566   0.002  18.033  0.00  0.00    +0.000 HD
ENDBRANCH  15  22
ENDBRANCH  14  18
ENDBRANCH   1  14
TORSDOF 5
ENDMDL
MODEL 7
REMARK VINA RESULT:    -6.560      4.807      8.379
REMARK INTER + INTRA:          -9.097
REMARK INTER:                  -8.487
REMARK INTRA:                  -0.611
REMARK UNBOUND:                -0.620
REMARK  Name = 
REMARK  5 active torsions:
REMARK  status: ('A' for Active; 'I' for Inactive)
REMARK    1  A    between atoms: C_2  and  C_4
REMARK    2  A    between atoms: C_7  and  O_8
REMARK    3  A    between atoms: O_8  and  C_9
REMARK    4  A    between atoms: C_9  and  C_10
REMARK    5  A    between atoms: C_14  and  C_15
REMARK                            x       y       z     vdW  Elec       q    Type
REMARK                         _______ _______ _______ _____ _____    ______ ____
ROOT
ATOM      1  C   UNL     1      48.175   7.126  13.971  0.00  0.00    +0.000 C 
ENDROOT
BRANCH   1   2
ATOM      2  C   UNL     1      46.957   7.205  13.076  0.00  0.00    +0.000 A 
ATOM      3  C   UNL     1      46.235   8.395  12.956  0.00  0.00    +0.000 A 
ATOM      4  C   UNL     1      45.139   8.470  12.096  0.00  0.00    +0.000 A 
ATOM      5  C   UNL     1      44.773   7.365  11.327  0.00  0.00    +0.000 A 
ATOM      6  C   UNL     1      45.500   6.161  11.389  0.00  0.00    +0.000 A 
ATOM      7  C   UNL     1      46.578   6.100  12.296  0.00  0.00    +0.000 A 
BRANCH   6   8
ATOM      8  C   UNL     1      45.171   5.023  10.508  0.00  0.00    +0.000 A 
ATOM      9  C   UNL     1      45.632   4.939   9.187  0.00  0.00    +0.000 A 
ATOM     10  C   UNL     1      45.282   3.858   8.379  0.00  0.00    +0.000 A 
ATOM     11  C   UNL     1      44.475   2.873   8.912  0.00  0.00    +0.000 A 
ATOM     12  N   UNL     1      43.999   2.901  10.171  0.00  0.00    +0.000 NA
ATOM     13  C   UNL     1      44.352   3.969  10.928  0.00  0.00    +0.000 A 
ENDBRANCH   6   8
ENDBRANCH   1   2
BRANCH   1  14
ATOM     14  O   UNL     1      48.338   5.759  14.353  0.00  0.00    +0.000 OA
BRANCH  14  18
ATOM     15  C   UNL     1      48.357   5.328  18.391  0.00  0.00    +0.000 A 
ATOM     16  C   UNL     1      47.617   4.456  17.601  0.00  0.00    +0.000 A 
ATOM     17  N   UNL     1      47.571   4.551  16.242  0.00  0.00    +0.000 NA
ATOM     18  C   UNL     1      48.303   5.557  15.714  0.00  0.00    +0.000 A 
ATOM     19  C   UNL     1      49.044   6.430  16.509  0.00  0.00    +0.000 A 
ATOM     20  N   UNL     1      49.093   6.346  17.865  0.00  0.00    +0.000 NA
BRANCH  15  22
ATOM     21  N   UNL     1      48.504   3.897  20.350  0.00  0.00    +0.000 N 
ATOM     22  C   UNL     1      48.357   5.167  19.871  0.00  0.00    +0.000 C 
ATOM     23  O   UNL     1      48.247   6.128  20.626  0.00  0.00    +0.000 OA
ATOM     24  H   UNL     1      48.571   3.756  21.350  0.00  0.00    +0.000 HD
ATOM     25  H   UNL     1      48.699   3.127  19.717  0.00  0.00    +0.000 HD
ENDBRANCH  15  22
ENDBRANCH  14  18
ENDBRANCH   1  14
TORSDOF 5
ENDMDL
MODEL 8
REMARK VINA RESULT:    -6.258      5.747      7.876
REMARK INTER + INTRA:          -8.707
REMARK INTER:                  -8.191
REMARK INTRA:                  -0.516
REMARK UNBOUND:                -0.620
REMARK  Name = 
REMARK  5 active torsions:
REMARK  status: ('A' for Active; 'I' for Inactive)
REMARK    1  A    between atoms: C_2  and  C_4
REMARK    2  A    between atoms: C_7  and  O_8
REMARK    3  A    between atoms: O_8  and  C_9
REMARK    4  A    between atoms: C_9  and  C_10
REMARK    5  A    between atoms: C_14  and  C_15
REMARK                            x       y       z     vdW  Elec       q    Type
REMARK                         _______ _______ _______ _____ _____    ______ ____
ROOT
ATOM      1  C   UNL     1      47.340   4.109  16.163  0.00  0.00    +0.000 C 
ENDROOT
BRANCH   1   2
ATOM      2  C   UNL     1      48.480   4.330  17.135  0.00  0.00    +0.000 A 
ATOM      3  C   UNL     1      48.377   5.284  18.150  0.00  0.00    +0.000 A 
ATOM      4  C   UNL     1      49.416   5.451  19.067  0.00  0.00    +0.000 A 
ATOM      5  C   UNL     1      50.552   4.646  18.995  0.00  0.00    +0.000 A 
ATOM      6  C   UNL     1      50.676   3.646  18.012  0.00  0.00    +0.000 A 
ATOM      7  C   UNL     1      49.630   3.526  17.073  0.00  0.00    +0.000 A 
BRANCH   6   8
ATOM      8  C   UNL     1      51.835   2.733  17.992  0.00  0.00    +0.000 A 
ATOM      9  C   UNL     1      51.772   1.453  17.425  0.00  0.00    +0.000 A 
ATOM     10  C   UNL     1      52.883   0.610  17.443  0.00  0.00    +0.000 A 
ATOM     11  C   UNL     1      54.045   1.069  18.031  0.00  0.00    +0.000 A 
ATOM     12  N   UNL     1      54.165   2.286  18.595  0.00  0.00    +0.000 NA
ATOM     13  C   UNL     1      53.064   3.077  18.566  0.00  0.00    +0.000 A 
ENDBRANCH   6   8
ENDBRANCH   1   2
BRANCH   1  14
ATOM     14  O   UNL     1      47.712   4.714  14.923  0.00  0.00    +0.000 OA
BRANCH  14  18
ATOM     15  C   UNL     1      44.982   4.369  11.937  0.00  0.00    +0.000 A 
ATOM     16  C   UNL     1      45.510   3.230  12.532  0.00  0.00    +0.000 A 
ATOM     17  N   UNL     1      46.429   3.282  13.537  0.00  0.00    +0.000 NA
ATOM     18  C   UNL     1      46.790   4.527  13.918  0.00  0.00    +0.000 A 
ATOM     19  C   UNL     1      46.259   5.669  13.320  0.00  0.00    +0.000 A 
ATOM     20  N   UNL     1      45.345   5.627  12.314  0.00  0.00    +0.000 NA
BRANCH  15  22
ATOM     21  N   UNL     1      43.527   5.397  10.284  0.00  0.00    +0.000 N 
ATOM     22  C   UNL     1      43.984   4.237  10.840  0.00  0.00    +0.000 C 
ATOM     23  O   UNL     1      43.603   3.141  10.441  0.00  0.00    +0.000 OA
ATOM     24  H   UNL     1      42.896   5.346   9.494  0.00  0.00    +0.000 HD
ATOM     25  H   UNL     1      43.929   6.290  10.551  0.00  0.00    +0.000 HD
ENDBRANCH  15  22
ENDBRANCH  14  18
ENDBRANCH   1  14
TORSDOF 5
ENDMDL
MODEL 9
REMARK VINA RESULT:    -6.106      5.109      6.732
REMARK INTER + INTRA:          -8.510
REMARK INTER:                  -7.978
REMARK INTRA:                  -0.532
REMARK UNBOUND:                -0.620
REMARK  Name = 
REMARK  5 active torsions:
REMARK  status: ('A' for Active; 'I' for Inactive)
REMARK    1  A    between atoms: C_2  and  C_4
REMARK    2  A    between atoms: C_7  and  O_8
REMARK    3  A    between atoms: O_8  and  C_9
REMARK    4  A    between atoms: C_9  and  C_10
REMARK    5  A    between atoms: C_14  and  C_15
REMARK                            x       y       z     vdW  Elec       q    Type
REMARK                         _______ _______ _______ _____ _____    ______ ____
ROOT
ATOM      1  C   UNL     1      47.343   3.592  15.785  0.00  0.00    +0.000 C 
ENDROOT
BRANCH   1   2
ATOM      2  C   UNL     1      48.141   4.075  16.977  0.00  0.00    +0.000 A 
ATOM      3  C   UNL     1      49.380   3.506  17.285  0.00  0.00    +0.000 A 
ATOM      4  C   UNL     1      50.128   3.987  18.360  0.00  0.00    +0.000 A 
ATOM      5  C   UNL     1      49.658   5.059  19.119  0.00  0.00    +0.000 A 
ATOM      6  C   UNL     1      48.433   5.685  18.815  0.00  0.00    +0.000 A 
ATOM      7  C   UNL     1      47.679   5.153  17.749  0.00  0.00    +0.000 A 
BRANCH   6   8
ATOM      8  C   UNL     1      47.980   6.877  19.559  0.00  0.00    +0.000 A 
ATOM      9  C   UNL     1      47.784   6.866  20.946  0.00  0.00    +0.000 A 
ATOM     10  C   UNL     1      47.335   8.007  21.611  0.00  0.00    +0.000 A 
ATOM     11  C   UNL     1      47.091   9.146  20.869  0.00  0.00    +0.000 A 
ATOM     12  N   UNL     1      47.256   9.215  19.534  0.00  0.00    +0.000 NA
ATOM     13  C   UNL     1      47.687   8.086  18.918  0.00  0.00    +0.000 A 
ENDBRANCH   6   8
ENDBRANCH   1   2
BRANCH   1  14
ATOM     14  O   UNL     1      47.650   4.454  14.688  0.00  0.00    +0.000 OA
BRANCH  14  18
ATOM     15  C   UNL     1      44.752   4.809  11.865  0.00  0.00    +0.000 A 
ATOM     16  C   UNL     1      45.149   3.550  12.301  0.00  0.00    +0.000 A 
ATOM     17  N   UNL     1      46.115   3.368  13.245  0.00  0.00    +0.000 NA
ATOM     18  C   UNL     1      46.662   4.505  13.730  0.00  0.00    +0.000 A 
ATOM     19  C   UNL     1      46.263   5.765  13.291  0.00  0.00    +0.000 A 
ATOM     20  N   UNL     1      45.303   5.957  12.348  0.00  0.00    +0.000 NA
BRANCH  15  22
ATOM     21  N   UNL     1      44.063   4.674   9.538  0.00  0.00    +0.000 N 
ATOM     22  C   UNL     1      43.693   4.933  10.827  0.00  0.00    +0.000 C 
ATOM     23  O   UNL     1      42.538   5.236  11.114  0.00  0.00    +0.000 OA
ATOM     24  H   UNL     1      43.356   4.688   8.814  0.00  0.00    +0.000 HD
ATOM     25  H   UNL     1      44.992   4.323   9.330  0.00  0.00    +0.000 HD
ENDBRANCH  15  22
ENDBRANCH  14  18
ENDBRANCH   1  14
TORSDOF 5
ENDMDL
