MODEL 1
REMARK VINA RESULT:    -7.860      0.000      0.000
REMARK INTER + INTRA:         -11.151
REMARK INTER:                 -10.157
REMARK INTRA:                  -0.994
REMARK UNBOUND:                -0.994
REMARK  Name = 
REMARK  6 active torsions:
REMARK  status: ('A' for Active; 'I' for Inactive)
REMARK    1  A    between atoms: C_1  and  C_2
REMARK    2  A    between atoms: C_6  and  C_7
REMARK    3  A    between atoms: C_7  and  C_8
REMARK    4  A    between atoms: C_11  and  C_12
REMARK    5  A    between atoms: C_12  and  N_13
REMARK    6  A    between atoms: C_14  and  C_16
REMARK                            x       y       z     vdW  Elec       q    Type
REMARK                         _______ _______ _______ _____ _____    ______ ____
ROOT
ATOM      1  C   UNL     1      47.411   8.298  13.695  0.00  0.00    +0.000 C 
ENDROOT
BRANCH   1   5
ATOM      2  C   UNL     1      44.843   6.028  11.053  0.00  0.00    +0.000 A 
ATOM      3  C   UNL     1      46.043   5.476  11.525  0.00  0.00    +0.000 A 
ATOM      4  C   UNL     1      46.884   6.213  12.364  0.00  0.00    +0.000 A 
ATOM      5  C   UNL     1      46.546   7.519  12.740  0.00  0.00    +0.000 A 
ATOM      6  C   UNL     1      45.385   8.095  12.206  0.00  0.00    +0.000 A 
ATOM      7  C   UNL     1      44.536   7.353  11.382  0.00  0.00    +0.000 A 
BRANCH   2   8
ATOM      8  C   UNL     1      43.877   5.192  10.241  0.00  0.00    +0.000 C 
BRANCH   8  14
ATOM      9  C   UNL     1      46.793   3.834   6.573  0.00  0.00    +0.000 C 
ATOM     10  C   UNL     1      45.945   3.415   7.735  0.00  0.00    +0.000 A 
ATOM     11  C   UNL     1      45.819   2.073   8.076  0.00  0.00    +0.000 A 
ATOM     12  C   UNL     1      45.001   1.730   9.144  0.00  0.00    +0.000 A 
ATOM     13  C   UNL     1      44.341   2.733   9.847  0.00  0.00    +0.000 A 
ATOM     14  C   UNL     1      44.518   4.060   9.462  0.00  0.00    +0.000 A 
ATOM     15  N   UNL     1      45.313   4.404   8.416  0.00  0.00    +0.000 NA
ENDBRANCH   8  14
ENDBRANCH   2   8
ENDBRANCH   1   5
BRANCH   1  16
ATOM     16  N   UNL     1      47.729   7.531  14.871  0.00  0.00    +0.000 N 
ATOM     17  C   UNL     1      48.955   6.932  15.010  0.00  0.00    +0.000 C 
ATOM     18  O   UNL     1      49.845   7.068  14.176  0.00  0.00    +0.000 OA
ATOM     19  H   UNL     1      46.949   7.216  15.440  0.00  0.00    +0.000 HD
BRANCH  17  20
ATOM     20  C   UNL     1      49.173   6.164  16.242  0.00  0.00    +0.000 A 
ATOM     21  C   UNL     1      50.189   6.538  17.113  0.00  0.00    +0.000 A 
ATOM     22  S   UNL     1      50.290   5.560  18.507  0.00  0.00    +0.000 S 
ATOM     23  C   UNL     1      49.009   4.574  17.975  0.00  0.00    +0.000 A 
ATOM     24  N   UNL     1      48.601   3.503  18.704  0.00  0.00    +0.000 NA
ATOM     25  C   UNL     1      47.640   2.827  18.169  0.00  0.00    +0.000 A 
ATOM     26  N   UNL     1      47.042   3.132  16.974  0.00  0.00    +0.000 N 
ATOM     27  C   UNL     1      47.403   4.220  16.216  0.00  0.00    +0.000 A 
ATOM     28  O   UNL     1      46.815   4.491  15.171  0.00  0.00    +0.000 OA
ATOM     29  C   UNL     1      48.494   5.001  16.761  0.00  0.00    +0.000 A 
ATOM     30  H   UNL     1      46.282   2.572  16.618  0.00  0.00    +0.000 HD
ENDBRANCH  17  20
ENDBRANCH   1  16
TORSDOF 5
ENDMDL
MODEL 2
REMARK VINA RESULT:    -7.351      2.720      4.901
REMARK INTER + INTRA:         -10.493
REMARK INTER:                  -9.373
REMARK INTRA:                  -1.120
REMARK UNBOUND:                -0.994
REMARK  Name = 
REMARK  6 active torsions:
REMARK  status: ('A' for Active; 'I' for Inactive)
REMARK    1  A    between atoms: C_1  and  C_2
REMARK    2  A    between atoms: C_6  and  C_7
REMARK    3  A    between atoms: C_7  and  C_8
REMARK    4  A    between atoms: C_11  and  C_12
REMARK    5  A    between atoms: C_12  and  N_13
REMARK    6  A    between atoms: C_14  and  C_16
REMARK                            x       y       z     vdW  Elec       q    Type
REMARK                         _______ _______ _______ _____ _____    ______ ____
ROOT
ATOM      1  C   UNL     1      47.211   5.446  14.392  0.00  0.00    +0.000 C 
ENDROOT
BRANCH   1   5
ATOM      2  C   UNL     1      45.020   4.026  10.941  0.00  0.00    +0.000 A 
ATOM      3  C   UNL     1      45.379   5.377  11.048  0.00  0.00    +0.000 A 
ATOM      4  C   UNL     1      46.070   5.843  12.170  0.00  0.00    +0.000 A 
ATOM      5  C   UNL     1      46.409   4.969  13.210  0.00  0.00    +0.000 A 
ATOM      6  C   UNL     1      45.984   3.636  13.136  0.00  0.00    +0.000 A 
ATOM      7  C   UNL     1      45.307   3.166  12.007  0.00  0.00    +0.000 A 
BRANCH   2   8
ATOM      8  C   UNL     1      44.375   3.497   9.677  0.00  0.00    +0.000 C 
BRANCH   8  14
ATOM      9  C   UNL     1      46.808  -0.230   7.677  0.00  0.00    +0.000 C 
ATOM     10  C   UNL     1      46.481   1.232   7.639  0.00  0.00    +0.000 A 
ATOM     11  C   UNL     1      47.019   2.055   6.656  0.00  0.00    +0.000 A 
ATOM     12  C   UNL     1      46.709   3.408   6.677  0.00  0.00    +0.000 A 
ATOM     13  C   UNL     1      45.868   3.900   7.669  0.00  0.00    +0.000 A 
ATOM     14  C   UNL     1      45.353   3.021   8.620  0.00  0.00    +0.000 A 
ATOM     15  N   UNL     1      45.653   1.696   8.609  0.00  0.00    +0.000 NA
ENDBRANCH   8  14
ENDBRANCH   2   8
ENDBRANCH   1   5
BRANCH   1  16
ATOM     16  N   UNL     1      47.546   6.842  14.279  0.00  0.00    +0.000 N 
ATOM     17  C   UNL     1      48.759   7.311  14.711  0.00  0.00    +0.000 C 
ATOM     18  O   UNL     1      49.627   6.565  15.156  0.00  0.00    +0.000 OA
ATOM     19  H   UNL     1      46.776   7.490  14.142  0.00  0.00    +0.000 HD
BRANCH  17  20
ATOM     20  C   UNL     1      48.996   8.752  14.559  0.00  0.00    +0.000 A 
ATOM     21  C   UNL     1      49.216   9.535  15.685  0.00  0.00    +0.000 A 
ATOM     22  S   UNL     1      49.501  11.179  15.331  0.00  0.00    +0.000 S 
ATOM     23  C   UNL     1      49.296  10.912  13.663  0.00  0.00    +0.000 A 
ATOM     24  N   UNL     1      49.379  11.938  12.775  0.00  0.00    +0.000 NA
ATOM     25  C   UNL     1      49.176  11.598  11.546  0.00  0.00    +0.000 A 
ATOM     26  N   UNL     1      48.906  10.322  11.124  0.00  0.00    +0.000 N 
ATOM     27  C   UNL     1      48.839   9.251  11.981  0.00  0.00    +0.000 A 
ATOM     28  O   UNL     1      48.641   8.112  11.564  0.00  0.00    +0.000 OA
ATOM     29  C   UNL     1      49.039   9.581  13.377  0.00  0.00    +0.000 A 
ATOM     30  H   UNL     1      48.773  10.119  10.144  0.00  0.00    +0.000 HD
ENDBRANCH  17  20
ENDBRANCH   1  16
TORSDOF 5
ENDMDL
MODEL 3
REMARK VINA RESULT:    -7.317      1.934      2.360
REMARK INTER + INTRA:         -10.450
REMARK INTER:                  -9.738
REMARK INTRA:                  -0.713
REMARK UNBOUND:                -0.994
REMARK  Name = 
REMARK  6 active torsions:
REMARK  status: ('A' for Active; 'I' for Inactive)
REMARK    1  A    between atoms: C_1  and  C_2
REMARK    2  A    between atoms: C_6  and  C_7
REMARK    3  A    between atoms: C_7  and  C_8
REMARK    4  A    between atoms: C_11  and  C_12
REMARK    5  A    between atoms: C_12  and  N_13
REMARK    6  A    between atoms: C_14  and  C_16
REMARK                            x       y       z     vdW  Elec       q    Type
REMARK                         _______ _______ _______ _____ _____    ______ ____
ROOT
ATOM      1  C   UNL     1      48.736   6.718  14.104  0.00  0.00    +0.000 C 
ENDROOT
BRANCH   1   5
ATOM      2  C   UNL     1      45.400   5.619  11.575  0.00  0.00    +0.000 A 
ATOM      3  C   UNL     1      46.156   6.767  11.295  0.00  0.00    +0.000 A 
ATOM      4  C   UNL     1      47.223   7.135  12.121  0.00  0.00    +0.000 A 
ATOM      5  C   UNL     1      47.549   6.368  13.246  0.00  0.00    +0.000 A 
ATOM      6  C   UNL     1      46.746   5.265  13.565  0.00  0.00    +0.000 A 
ATOM      7  C   UNL     1      45.690   4.886  12.731  0.00  0.00    +0.000 A 
BRANCH   2   8
ATOM      8  C   UNL     1      44.321   5.155  10.620  0.00  0.00    +0.000 C 
BRANCH   8  14
ATOM      9  C   UNL     1      46.773   3.848   6.608  0.00  0.00    +0.000 C 
ATOM     10  C   UNL     1      45.951   3.415   7.785  0.00  0.00    +0.000 A 
ATOM     11  C   UNL     1      45.660   2.072   7.992  0.00  0.00    +0.000 A 
ATOM     12  C   UNL     1      44.872   1.722   9.081  0.00  0.00    +0.000 A 
ATOM     13  C   UNL     1      44.408   2.716   9.935  0.00  0.00    +0.000 A 
ATOM     14  C   UNL     1      44.745   4.044   9.678  0.00  0.00    +0.000 A 
ATOM     15  N   UNL     1      45.511   4.396   8.613  0.00  0.00    +0.000 NA
ENDBRANCH   8  14
ENDBRANCH   2   8
ENDBRANCH   1   5
BRANCH   1  16
ATOM     16  N   UNL     1      48.353   6.950  15.471  0.00  0.00    +0.000 N 
ATOM     17  C   UNL     1      49.155   6.541  16.506  0.00  0.00    +0.000 C 
ATOM     18  O   UNL     1      50.248   6.015  16.315  0.00  0.00    +0.000 OA
ATOM     19  H   UNL     1      47.375   7.159  15.647  0.00  0.00    +0.000 HD
BRANCH  17  20
ATOM     20  C   UNL     1      48.667   6.818  17.863  0.00  0.00    +0.000 A 
ATOM     21  C   UNL     1      48.248   8.100  18.193  0.00  0.00    +0.000 A 
ATOM     22  S   UNL     1      47.688   8.245  19.797  0.00  0.00    +0.000 S 
ATOM     23  C   UNL     1      48.027   6.609  20.122  0.00  0.00    +0.000 A 
ATOM     24  N   UNL     1      47.807   6.080  21.354  0.00  0.00    +0.000 NA
ATOM     25  C   UNL     1      48.136   4.837  21.468  0.00  0.00    +0.000 A 
ATOM     26  N   UNL     1      48.656   4.071  20.456  0.00  0.00    +0.000 N 
ATOM     27  C   UNL     1      48.871   4.556  19.189  0.00  0.00    +0.000 A 
ATOM     28  O   UNL     1      49.296   3.830  18.293  0.00  0.00    +0.000 OA
ATOM     29  C   UNL     1      48.539   5.954  19.013  0.00  0.00    +0.000 A 
ATOM     30  H   UNL     1      48.877   3.098  20.606  0.00  0.00    +0.000 HD
ENDBRANCH  17  20
ENDBRANCH   1  16
TORSDOF 5
ENDMDL
MODEL 4
REMARK VINA RESULT:    -7.254      4.353      9.137
REMARK INTER + INTRA:         -10.369
REMARK INTER:                  -9.662
REMARK INTRA:                  -0.707
REMARK UNBOUND:                -0.994
REMARK  Name = 
REMARK  6 active torsions:
REMARK  status: ('A' for Active; 'I' for Inactive)
REMARK    1  A    between atoms: C_1  and  C_2
REMARK    2  A    between atoms: C_6  and  C_7
REMARK    3  A    between atoms: C_7  and  C_8
REMARK    4  A    between atoms: C_11  and  C_12
REMARK    5  A    between atoms: C_12  and  N_13
REMARK    6  A    between atoms: C_14  and  C_16
REMARK                            x       y       z     vdW  Elec       q    Type
REMARK                         _______ _______ _______ _____ _____    ______ ____
ROOT
ATOM      1  C   UNL     1      47.592   3.312  17.027  0.00  0.00    +0.000 C 
ENDROOT
BRANCH   1   5
ATOM      2  C   UNL     1      51.812   2.917  17.905  0.00  0.00    +0.000 A 
ATOM      3  C   UNL     1      51.147   4.129  18.140  0.00  0.00    +0.000 A 
ATOM      4  C   UNL     1      49.788   4.266  17.841  0.00  0.00    +0.000 A 
ATOM      5  C   UNL     1      49.070   3.197  17.292  0.00  0.00    +0.000 A 
ATOM      6  C   UNL     1      49.753   2.012  16.987  0.00  0.00    +0.000 A 
ATOM      7  C   UNL     1      51.107   1.868  17.302  0.00  0.00    +0.000 A 
BRANCH   2   8
ATOM      8  C   UNL     1      53.251   2.730  18.335  0.00  0.00    +0.000 C 
BRANCH   8  14
ATOM      9  C   UNL     1      53.796  -2.044  19.186  0.00  0.00    +0.000 C 
ATOM     10  C   UNL     1      54.097  -0.875  18.297  0.00  0.00    +0.000 A 
ATOM     11  C   UNL     1      54.857  -1.038  17.144  0.00  0.00    +0.000 A 
ATOM     12  C   UNL     1      55.133   0.078  16.366  0.00  0.00    +0.000 A 
ATOM     13  C   UNL     1      54.637   1.319  16.752  0.00  0.00    +0.000 A 
ATOM     14  C   UNL     1      53.872   1.413  17.913  0.00  0.00    +0.000 A 
ATOM     15  N   UNL     1      53.600   0.327  18.683  0.00  0.00    +0.000 NA
ENDBRANCH   8  14
ENDBRANCH   2   8
ENDBRANCH   1   5
BRANCH   1  16
ATOM     16  N   UNL     1      47.298   4.384  16.113  0.00  0.00    +0.000 N 
ATOM     17  C   UNL     1      47.236   4.159  14.761  0.00  0.00    +0.000 C 
ATOM     18  O   UNL     1      47.371   3.037  14.280  0.00  0.00    +0.000 OA
ATOM     19  H   UNL     1      47.419   5.331  16.458  0.00  0.00    +0.000 HD
BRANCH  17  20
ATOM     20  C   UNL     1      46.939   5.322  13.915  0.00  0.00    +0.000 A 
ATOM     21  C   UNL     1      47.855   6.363  13.833  0.00  0.00    +0.000 A 
ATOM     22  S   UNL     1      47.368   7.621  12.789  0.00  0.00    +0.000 S 
ATOM     23  C   UNL     1      45.896   6.840  12.444  0.00  0.00    +0.000 A 
ATOM     24  N   UNL     1      44.977   7.411  11.622  0.00  0.00    +0.000 NA
ATOM     25  C   UNL     1      43.895   6.722  11.470  0.00  0.00    +0.000 A 
ATOM     26  N   UNL     1      43.654   5.508  12.060  0.00  0.00    +0.000 N 
ATOM     27  C   UNL     1      44.564   4.881  12.876  0.00  0.00    +0.000 A 
ATOM     28  O   UNL     1      44.334   3.772  13.352  0.00  0.00    +0.000 OA
ATOM     29  C   UNL     1      45.788   5.623  13.097  0.00  0.00    +0.000 A 
ATOM     30  H   UNL     1      42.792   5.012  11.887  0.00  0.00    +0.000 HD
ENDBRANCH  17  20
ENDBRANCH   1  16
TORSDOF 5
ENDMDL
MODEL 5
REMARK VINA RESULT:    -7.034      2.449      3.173
REMARK INTER + INTRA:         -10.084
REMARK INTER:                  -9.113
REMARK INTRA:                  -0.971
REMARK UNBOUND:                -0.994
REMARK  Name = 
REMARK  6 active torsions:
REMARK  status: ('A' for Active; 'I' for Inactive)
REMARK    1  A    between atoms: C_1  and  C_2
REMARK    2  A    between atoms: C_6  and  C_7
REMARK    3  A    between atoms: C_7  and  C_8
REMARK    4  A    between atoms: C_11  and  C_12
REMARK    5  A    between atoms: C_12  and  N_13
REMARK    6  A    between atoms: C_14  and  C_16
REMARK                            x       y       z     vdW  Elec       q    Type
REMARK                         _______ _______ _______ _____ _____    ______ ____
ROOT
ATOM      1  C   UNL     1      48.627   6.847  14.170  0.00  0.00    +0.000 C 
ENDROOT
BRANCH   1   5
ATOM      2  C   UNL     1      45.355   5.660  11.597  0.00  0.00    +0.000 A 
ATOM      3  C   UNL     1      46.032   6.868  11.375  0.00  0.00    +0.000 A 
ATOM      4  C   UNL     1      47.078   7.264  12.215  0.00  0.00    +0.000 A 
ATOM      5  C   UNL     1      47.460   6.463  13.298  0.00  0.00    +0.000 A 
ATOM      6  C   UNL     1      46.734   5.295  13.563  0.00  0.00    +0.000 A 
ATOM      7  C   UNL     1      45.701   4.890  12.714  0.00  0.00    +0.000 A 
BRANCH   2   8
ATOM      8  C   UNL     1      44.304   5.175  10.622  0.00  0.00    +0.000 C 
BRANCH   8  14
ATOM      9  C   UNL     1      46.878   3.854   6.693  0.00  0.00    +0.000 C 
ATOM     10  C   UNL     1      46.025   3.425   7.848  0.00  0.00    +0.000 A 
ATOM     11  C   UNL     1      45.736   2.082   8.057  0.00  0.00    +0.000 A 
ATOM     12  C   UNL     1      44.919   1.735   9.125  0.00  0.00    +0.000 A 
ATOM     13  C   UNL     1      44.425   2.732   9.958  0.00  0.00    +0.000 A 
ATOM     14  C   UNL     1      44.761   4.060   9.701  0.00  0.00    +0.000 A 
ATOM     15  N   UNL     1      45.556   4.409   8.656  0.00  0.00    +0.000 NA
ENDBRANCH   8  14
ENDBRANCH   2   8
ENDBRANCH   1   5
BRANCH   1  16
ATOM     16  N   UNL     1      48.236   6.995  15.547  0.00  0.00    +0.000 N 
ATOM     17  C   UNL     1      48.860   6.280  16.536  0.00  0.00    +0.000 C 
ATOM     18  O   UNL     1      49.807   5.533  16.303  0.00  0.00    +0.000 OA
ATOM     19  H   UNL     1      47.326   7.410  15.725  0.00  0.00    +0.000 HD
BRANCH  17  20
ATOM     20  C   UNL     1      48.379   6.498  17.906  0.00  0.00    +0.000 A 
ATOM     21  C   UNL     1      48.166   5.408  18.741  0.00  0.00    +0.000 A 
ATOM     22  S   UNL     1      47.633   5.836  20.303  0.00  0.00    +0.000 S 
ATOM     23  C   UNL     1      47.625   7.491  19.907  0.00  0.00    +0.000 A 
ATOM     24  N   UNL     1      47.227   8.425  20.810  0.00  0.00    +0.000 NA
ATOM     25  C   UNL     1      47.244   9.638  20.367  0.00  0.00    +0.000 A 
ATOM     26  N   UNL     1      47.633  10.002  19.104  0.00  0.00    +0.000 N 
ATOM     27  C   UNL     1      48.067   9.096  18.167  0.00  0.00    +0.000 A 
ATOM     28  O   UNL     1      48.453   9.461  17.059  0.00  0.00    +0.000 OA
ATOM     29  C   UNL     1      48.048   7.716  18.606  0.00  0.00    +0.000 A 
ATOM     30  H   UNL     1      47.639  10.972  18.824  0.00  0.00    +0.000 HD
ENDBRANCH  17  20
ENDBRANCH   1  16
TORSDOF 5
ENDMDL
MODEL 6
REMARK VINA RESULT:    -6.972      3.747      9.660
REMARK INTER + INTRA:         -10.005
REMARK INTER:                  -9.116
REMARK INTRA:                  -0.889
REMARK UNBOUND:                -0.994
REMARK  Name = 
REMARK  6 active torsions:
REMARK  status: ('A' for Active; 'I' for Inactive)
REMARK    1  A    between atoms: C_1  and  C_2
REMARK    2  A    between atoms: C_6  and  C_7
REMARK    3  A    between atoms: C_7  and  C_8
REMARK    4  A    between atoms: C_11  and  C_12
REMARK    5  A    between atoms: C_12  and  N_13
REMARK    6  A    between atoms: C_14  and  C_16
REMARK                            x       y       z     vdW  Elec       q    Type
REMARK                         _______ _______ _______ _____ _____    ______ ____
ROOT
ATOM      1  C   UNL     1      47.276   3.400  16.822  0.00  0.00    +0.000 C 
ENDROOT
BRANCH   1   5
ATOM      2  C   UNL     1      51.488   3.931  17.664  0.00  0.00    +0.000 A 
ATOM      3  C   UNL     1      50.962   2.649  17.453  0.00  0.00    +0.000 A 
ATOM      4  C   UNL     1      49.598   2.471  17.199  0.00  0.00    +0.000 A 
ATOM      5  C   UNL     1      48.734   3.573  17.160  0.00  0.00    +0.000 A 
ATOM      6  C   UNL     1      49.248   4.844  17.445  0.00  0.00    +0.000 A 
ATOM      7  C   UNL     1      50.614   5.024  17.682  0.00  0.00    +0.000 A 
BRANCH   2   8
ATOM      8  C   UNL     1      52.980   4.136  17.822  0.00  0.00    +0.000 C 
BRANCH   8  14
ATOM      9  C   UNL     1      54.021   7.182  21.489  0.00  0.00    +0.000 C 
ATOM     10  C   UNL     1      53.903   5.764  21.018  0.00  0.00    +0.000 A 
ATOM     11  C   UNL     1      54.163   4.705  21.881  0.00  0.00    +0.000 A 
ATOM     12  C   UNL     1      54.068   3.409  21.392  0.00  0.00    +0.000 A 
ATOM     13  C   UNL     1      53.706   3.206  20.065  0.00  0.00    +0.000 A 
ATOM     14  C   UNL     1      53.446   4.309  19.255  0.00  0.00    +0.000 A 
ATOM     15  N   UNL     1      53.542   5.581  19.723  0.00  0.00    +0.000 NA
ENDBRANCH   8  14
ENDBRANCH   2   8
ENDBRANCH   1   5
BRANCH   1  16
ATOM     16  N   UNL     1      46.828   4.392  15.880  0.00  0.00    +0.000 N 
ATOM     17  C   UNL     1      46.896   4.161  14.530  0.00  0.00    +0.000 C 
ATOM     18  O   UNL     1      47.283   3.091  14.070  0.00  0.00    +0.000 OA
ATOM     19  H   UNL     1      46.734   5.343  16.222  0.00  0.00    +0.000 HD
BRANCH  17  20
ATOM     20  C   UNL     1      46.422   5.241  13.656  0.00  0.00    +0.000 A 
ATOM     21  C   UNL     1      47.220   6.360  13.451  0.00  0.00    +0.000 A 
ATOM     22  S   UNL     1      46.534   7.505  12.390  0.00  0.00    +0.000 S 
ATOM     23  C   UNL     1      45.126   6.568  12.200  0.00  0.00    +0.000 A 
ATOM     24  N   UNL     1      44.096   7.002  11.427  0.00  0.00    +0.000 NA
ATOM     25  C   UNL     1      43.080   6.205  11.395  0.00  0.00    +0.000 A 
ATOM     26  N   UNL     1      43.006   5.008  12.059  0.00  0.00    +0.000 N 
ATOM     27  C   UNL     1      44.032   4.518  12.830  0.00  0.00    +0.000 A 
ATOM     28  O   UNL     1      43.950   3.419  13.375  0.00  0.00    +0.000 OA
ATOM     29  C   UNL     1      45.189   5.384  12.918  0.00  0.00    +0.000 A 
ATOM     30  H   UNL     1      42.188   4.422  11.979  0.00  0.00    +0.000 HD
ENDBRANCH  17  20
ENDBRANCH   1  16
TORSDOF 5
ENDMDL
MODEL 7
REMARK VINA RESULT:    -6.945      3.417      8.076
REMARK INTER + INTRA:          -9.969
REMARK INTER:                  -9.158
REMARK INTRA:                  -0.811
REMARK UNBOUND:                -0.994
REMARK  Name = 
REMARK  6 active torsions:
REMARK  status: ('A' for Active; 'I' for Inactive)
REMARK    1  A    between atoms: C_1  and  C_2
REMARK    2  A    between atoms: C_6  and  C_7
REMARK    3  A    between atoms: C_7  and  C_8
REMARK    4  A    between atoms: C_11  and  C_12
REMARK    5  A    between atoms: C_12  and  N_13
REMARK    6  A    between atoms: C_14  and  C_16
REMARK                            x       y       z     vdW  Elec       q    Type
REMARK                         _______ _______ _______ _____ _____    ______ ____
ROOT
ATOM      1  C   UNL     1      48.227   7.438  13.140  0.00  0.00    +0.000 C 
ENDROOT
BRANCH   1   5
ATOM      2  C   UNL     1      49.752   5.837  16.861  0.00  0.00    +0.000 A 
ATOM      3  C   UNL     1      48.503   5.429  16.371  0.00  0.00    +0.000 A 
ATOM      4  C   UNL     1      47.999   5.958  15.179  0.00  0.00    +0.000 A 
ATOM      5  C   UNL     1      48.730   6.910  14.459  0.00  0.00    +0.000 A 
ATOM      6  C   UNL     1      49.942   7.372  14.988  0.00  0.00    +0.000 A 
ATOM      7  C   UNL     1      50.455   6.831  16.170  0.00  0.00    +0.000 A 
BRANCH   2   8
ATOM      8  C   UNL     1      50.351   5.181  18.087  0.00  0.00    +0.000 C 
BRANCH   8  14
ATOM      9  C   UNL     1      54.196   2.199  18.457  0.00  0.00    +0.000 C 
ATOM     10  C   UNL     1      52.760   2.367  18.062  0.00  0.00    +0.000 A 
ATOM     11  C   UNL     1      52.031   1.296  17.558  0.00  0.00    +0.000 A 
ATOM     12  C   UNL     1      50.712   1.506  17.180  0.00  0.00    +0.000 A 
ATOM     13  C   UNL     1      50.155   2.772  17.323  0.00  0.00    +0.000 A 
ATOM     14  C   UNL     1      50.935   3.802  17.845  0.00  0.00    +0.000 A 
ATOM     15  N   UNL     1      52.228   3.606  18.214  0.00  0.00    +0.000 NA
ENDBRANCH   8  14
ENDBRANCH   2   8
ENDBRANCH   1   5
BRANCH   1  16
ATOM     16  N   UNL     1      47.507   6.431  12.406  0.00  0.00    +0.000 N 
ATOM     17  C   UNL     1      46.368   6.748  11.710  0.00  0.00    +0.000 C 
ATOM     18  O   UNL     1      45.948   7.899  11.636  0.00  0.00    +0.000 OA
ATOM     19  H   UNL     1      47.695   5.462  12.645  0.00  0.00    +0.000 HD
BRANCH  17  20
ATOM     20  C   UNL     1      45.704   5.646  11.002  0.00  0.00    +0.000 A 
ATOM     21  C   UNL     1      45.788   5.570   9.618  0.00  0.00    +0.000 A 
ATOM     22  S   UNL     1      44.986   4.217   8.957  0.00  0.00    +0.000 S 
ATOM     23  C   UNL     1      44.461   3.709  10.494  0.00  0.00    +0.000 A 
ATOM     24  N   UNL     1      43.681   2.605  10.637  0.00  0.00    +0.000 NA
ATOM     25  C   UNL     1      43.333   2.351  11.854  0.00  0.00    +0.000 A 
ATOM     26  N   UNL     1      43.702   3.098  12.944  0.00  0.00    +0.000 N 
ATOM     27  C   UNL     1      44.510   4.205  12.850  0.00  0.00    +0.000 A 
ATOM     28  O   UNL     1      44.860   4.824  13.852  0.00  0.00    +0.000 OA
ATOM     29  C   UNL     1      44.912   4.546  11.501  0.00  0.00    +0.000 A 
ATOM     30  H   UNL     1      43.410   2.836  13.873  0.00  0.00    +0.000 HD
ENDBRANCH  17  20
ENDBRANCH   1  16
TORSDOF 5
ENDMDL
MODEL 8
REMARK VINA RESULT:    -6.775      4.069      9.180
REMARK INTER + INTRA:          -9.750
REMARK INTER:                  -8.644
REMARK INTRA:                  -1.106
REMARK UNBOUND:                -0.994
REMARK  Name = 
REMARK  6 active torsions:
REMARK  status: ('A' for Active; 'I' for Inactive)
REMARK    1  A    between atoms: C_1  and  C_2
REMARK    2  A    between atoms: C_6  and  C_7
REMARK    3  A    between atoms: C_7  and  C_8
REMARK    4  A    between atoms: C_11  and  C_12
REMARK    5  A    between atoms: C_12  and  N_13
REMARK    6  A    between atoms: C_14  and  C_16
REMARK                            x       y       z     vdW  Elec       q    Type
REMARK                         _______ _______ _______ _____ _____    ______ ____
ROOT
ATOM      1  C   UNL     1      47.868   4.166  16.106  0.00  0.00    +0.000 C 
ENDROOT
BRANCH   1   5
ATOM      2  C   UNL     1      48.335   7.020  19.327  0.00  0.00    +0.000 A 
ATOM      3  C   UNL     1      49.348   6.855  18.371  0.00  0.00    +0.000 A 
ATOM      4  C   UNL     1      49.209   5.921  17.340  0.00  0.00    +0.000 A 
ATOM      5  C   UNL     1      48.058   5.128  17.250  0.00  0.00    +0.000 A 
ATOM      6  C   UNL     1      47.081   5.242  18.248  0.00  0.00    +0.000 A 
ATOM      7  C   UNL     1      47.212   6.187  19.269  0.00  0.00    +0.000 A 
BRANCH   2   8
ATOM      8  C   UNL     1      48.432   8.110  20.373  0.00  0.00    +0.000 C 
BRANCH   8  14
ATOM      9  C   UNL     1      44.775  11.082  21.637  0.00  0.00    +0.000 C 
ATOM     10  C   UNL     1      45.905  10.798  20.695  0.00  0.00    +0.000 A 
ATOM     11  C   UNL     1      46.194  11.668  19.650  0.00  0.00    +0.000 A 
ATOM     12  C   UNL     1      47.233  11.350  18.786  0.00  0.00    +0.000 A 
ATOM     13  C   UNL     1      47.959  10.182  18.993  0.00  0.00    +0.000 A 
ATOM     14  C   UNL     1      47.626   9.357  20.065  0.00  0.00    +0.000 A 
ATOM     15  N   UNL     1      46.608   9.658  20.913  0.00  0.00    +0.000 NA
ENDBRANCH   8  14
ENDBRANCH   2   8
ENDBRANCH   1   5
BRANCH   1  16
ATOM     16  N   UNL     1      46.917   4.662  15.147  0.00  0.00    +0.000 N 
ATOM     17  C   UNL     1      47.315   5.477  14.118  0.00  0.00    +0.000 C 
ATOM     18  O   UNL     1      48.494   5.770  13.937  0.00  0.00    +0.000 OA
ATOM     19  H   UNL     1      45.937   4.630  15.410  0.00  0.00    +0.000 HD
BRANCH  17  20
ATOM     20  C   UNL     1      46.265   5.935  13.200  0.00  0.00    +0.000 A 
ATOM     21  C   UNL     1      46.095   7.295  12.975  0.00  0.00    +0.000 A 
ATOM     22  S   UNL     1      44.851   7.654  11.864  0.00  0.00    +0.000 S 
ATOM     23  C   UNL     1      44.466   6.008  11.678  0.00  0.00    +0.000 A 
ATOM     24  N   UNL     1      43.445   5.615  10.872  0.00  0.00    +0.000 NA
ATOM     25  C   UNL     1      43.245   4.339  10.846  0.00  0.00    +0.000 A 
ATOM     26  N   UNL     1      43.981   3.419  11.548  0.00  0.00    +0.000 N 
ATOM     27  C   UNL     1      45.038   3.768  12.353  0.00  0.00    +0.000 A 
ATOM     28  O   UNL     1      45.706   2.914  12.932  0.00  0.00    +0.000 OA
ATOM     29  C   UNL     1      45.292   5.192  12.435  0.00  0.00    +0.000 A 
ATOM     30  H   UNL     1      43.785   2.433  11.471  0.00  0.00    +0.000 HD
ENDBRANCH  17  20
ENDBRANCH   1  16
TORSDOF 5
ENDMDL
MODEL 9
REMARK VINA RESULT:    -6.732      1.585      2.309
REMARK INTER + INTRA:          -9.694
REMARK INTER:                  -8.450
REMARK INTRA:                  -1.244
REMARK UNBOUND:                -0.994
REMARK  Name = 
REMARK  6 active torsions:
REMARK  status: ('A' for Active; 'I' for Inactive)
REMARK    1  A    between atoms: C_1  and  C_2
REMARK    2  A    between atoms: C_6  and  C_7
REMARK    3  A    between atoms: C_7  and  C_8
REMARK    4  A    between atoms: C_11  and  C_12
REMARK    5  A    between atoms: C_12  and  N_13
REMARK    6  A    between atoms: C_14  and  C_16
REMARK                            x       y       z     vdW  Elec       q    Type
REMARK                         _______ _______ _______ _____ _____    ______ ____
ROOT
ATOM      1  C   UNL     1      49.253   8.473  14.020  0.00  0.00    +0.000 C 
ENDROOT
BRANCH   1   5
ATOM      2  C   UNL     1      45.713   7.382  11.781  0.00  0.00    +0.000 A 
ATOM      3  C   UNL     1      46.858   6.574  11.739  0.00  0.00    +0.000 A 
ATOM      4  C   UNL     1      48.010   6.932  12.446  0.00  0.00    +0.000 A 
ATOM      5  C   UNL     1      48.042   8.111  13.202  0.00  0.00    +0.000 A 
ATOM      6  C   UNL     1      46.923   8.955  13.182  0.00  0.00    +0.000 A 
ATOM      7  C   UNL     1      45.766   8.588  12.490  0.00  0.00    +0.000 A 
BRANCH   2   8
ATOM      8  C   UNL     1      44.430   6.938  11.113  0.00  0.00    +0.000 C 
BRANCH   8  14
ATOM      9  C   UNL     1      44.532   2.417   9.279  0.00  0.00    +0.000 C 
ATOM     10  C   UNL     1      44.184   3.305  10.435  0.00  0.00    +0.000 A 
ATOM     11  C   UNL     1      43.641   2.774  11.599  0.00  0.00    +0.000 A 
ATOM     12  C   UNL     1      43.309   3.639  12.634  0.00  0.00    +0.000 A 
ATOM     13  C   UNL     1      43.538   5.002  12.484  0.00  0.00    +0.000 A 
ATOM     14  C   UNL     1      44.097   5.470  11.296  0.00  0.00    +0.000 A 
ATOM     15  N   UNL     1      44.420   4.632  10.276  0.00  0.00    +0.000 NA
ENDBRANCH   8  14
ENDBRANCH   2   8
ENDBRANCH   1   5
BRANCH   1  16
ATOM     16  N   UNL     1      49.346   7.675  15.214  0.00  0.00    +0.000 N 
ATOM     17  C   UNL     1      48.779   8.099  16.389  0.00  0.00    +0.000 C 
ATOM     18  O   UNL     1      48.126   9.137  16.461  0.00  0.00    +0.000 OA
ATOM     19  H   UNL     1      50.063   6.957  15.234  0.00  0.00    +0.000 HD
BRANCH  17  20
ATOM     20  C   UNL     1      48.939   7.216  17.551  0.00  0.00    +0.000 A 
ATOM     21  C   UNL     1      49.392   7.740  18.755  0.00  0.00    +0.000 A 
ATOM     22  S   UNL     1      49.496   6.586  20.007  0.00  0.00    +0.000 S 
ATOM     23  C   UNL     1      48.983   5.336  18.973  0.00  0.00    +0.000 A 
ATOM     24  N   UNL     1      48.885   4.056  19.418  0.00  0.00    +0.000 NA
ATOM     25  C   UNL     1      48.511   3.205  18.520  0.00  0.00    +0.000 A 
ATOM     26  N   UNL     1      48.216   3.522  17.220  0.00  0.00    +0.000 N 
ATOM     27  C   UNL     1      48.275   4.806  16.733  0.00  0.00    +0.000 A 
ATOM     28  O   UNL     1      47.959   5.062  15.573  0.00  0.00    +0.000 OA
ATOM     29  C   UNL     1      48.711   5.797  17.695  0.00  0.00    +0.000 A 
ATOM     30  H   UNL     1      47.913   2.812  16.570  0.00  0.00    +0.000 HD
ENDBRANCH  17  20
ENDBRANCH   1  16
TORSDOF 5
ENDMDL
