MODEL 1
REMARK VINA RESULT:    -8.180      0.000      0.000
REMARK INTER + INTRA:         -12.733
REMARK INTER:                 -11.528
REMARK INTRA:                  -1.205
REMARK UNBOUND:                -1.205
REMARK  Name = 
REMARK  7 active torsions:
REMARK  status: ('A' for Active; 'I' for Inactive)
REMARK    1  A    between atoms: C_2  and  C_4
REMARK    2  A    between atoms: C_8  and  C_9
REMARK    3  A    between atoms: C_9  and  O_10
REMARK    4  A    between atoms: O_10  and  C_11
REMARK    5  A    between atoms: C_14  and  C_15
REMARK    6  A    between atoms: C_15  and  N_16
REMARK    7  A    between atoms: C_17  and  C_19
REMARK                            x       y       z     vdW  Elec       q    Type
REMARK                         _______ _______ _______ _____ _____    ______ ____
ROOT
ATOM      1  C   UNL     1      44.561   5.173  10.993  0.00  0.00    +0.000 A 
ATOM      2  C   UNL     1      45.655   5.757  10.376  0.00  0.00    +0.000 A 
ATOM      3  C   UNL     1      46.399   6.697  11.093  0.00  0.00    +0.000 A 
ATOM      4  C   UNL     1      46.003   7.044  12.388  0.00  0.00    +0.000 A 
ATOM      5  C   UNL     1      44.877   6.412  12.900  0.00  0.00    +0.000 A 
ATOM      6  N   UNL     1      44.146   5.493  12.233  0.00  0.00    +0.000 NA
ENDROOT
BRANCH   1   7
ATOM      7  O   UNL     1      43.838   4.244  10.269  0.00  0.00    +0.000 OA
BRANCH   7   8
ATOM      8  C   UNL     1      44.096   4.370   8.867  0.00  0.00    +0.000 C 
BRANCH   8  13
ATOM      9  C   UNL     1      46.682   2.290   6.971  0.00  0.00    +0.000 A 
ATOM     10  C   UNL     1      46.570   1.055   7.620  0.00  0.00    +0.000 A 
ATOM     11  C   UNL     1      45.629   0.884   8.635  0.00  0.00    +0.000 A 
ATOM     12  C   UNL     1      44.810   1.949   9.016  0.00  0.00    +0.000 A 
ATOM     13  C   UNL     1      44.916   3.196   8.383  0.00  0.00    +0.000 A 
ATOM     14  C   UNL     1      45.851   3.355   7.349  0.00  0.00    +0.000 A 
BRANCH   9  16
ATOM     15  N   UNL     1      49.015   2.669   6.367  0.00  0.00    +0.000 N 
ATOM     16  C   UNL     1      47.724   2.535   5.939  0.00  0.00    +0.000 C 
ATOM     17  O   UNL     1      47.447   2.609   4.748  0.00  0.00    +0.000 OA
ATOM     18  H   UNL     1      49.718   2.783   5.649  0.00  0.00    +0.000 HD
ATOM     19  H   UNL     1      49.318   2.394   7.290  0.00  0.00    +0.000 HD
ENDBRANCH   9  16
ENDBRANCH   8  13
ENDBRANCH   7   8
ENDBRANCH   1   7
BRANCH   4  20
ATOM     20  C   UNL     1      46.756   8.027  13.236  0.00  0.00    +0.000 C 
BRANCH  20  21
ATOM     21  N   UNL     1      47.347   7.435  14.409  0.00  0.00    +0.000 N 
ATOM     22  C   UNL     1      48.550   6.761  14.394  0.00  0.00    +0.000 C 
ATOM     23  O   UNL     1      49.256   6.658  13.400  0.00  0.00    +0.000 OA
ATOM     24  H   UNL     1      46.683   7.143  15.118  0.00  0.00    +0.000 HD
BRANCH  22  25
ATOM     25  C   UNL     1      48.975   6.219  15.688  0.00  0.00    +0.000 A 
ATOM     26  C   UNL     1      50.033   6.791  16.376  0.00  0.00    +0.000 A 
ATOM     27  S   UNL     1      50.332   6.061  17.890  0.00  0.00    +0.000 S 
ATOM     28  C   UNL     1      49.087   4.923  17.649  0.00  0.00    +0.000 A 
ATOM     29  N   UNL     1      48.811   3.972  18.582  0.00  0.00    +0.000 NA
ATOM     30  C   UNL     1      47.864   3.159  18.246  0.00  0.00    +0.000 A 
ATOM     31  N   UNL     1      47.169   3.209  17.068  0.00  0.00    +0.000 N 
ATOM     32  C   UNL     1      47.387   4.175  16.115  0.00  0.00    +0.000 A 
ATOM     33  O   UNL     1      46.703   4.240  15.099  0.00  0.00    +0.000 OA
ATOM     34  C   UNL     1      48.448   5.106  16.439  0.00  0.00    +0.000 A 
ATOM     35  H   UNL     1      46.431   2.549  16.872  0.00  0.00    +0.000 HD
ENDBRANCH  22  25
ENDBRANCH  20  21
ENDBRANCH   4  20
TORSDOF 7
ENDMDL
MODEL 2
REMARK VINA RESULT:    -7.945      2.178      2.649
REMARK INTER + INTRA:         -12.401
REMARK INTER:                 -11.884
REMARK INTRA:                  -0.517
REMARK UNBOUND:                -1.205
REMARK  Name = 
REMARK  7 active torsions:
REMARK  status: ('A' for Active; 'I' for Inactive)
REMARK    1  A    between atoms: C_2  and  C_4
REMARK    2  A    between atoms: C_8  and  C_9
REMARK    3  A    between atoms: C_9  and  O_10
REMARK    4  A    between atoms: O_10  and  C_11
REMARK    5  A    between atoms: C_14  and  C_15
REMARK    6  A    between atoms: C_15  and  N_16
REMARK    7  A    between atoms: C_17  and  C_19
REMARK                            x       y       z     vdW  Elec       q    Type
REMARK                         _______ _______ _______ _____ _____    ______ ____
ROOT
ATOM      1  C   UNL     1      44.643   4.460  12.201  0.00  0.00    +0.000 A 
ATOM      2  C   UNL     1      44.915   5.796  11.953  0.00  0.00    +0.000 A 
ATOM      3  C   UNL     1      46.056   6.360  12.527  0.00  0.00    +0.000 A 
ATOM      4  C   UNL     1      46.865   5.578  13.358  0.00  0.00    +0.000 A 
ATOM      5  C   UNL     1      46.485   4.256  13.555  0.00  0.00    +0.000 A 
ATOM      6  N   UNL     1      45.395   3.683  13.004  0.00  0.00    +0.000 NA
ENDROOT
BRANCH   1   7
ATOM      7  O   UNL     1      43.511   3.919  11.622  0.00  0.00    +0.000 OA
BRANCH   7   8
ATOM      8  C   UNL     1      43.805   2.672  10.985  0.00  0.00    +0.000 C 
BRANCH   8  13
ATOM      9  C   UNL     1      46.164   2.066   8.038  0.00  0.00    +0.000 A 
ATOM     10  C   UNL     1      46.082   3.291   7.365  0.00  0.00    +0.000 A 
ATOM     11  C   UNL     1      45.305   4.324   7.890  0.00  0.00    +0.000 A 
ATOM     12  C   UNL     1      44.594   4.131   9.075  0.00  0.00    +0.000 A 
ATOM     13  C   UNL     1      44.656   2.906   9.756  0.00  0.00    +0.000 A 
ATOM     14  C   UNL     1      45.455   1.879   9.233  0.00  0.00    +0.000 A 
BRANCH   9  16
ATOM     15  N   UNL     1      47.790   1.175   6.453  0.00  0.00    +0.000 N 
ATOM     16  C   UNL     1      46.918   0.916   7.472  0.00  0.00    +0.000 C 
ATOM     17  O   UNL     1      46.774  -0.222   7.901  0.00  0.00    +0.000 OA
ATOM     18  H   UNL     1      48.334   0.392   6.115  0.00  0.00    +0.000 HD
ATOM     19  H   UNL     1      48.107   2.106   6.225  0.00  0.00    +0.000 HD
ENDBRANCH   9  16
ENDBRANCH   8  13
ENDBRANCH   7   8
ENDBRANCH   1   7
BRANCH   4  20
ATOM     20  C   UNL     1      48.120   6.096  13.998  0.00  0.00    +0.000 C 
BRANCH  20  21
ATOM     21  N   UNL     1      47.962   6.407  15.396  0.00  0.00    +0.000 N 
ATOM     22  C   UNL     1      48.993   6.338  16.310  0.00  0.00    +0.000 C 
ATOM     23  O   UNL     1      50.147   6.068  16.008  0.00  0.00    +0.000 OA
ATOM     24  H   UNL     1      47.031   6.248  15.764  0.00  0.00    +0.000 HD
BRANCH  22  25
ATOM     25  C   UNL     1      48.626   6.680  17.687  0.00  0.00    +0.000 A 
ATOM     26  C   UNL     1      48.300   7.985  18.023  0.00  0.00    +0.000 A 
ATOM     27  S   UNL     1      47.838   8.169  19.656  0.00  0.00    +0.000 S 
ATOM     28  C   UNL     1      48.109   6.518  19.977  0.00  0.00    +0.000 A 
ATOM     29  N   UNL     1      47.912   6.000  21.219  0.00  0.00    +0.000 NA
ATOM     30  C   UNL     1      48.191   4.742  21.319  0.00  0.00    +0.000 A 
ATOM     31  N   UNL     1      48.647   3.956  20.295  0.00  0.00    +0.000 N 
ATOM     32  C   UNL     1      48.823   4.427  19.016  0.00  0.00    +0.000 A 
ATOM     33  O   UNL     1      49.165   3.687  18.100  0.00  0.00    +0.000 OA
ATOM     34  C   UNL     1      48.534   5.837  18.854  0.00  0.00    +0.000 A 
ATOM     35  H   UNL     1      48.836   2.975  20.437  0.00  0.00    +0.000 HD
ENDBRANCH  22  25
ENDBRANCH  20  21
ENDBRANCH   4  20
TORSDOF 7
ENDMDL
MODEL 3
REMARK VINA RESULT:    -7.533      2.383      2.904
REMARK INTER + INTRA:         -11.821
REMARK INTER:                 -11.034
REMARK INTRA:                  -0.787
REMARK UNBOUND:                -1.205
REMARK  Name = 
REMARK  7 active torsions:
REMARK  status: ('A' for Active; 'I' for Inactive)
REMARK    1  A    between atoms: C_2  and  C_4
REMARK    2  A    between atoms: C_8  and  C_9
REMARK    3  A    between atoms: C_9  and  O_10
REMARK    4  A    between atoms: O_10  and  C_11
REMARK    5  A    between atoms: C_14  and  C_15
REMARK    6  A    between atoms: C_15  and  N_16
REMARK    7  A    between atoms: C_17  and  C_19
REMARK                            x       y       z     vdW  Elec       q    Type
REMARK                         _______ _______ _______ _____ _____    ______ ____
ROOT
ATOM      1  C   UNL     1      45.121   5.216  11.553  0.00  0.00    +0.000 A 
ATOM      2  C   UNL     1      45.495   6.526  11.300  0.00  0.00    +0.000 A 
ATOM      3  C   UNL     1      46.516   7.086  12.070  0.00  0.00    +0.000 A 
ATOM      4  C   UNL     1      47.103   6.328  13.088  0.00  0.00    +0.000 A 
ATOM      5  C   UNL     1      46.636   5.033  13.269  0.00  0.00    +0.000 A 
ATOM      6  N   UNL     1      45.658   4.463  12.532  0.00  0.00    +0.000 NA
ENDROOT
BRANCH   1   7
ATOM      7  O   UNL     1      44.111   4.678  10.780  0.00  0.00    +0.000 OA
BRANCH   7   8
ATOM      8  C   UNL     1      44.369   3.302  10.481  0.00  0.00    +0.000 C 
BRANCH   8  13
ATOM      9  C   UNL     1      46.489   1.839   7.656  0.00  0.00    +0.000 A 
ATOM     10  C   UNL     1      46.793   2.989   6.919  0.00  0.00    +0.000 A 
ATOM     11  C   UNL     1      46.354   4.237   7.359  0.00  0.00    +0.000 A 
ATOM     12  C   UNL     1      45.596   4.338   8.527  0.00  0.00    +0.000 A 
ATOM     13  C   UNL     1      45.272   3.195   9.273  0.00  0.00    +0.000 A 
ATOM     14  C   UNL     1      45.735   1.946   8.834  0.00  0.00    +0.000 A 
BRANCH   9  16
ATOM     15  N   UNL     1      47.251   0.359   5.872  0.00  0.00    +0.000 N 
ATOM     16  C   UNL     1      46.872   0.483   7.179  0.00  0.00    +0.000 C 
ATOM     17  O   UNL     1      46.857  -0.489   7.924  0.00  0.00    +0.000 OA
ATOM     18  H   UNL     1      47.559  -0.558   5.577  0.00  0.00    +0.000 HD
ATOM     19  H   UNL     1      47.495   1.150   5.294  0.00  0.00    +0.000 HD
ENDBRANCH   9  16
ENDBRANCH   8  13
ENDBRANCH   7   8
ENDBRANCH   1   7
BRANCH   4  20
ATOM     20  C   UNL     1      48.221   6.843  13.948  0.00  0.00    +0.000 C 
BRANCH  20  21
ATOM     21  N   UNL     1      48.098   6.464  15.332  0.00  0.00    +0.000 N 
ATOM     22  C   UNL     1      49.181   6.232  16.155  0.00  0.00    +0.000 C 
ATOM     23  O   UNL     1      50.343   6.387  15.804  0.00  0.00    +0.000 OA
ATOM     24  H   UNL     1      47.251   5.955  15.560  0.00  0.00    +0.000 HD
BRANCH  22  25
ATOM     25  C   UNL     1      48.847   5.842  17.527  0.00  0.00    +0.000 A 
ATOM     26  C   UNL     1      49.035   4.536  17.952  0.00  0.00    +0.000 A 
ATOM     27  S   UNL     1      48.651   4.296  19.598  0.00  0.00    +0.000 S 
ATOM     28  C   UNL     1      48.172   5.920  19.780  0.00  0.00    +0.000 A 
ATOM     29  N   UNL     1      47.710   6.390  20.971  0.00  0.00    +0.000 NA
ATOM     30  C   UNL     1      47.353   7.632  20.948  0.00  0.00    +0.000 A 
ATOM     31  N   UNL     1      47.414   8.445  19.849  0.00  0.00    +0.000 N 
ATOM     32  C   UNL     1      47.909   8.026  18.638  0.00  0.00    +0.000 A 
ATOM     33  O   UNL     1      48.019   8.793  17.689  0.00  0.00    +0.000 OA
ATOM     34  C   UNL     1      48.314   6.635  18.608  0.00  0.00    +0.000 A 
ATOM     35  H   UNL     1      47.129   9.412  19.902  0.00  0.00    +0.000 HD
ENDBRANCH  22  25
ENDBRANCH  20  21
ENDBRANCH   4  20
TORSDOF 7
ENDMDL
MODEL 4
REMARK VINA RESULT:    -7.505      2.869      8.417
REMARK INTER + INTRA:         -11.781
REMARK INTER:                 -10.263
REMARK INTRA:                  -1.519
REMARK UNBOUND:                -1.205
REMARK  Name = 
REMARK  7 active torsions:
REMARK  status: ('A' for Active; 'I' for Inactive)
REMARK    1  A    between atoms: C_2  and  C_4
REMARK    2  A    between atoms: C_8  and  C_9
REMARK    3  A    between atoms: C_9  and  O_10
REMARK    4  A    between atoms: O_10  and  C_11
REMARK    5  A    between atoms: C_14  and  C_15
REMARK    6  A    between atoms: C_15  and  N_16
REMARK    7  A    between atoms: C_17  and  C_19
REMARK                            x       y       z     vdW  Elec       q    Type
REMARK                         _______ _______ _______ _____ _____    ______ ____
ROOT
ATOM      1  C   UNL     1      49.653   8.359  15.477  0.00  0.00    +0.000 A 
ATOM      2  C   UNL     1      50.304   7.665  14.469  0.00  0.00    +0.000 A 
ATOM      3  C   UNL     1      49.658   7.517  13.240  0.00  0.00    +0.000 A 
ATOM      4  C   UNL     1      48.370   8.037  13.074  0.00  0.00    +0.000 A 
ATOM      5  C   UNL     1      47.804   8.695  14.158  0.00  0.00    +0.000 A 
ATOM      6  N   UNL     1      48.410   8.862  15.353  0.00  0.00    +0.000 NA
ENDROOT
BRANCH   1   7
ATOM      7  O   UNL     1      50.309   8.498  16.685  0.00  0.00    +0.000 OA
BRANCH   7   8
ATOM      8  C   UNL     1      49.548   7.925  17.753  0.00  0.00    +0.000 C 
BRANCH   8  13
ATOM      9  C   UNL     1      48.594   4.274  17.139  0.00  0.00    +0.000 A 
ATOM     10  C   UNL     1      49.812   3.628  17.384  0.00  0.00    +0.000 A 
ATOM     11  C   UNL     1      50.923   4.366  17.791  0.00  0.00    +0.000 A 
ATOM     12  C   UNL     1      50.827   5.751  17.939  0.00  0.00    +0.000 A 
ATOM     13  C   UNL     1      49.617   6.416  17.687  0.00  0.00    +0.000 A 
ATOM     14  C   UNL     1      48.499   5.665  17.297  0.00  0.00    +0.000 A 
BRANCH   9  16
ATOM     15  N   UNL     1      47.299   3.378  15.276  0.00  0.00    +0.000 N 
ATOM     16  C   UNL     1      47.409   3.535  16.629  0.00  0.00    +0.000 C 
ATOM     17  O   UNL     1      46.562   3.075  17.385  0.00  0.00    +0.000 OA
ATOM     18  H   UNL     1      46.516   2.828  14.948  0.00  0.00    +0.000 HD
ATOM     19  H   UNL     1      48.069   3.534  14.641  0.00  0.00    +0.000 HD
ENDBRANCH   9  16
ENDBRANCH   8  13
ENDBRANCH   7   8
ENDBRANCH   1   7
BRANCH   4  20
ATOM     20  C   UNL     1      47.612   7.942  11.781  0.00  0.00    +0.000 C 
BRANCH  20  21
ATOM     21  N   UNL     1      46.863   6.719  11.647  0.00  0.00    +0.000 N 
ATOM     22  C   UNL     1      45.485   6.665  11.686  0.00  0.00    +0.000 C 
ATOM     23  O   UNL     1      44.771   7.654  11.776  0.00  0.00    +0.000 OA
ATOM     24  H   UNL     1      47.349   5.886  11.960  0.00  0.00    +0.000 HD
BRANCH  22  25
ATOM     25  C   UNL     1      44.912   5.324  11.544  0.00  0.00    +0.000 A 
ATOM     26  C   UNL     1      44.233   4.735  12.599  0.00  0.00    +0.000 A 
ATOM     27  S   UNL     1      43.584   3.202  12.218  0.00  0.00    +0.000 S 
ATOM     28  C   UNL     1      44.235   3.257  10.644  0.00  0.00    +0.000 A 
ATOM     29  N   UNL     1      44.058   2.228   9.772  0.00  0.00    +0.000 NA
ATOM     30  C   UNL     1      44.638   2.396   8.630  0.00  0.00    +0.000 A 
ATOM     31  N   UNL     1      45.377   3.494   8.279  0.00  0.00    +0.000 N 
ATOM     32  C   UNL     1      45.549   4.573   9.112  0.00  0.00    +0.000 A 
ATOM     33  O   UNL     1      46.155   5.575   8.749  0.00  0.00    +0.000 OA
ATOM     34  C   UNL     1      44.926   4.429  10.412  0.00  0.00    +0.000 A 
ATOM     35  H   UNL     1      45.795   3.569   7.363  0.00  0.00    +0.000 HD
ENDBRANCH  22  25
ENDBRANCH  20  21
ENDBRANCH   4  20
TORSDOF 7
ENDMDL
MODEL 5
REMARK VINA RESULT:    -7.403      3.061      8.446
REMARK INTER + INTRA:         -11.637
REMARK INTER:                 -10.421
REMARK INTRA:                  -1.216
REMARK UNBOUND:                -1.205
REMARK  Name = 
REMARK  7 active torsions:
REMARK  status: ('A' for Active; 'I' for Inactive)
REMARK    1  A    between atoms: C_2  and  C_4
REMARK    2  A    between atoms: C_8  and  C_9
REMARK    3  A    between atoms: C_9  and  O_10
REMARK    4  A    between atoms: O_10  and  C_11
REMARK    5  A    between atoms: C_14  and  C_15
REMARK    6  A    between atoms: C_15  and  N_16
REMARK    7  A    between atoms: C_17  and  C_19
REMARK                            x       y       z     vdW  Elec       q    Type
REMARK                         _______ _______ _______ _____ _____    ______ ____
ROOT
ATOM      1  C   UNL     1      49.399   7.684  15.910  0.00  0.00    +0.000 A 
ATOM      2  C   UNL     1      48.365   8.592  15.746  0.00  0.00    +0.000 A 
ATOM      3  C   UNL     1      47.730   8.660  14.504  0.00  0.00    +0.000 A 
ATOM      4  C   UNL     1      48.174   7.842  13.460  0.00  0.00    +0.000 A 
ATOM      5  C   UNL     1      49.233   6.983  13.730  0.00  0.00    +0.000 A 
ATOM      6  N   UNL     1      49.857   6.890  14.923  0.00  0.00    +0.000 NA
ENDROOT
BRANCH   1   7
ATOM      7  O   UNL     1      50.013   7.629  17.146  0.00  0.00    +0.000 OA
BRANCH   7   8
ATOM      8  C   UNL     1      49.145   7.053  18.127  0.00  0.00    +0.000 C 
BRANCH   8  13
ATOM      9  C   UNL     1      49.569   3.322  17.411  0.00  0.00    +0.000 A 
ATOM     10  C   UNL     1      48.236   2.914  17.283  0.00  0.00    +0.000 A 
ATOM     11  C   UNL     1      47.208   3.851  17.381  0.00  0.00    +0.000 A 
ATOM     12  C   UNL     1      47.506   5.193  17.624  0.00  0.00    +0.000 A 
ATOM     13  C   UNL     1      48.836   5.617  17.766  0.00  0.00    +0.000 A 
ATOM     14  C   UNL     1      49.865   4.672  17.646  0.00  0.00    +0.000 A 
BRANCH   9  16
ATOM     15  N   UNL     1      51.803   2.645  18.122  0.00  0.00    +0.000 N 
ATOM     16  C   UNL     1      50.688   2.343  17.391  0.00  0.00    +0.000 C 
ATOM     17  O   UNL     1      50.620   1.299  16.753  0.00  0.00    +0.000 OA
ATOM     18  H   UNL     1      52.533   1.945  18.141  0.00  0.00    +0.000 HD
ATOM     19  H   UNL     1      51.816   3.364  18.831  0.00  0.00    +0.000 HD
ENDBRANCH   9  16
ENDBRANCH   8  13
ENDBRANCH   7   8
ENDBRANCH   1   7
BRANCH   4  20
ATOM     20  C   UNL     1      47.536   7.833  12.101  0.00  0.00    +0.000 C 
BRANCH  20  21
ATOM     21  N   UNL     1      46.792   6.631  11.826  0.00  0.00    +0.000 N 
ATOM     22  C   UNL     1      45.422   6.540  11.958  0.00  0.00    +0.000 C 
ATOM     23  O   UNL     1      44.707   7.485  12.259  0.00  0.00    +0.000 OA
ATOM     24  H   UNL     1      47.309   5.770  11.964  0.00  0.00    +0.000 HD
BRANCH  22  25
ATOM     25  C   UNL     1      44.854   5.226  11.644  0.00  0.00    +0.000 A 
ATOM     26  C   UNL     1      44.113   4.536  12.592  0.00  0.00    +0.000 A 
ATOM     27  S   UNL     1      43.483   3.058  12.016  0.00  0.00    +0.000 S 
ATOM     28  C   UNL     1      44.224   3.270  10.496  0.00  0.00    +0.000 A 
ATOM     29  N   UNL     1      44.094   2.340   9.513  0.00  0.00    +0.000 NA
ATOM     30  C   UNL     1      44.739   2.621   8.429  0.00  0.00    +0.000 A 
ATOM     31  N   UNL     1      45.500   3.743   8.237  0.00  0.00    +0.000 N 
ATOM     32  C   UNL     1      45.627   4.727   9.187  0.00  0.00    +0.000 A 
ATOM     33  O   UNL     1      46.256   5.756   8.966  0.00  0.00    +0.000 OA
ATOM     34  C   UNL     1      44.931   4.454  10.428  0.00  0.00    +0.000 A 
ATOM     35  H   UNL     1      45.970   3.909   7.360  0.00  0.00    +0.000 HD
ENDBRANCH  22  25
ENDBRANCH  20  21
ENDBRANCH   4  20
TORSDOF 7
ENDMDL
MODEL 6
REMARK VINA RESULT:    -7.346      3.840      8.198
REMARK INTER + INTRA:         -11.557
REMARK INTER:                 -10.306
REMARK INTRA:                  -1.251
REMARK UNBOUND:                -1.205
REMARK  Name = 
REMARK  7 active torsions:
REMARK  status: ('A' for Active; 'I' for Inactive)
REMARK    1  A    between atoms: C_2  and  C_4
REMARK    2  A    between atoms: C_8  and  C_9
REMARK    3  A    between atoms: C_9  and  O_10
REMARK    4  A    between atoms: O_10  and  C_11
REMARK    5  A    between atoms: C_14  and  C_15
REMARK    6  A    between atoms: C_15  and  N_16
REMARK    7  A    between atoms: C_17  and  C_19
REMARK                            x       y       z     vdW  Elec       q    Type
REMARK                         _______ _______ _______ _____ _____    ______ ____
ROOT
ATOM      1  C   UNL     1      49.533   7.387  16.105  0.00  0.00    +0.000 A 
ATOM      2  C   UNL     1      48.482   8.289  16.054  0.00  0.00    +0.000 A 
ATOM      3  C   UNL     1      47.957   8.627  14.805  0.00  0.00    +0.000 A 
ATOM      4  C   UNL     1      48.524   8.079  13.650  0.00  0.00    +0.000 A 
ATOM      5  C   UNL     1      49.589   7.203  13.817  0.00  0.00    +0.000 A 
ATOM      6  N   UNL     1      50.108   6.850  15.012  0.00  0.00    +0.000 NA
ENDROOT
BRANCH   1   7
ATOM      7  O   UNL     1      50.037   7.062  17.349  0.00  0.00    +0.000 OA
BRANCH   7   8
ATOM      8  C   UNL     1      49.125   6.229  18.073  0.00  0.00    +0.000 C 
BRANCH   8  13
ATOM      9  C   UNL     1      50.434   2.707  17.368  0.00  0.00    +0.000 A 
ATOM     10  C   UNL     1      49.303   2.102  16.807  0.00  0.00    +0.000 A 
ATOM     11  C   UNL     1      48.138   2.844  16.615  0.00  0.00    +0.000 A 
ATOM     12  C   UNL     1      48.093   4.186  16.997  0.00  0.00    +0.000 A 
ATOM     13  C   UNL     1      49.214   4.805  17.571  0.00  0.00    +0.000 A 
ATOM     14  C   UNL     1      50.388   4.058  17.742  0.00  0.00    +0.000 A 
BRANCH   9  16
ATOM     15  N   UNL     1      51.526   0.598  17.925  0.00  0.00    +0.000 N 
ATOM     16  C   UNL     1      51.668   1.931  17.661  0.00  0.00    +0.000 C 
ATOM     17  O   UNL     1      52.775   2.457  17.661  0.00  0.00    +0.000 OA
ATOM     18  H   UNL     1      52.379   0.074  18.070  0.00  0.00    +0.000 HD
ATOM     19  H   UNL     1      50.683   0.084  17.715  0.00  0.00    +0.000 HD
ENDBRANCH   9  16
ENDBRANCH   8  13
ENDBRANCH   7   8
ENDBRANCH   1   7
BRANCH   4  20
ATOM     20  C   UNL     1      48.009   8.371  12.270  0.00  0.00    +0.000 C 
BRANCH  20  21
ATOM     21  N   UNL     1      47.353   7.246  11.655  0.00  0.00    +0.000 N 
ATOM     22  C   UNL     1      45.984   7.142  11.529  0.00  0.00    +0.000 C 
ATOM     23  O   UNL     1      45.204   8.021  11.869  0.00  0.00    +0.000 OA
ATOM     24  H   UNL     1      47.861   6.370  11.720  0.00  0.00    +0.000 HD
BRANCH  22  25
ATOM     25  C   UNL     1      45.511   5.913  10.885  0.00  0.00    +0.000 A 
ATOM     26  C   UNL     1      45.789   5.667   9.550  0.00  0.00    +0.000 A 
ATOM     27  S   UNL     1      45.211   4.157   9.003  0.00  0.00    +0.000 S 
ATOM     28  C   UNL     1      44.527   3.806  10.523  0.00  0.00    +0.000 A 
ATOM     29  N   UNL     1      43.854   2.644  10.743  0.00  0.00    +0.000 NA
ATOM     30  C   UNL     1      43.362   2.533  11.932  0.00  0.00    +0.000 A 
ATOM     31  N   UNL     1      43.479   3.473  12.921  0.00  0.00    +0.000 N 
ATOM     32  C   UNL     1      44.182   4.642  12.757  0.00  0.00    +0.000 A 
ATOM     33  O   UNL     1      44.332   5.436  13.679  0.00  0.00    +0.000 OA
ATOM     34  C   UNL     1      44.745   4.820  11.434  0.00  0.00    +0.000 A 
ATOM     35  H   UNL     1      43.079   3.319  13.834  0.00  0.00    +0.000 HD
ENDBRANCH  22  25
ENDBRANCH  20  21
ENDBRANCH   4  20
TORSDOF 7
ENDMDL
MODEL 7
REMARK VINA RESULT:    -7.268      2.563      4.422
REMARK INTER + INTRA:         -11.447
REMARK INTER:                 -10.718
REMARK INTRA:                  -0.729
REMARK UNBOUND:                -1.205
REMARK  Name = 
REMARK  7 active torsions:
REMARK  status: ('A' for Active; 'I' for Inactive)
REMARK    1  A    between atoms: C_2  and  C_4
REMARK    2  A    between atoms: C_8  and  C_9
REMARK    3  A    between atoms: C_9  and  O_10
REMARK    4  A    between atoms: O_10  and  C_11
REMARK    5  A    between atoms: C_14  and  C_15
REMARK    6  A    between atoms: C_15  and  N_16
REMARK    7  A    between atoms: C_17  and  C_19
REMARK                            x       y       z     vdW  Elec       q    Type
REMARK                         _______ _______ _______ _____ _____    ______ ____
ROOT
ATOM      1  C   UNL     1      44.601   4.316  11.869  0.00  0.00    +0.000 A 
ATOM      2  C   UNL     1      44.766   5.662  12.150  0.00  0.00    +0.000 A 
ATOM      3  C   UNL     1      45.725   6.031  13.095  0.00  0.00    +0.000 A 
ATOM      4  C   UNL     1      46.460   5.039  13.752  0.00  0.00    +0.000 A 
ATOM      5  C   UNL     1      46.197   3.719  13.408  0.00  0.00    +0.000 A 
ATOM      6  N   UNL     1      45.284   3.336  12.490  0.00  0.00    +0.000 NA
ENDROOT
BRANCH   1   7
ATOM      7  O   UNL     1      43.650   3.970  10.928  0.00  0.00    +0.000 OA
BRANCH   7   8
ATOM      8  C   UNL     1      43.985   2.735  10.287  0.00  0.00    +0.000 C 
BRANCH   8  13
ATOM      9  C   UNL     1      46.623   2.102   7.594  0.00  0.00    +0.000 A 
ATOM     10  C   UNL     1      46.859   3.402   7.131  0.00  0.00    +0.000 A 
ATOM     11  C   UNL     1      46.203   4.482   7.721  0.00  0.00    +0.000 A 
ATOM     12  C   UNL     1      45.297   4.267   8.761  0.00  0.00    +0.000 A 
ATOM     13  C   UNL     1      45.040   2.969   9.229  0.00  0.00    +0.000 A 
ATOM     14  C   UNL     1      45.719   1.890   8.645  0.00  0.00    +0.000 A 
BRANCH   9  16
ATOM     15  N   UNL     1      46.938  -0.313   7.449  0.00  0.00    +0.000 N 
ATOM     16  C   UNL     1      47.242   0.919   6.941  0.00  0.00    +0.000 C 
ATOM     17  O   UNL     1      47.992   1.033   5.979  0.00  0.00    +0.000 OA
ATOM     18  H   UNL     1      47.325  -1.110   6.961  0.00  0.00    +0.000 HD
ATOM     19  H   UNL     1      46.164  -0.470   8.078  0.00  0.00    +0.000 HD
ENDBRANCH   9  16
ENDBRANCH   8  13
ENDBRANCH   7   8
ENDBRANCH   1   7
BRANCH   4  20
ATOM     20  C   UNL     1      47.524   5.347  14.765  0.00  0.00    +0.000 C 
BRANCH  20  21
ATOM     21  N   UNL     1      47.923   6.730  14.773  0.00  0.00    +0.000 N 
ATOM     22  C   UNL     1      48.851   7.258  13.900  0.00  0.00    +0.000 C 
ATOM     23  O   UNL     1      49.374   6.616  12.999  0.00  0.00    +0.000 OA
ATOM     24  H   UNL     1      47.853   7.188  15.676  0.00  0.00    +0.000 HD
BRANCH  22  25
ATOM     25  C   UNL     1      49.131   8.685  14.078  0.00  0.00    +0.000 A 
ATOM     26  C   UNL     1      50.135   9.102  14.939  0.00  0.00    +0.000 A 
ATOM     27  S   UNL     1      50.351  10.795  14.959  0.00  0.00    +0.000 S 
ATOM     28  C   UNL     1      49.074  11.027  13.856  0.00  0.00    +0.000 A 
ATOM     29  N   UNL     1      48.714  12.274  13.448  0.00  0.00    +0.000 NA
ATOM     30  C   UNL     1      47.707  12.296  12.637  0.00  0.00    +0.000 A 
ATOM     31  N   UNL     1      47.030  11.190  12.198  0.00  0.00    +0.000 N 
ATOM     32  C   UNL     1      47.384   9.910  12.553  0.00  0.00    +0.000 A 
ATOM     33  O   UNL     1      46.805   8.933  12.090  0.00  0.00    +0.000 OA
ATOM     34  C   UNL     1      48.501   9.832  13.471  0.00  0.00    +0.000 A 
ATOM     35  H   UNL     1      46.257  11.276  11.554  0.00  0.00    +0.000 HD
ENDBRANCH  22  25
ENDBRANCH  20  21
ENDBRANCH   4  20
TORSDOF 7
ENDMDL
MODEL 8
REMARK VINA RESULT:    -7.180      2.108      3.090
REMARK INTER + INTRA:         -11.324
REMARK INTER:                 -10.785
REMARK INTRA:                  -0.539
REMARK UNBOUND:                -1.205
REMARK  Name = 
REMARK  7 active torsions:
REMARK  status: ('A' for Active; 'I' for Inactive)
REMARK    1  A    between atoms: C_2  and  C_4
REMARK    2  A    between atoms: C_8  and  C_9
REMARK    3  A    between atoms: C_9  and  O_10
REMARK    4  A    between atoms: O_10  and  C_11
REMARK    5  A    between atoms: C_14  and  C_15
REMARK    6  A    between atoms: C_15  and  N_16
REMARK    7  A    between atoms: C_17  and  C_19
REMARK                            x       y       z     vdW  Elec       q    Type
REMARK                         _______ _______ _______ _____ _____    ______ ____
ROOT
ATOM      1  C   UNL     1      44.534   2.844   9.591  0.00  0.00    +0.000 A 
ATOM      2  C   UNL     1      45.126   4.095   9.525  0.00  0.00    +0.000 A 
ATOM      3  C   UNL     1      44.971   4.962  10.608  0.00  0.00    +0.000 A 
ATOM      4  C   UNL     1      44.200   4.561  11.704  0.00  0.00    +0.000 A 
ATOM      5  C   UNL     1      43.634   3.293  11.654  0.00  0.00    +0.000 A 
ATOM      6  N   UNL     1      43.778   2.431  10.625  0.00  0.00    +0.000 NA
ENDROOT
BRANCH   1   7
ATOM      7  O   UNL     1      44.701   1.999   8.511  0.00  0.00    +0.000 OA
BRANCH   7   8
ATOM      8  C   UNL     1      46.030   1.469   8.473  0.00  0.00    +0.000 C 
BRANCH   8  13
ATOM      9  C   UNL     1      47.087   0.783   4.864  0.00  0.00    +0.000 A 
ATOM     10  C   UNL     1      47.545   2.045   4.468  0.00  0.00    +0.000 A 
ATOM     11  C   UNL     1      47.555   3.100   5.379  0.00  0.00    +0.000 A 
ATOM     12  C   UNL     1      47.093   2.904   6.682  0.00  0.00    +0.000 A 
ATOM     13  C   UNL     1      46.620   1.648   7.092  0.00  0.00    +0.000 A 
ATOM     14  C   UNL     1      46.632   0.587   6.175  0.00  0.00    +0.000 A 
BRANCH   9  16
ATOM     15  N   UNL     1      47.078  -0.050   2.570  0.00  0.00    +0.000 N 
ATOM     16  C   UNL     1      46.986  -0.346   3.901  0.00  0.00    +0.000 C 
ATOM     17  O   UNL     1      46.834  -1.502   4.278  0.00  0.00    +0.000 OA
ATOM     18  H   UNL     1      47.062  -0.834   1.931  0.00  0.00    +0.000 HD
ATOM     19  H   UNL     1      47.426   0.834   2.228  0.00  0.00    +0.000 HD
ENDBRANCH   9  16
ENDBRANCH   8  13
ENDBRANCH   7   8
ENDBRANCH   1   7
BRANCH   4  20
ATOM     20  C   UNL     1      43.999   5.419  12.919  0.00  0.00    +0.000 C 
BRANCH  20  21
ATOM     21  N   UNL     1      45.231   5.816  13.549  0.00  0.00    +0.000 N 
ATOM     22  C   UNL     1      46.181   4.920  13.991  0.00  0.00    +0.000 C 
ATOM     23  O   UNL     1      46.095   3.710  13.833  0.00  0.00    +0.000 OA
ATOM     24  H   UNL     1      45.189   6.699  14.046  0.00  0.00    +0.000 HD
BRANCH  22  25
ATOM     25  C   UNL     1      47.361   5.523  14.617  0.00  0.00    +0.000 A 
ATOM     26  C   UNL     1      48.094   6.491  13.949  0.00  0.00    +0.000 A 
ATOM     27  S   UNL     1      49.389   7.117  14.868  0.00  0.00    +0.000 S 
ATOM     28  C   UNL     1      49.040   6.076  16.171  0.00  0.00    +0.000 A 
ATOM     29  N   UNL     1      49.794   6.086  17.303  0.00  0.00    +0.000 NA
ATOM     30  C   UNL     1      49.431   5.218  18.189  0.00  0.00    +0.000 A 
ATOM     31  N   UNL     1      48.388   4.344  18.050  0.00  0.00    +0.000 N 
ATOM     32  C   UNL     1      47.575   4.325  16.941  0.00  0.00    +0.000 A 
ATOM     33  O   UNL     1      46.604   3.580  16.870  0.00  0.00    +0.000 OA
ATOM     34  C   UNL     1      47.947   5.272  15.911  0.00  0.00    +0.000 A 
ATOM     35  H   UNL     1      48.149   3.697  18.787  0.00  0.00    +0.000 HD
ENDBRANCH  22  25
ENDBRANCH  20  21
ENDBRANCH   4  20
TORSDOF 7
ENDMDL
MODEL 9
REMARK VINA RESULT:    -7.038      3.101      5.036
REMARK INTER + INTRA:         -11.123
REMARK INTER:                 -10.020
REMARK INTRA:                  -1.104
REMARK UNBOUND:                -1.205
REMARK  Name = 
REMARK  7 active torsions:
REMARK  status: ('A' for Active; 'I' for Inactive)
REMARK    1  A    between atoms: C_2  and  C_4
REMARK    2  A    between atoms: C_8  and  C_9
REMARK    3  A    between atoms: C_9  and  O_10
REMARK    4  A    between atoms: O_10  and  C_11
REMARK    5  A    between atoms: C_14  and  C_15
REMARK    6  A    between atoms: C_15  and  N_16
REMARK    7  A    between atoms: C_17  and  C_19
REMARK                            x       y       z     vdW  Elec       q    Type
REMARK                         _______ _______ _______ _____ _____    ______ ____
ROOT
ATOM      1  C   UNL     1      48.001   6.330  14.114  0.00  0.00    +0.000 A 
ATOM      2  C   UNL     1      48.533   7.467  14.699  0.00  0.00    +0.000 A 
ATOM      3  C   UNL     1      48.865   7.425  16.055  0.00  0.00    +0.000 A 
ATOM      4  C   UNL     1      48.620   6.258  16.786  0.00  0.00    +0.000 A 
ATOM      5  C   UNL     1      48.062   5.184  16.103  0.00  0.00    +0.000 A 
ATOM      6  N   UNL     1      47.743   5.195  14.791  0.00  0.00    +0.000 NA
ENDROOT
BRANCH   1   7
ATOM      7  O   UNL     1      47.682   6.390  12.771  0.00  0.00    +0.000 OA
BRANCH   7   8
ATOM      8  C   UNL     1      46.439   7.069  12.567  0.00  0.00    +0.000 C 
BRANCH   8  13
ATOM      9  C   UNL     1      44.591   4.601  10.307  0.00  0.00    +0.000 A 
ATOM     10  C   UNL     1      43.569   4.164  11.158  0.00  0.00    +0.000 A 
ATOM     11  C   UNL     1      43.451   4.701  12.439  0.00  0.00    +0.000 A 
ATOM     12  C   UNL     1      44.362   5.662  12.882  0.00  0.00    +0.000 A 
ATOM     13  C   UNL     1      45.399   6.103  12.047  0.00  0.00    +0.000 A 
ATOM     14  C   UNL     1      45.499   5.573  10.752  0.00  0.00    +0.000 A 
BRANCH   9  16
ATOM     15  N   UNL     1      44.249   2.768   8.734  0.00  0.00    +0.000 N 
ATOM     16  C   UNL     1      44.799   3.998   8.964  0.00  0.00    +0.000 C 
ATOM     17  O   UNL     1      45.430   4.576   8.089  0.00  0.00    +0.000 OA
ATOM     18  H   UNL     1      44.353   2.395   7.800  0.00  0.00    +0.000 HD
ATOM     19  H   UNL     1      43.542   2.363   9.331  0.00  0.00    +0.000 HD
ENDBRANCH   9  16
ENDBRANCH   8  13
ENDBRANCH   7   8
ENDBRANCH   1   7
BRANCH   4  20
ATOM     20  C   UNL     1      48.964   6.117  18.240  0.00  0.00    +0.000 C 
BRANCH  20  21
ATOM     21  N   UNL     1      50.050   5.203  18.484  0.00  0.00    +0.000 N 
ATOM     22  C   UNL     1      51.369   5.500  18.209  0.00  0.00    +0.000 C 
ATOM     23  O   UNL     1      51.745   6.587  17.792  0.00  0.00    +0.000 OA
ATOM     24  H   UNL     1      49.798   4.222  18.440  0.00  0.00    +0.000 HD
BRANCH  22  25
ATOM     25  C   UNL     1      52.323   4.432  18.516  0.00  0.00    +0.000 A 
ATOM     26  C   UNL     1      53.471   4.703  19.246  0.00  0.00    +0.000 A 
ATOM     27  S   UNL     1      54.421   3.319  19.555  0.00  0.00    +0.000 S 
ATOM     28  C   UNL     1      53.352   2.321  18.680  0.00  0.00    +0.000 A 
ATOM     29  N   UNL     1      53.588   0.989  18.539  0.00  0.00    +0.000 NA
ATOM     30  C   UNL     1      52.710   0.369  17.821  0.00  0.00    +0.000 A 
ATOM     31  N   UNL     1      51.621   0.955  17.233  0.00  0.00    +0.000 N 
ATOM     32  C   UNL     1      51.323   2.288  17.382  0.00  0.00    +0.000 A 
ATOM     33  O   UNL     1      50.304   2.775  16.905  0.00  0.00    +0.000 OA
ATOM     34  C   UNL     1      52.284   3.032  18.170  0.00  0.00    +0.000 A 
ATOM     35  H   UNL     1      50.966   0.410  16.693  0.00  0.00    +0.000 HD
ENDBRANCH  22  25
ENDBRANCH  20  21
ENDBRANCH   4  20
TORSDOF 7
ENDMDL
