MODEL 1
REMARK VINA RESULT:    -6.925      0.000      0.000
REMARK INTER + INTRA:         -11.059
REMARK INTER:                 -10.163
REMARK INTRA:                  -0.896
REMARK UNBOUND:                -0.896
REMARK  Name = 
REMARK  9 active torsions:
REMARK  status: ('A' for Active; 'I' for Inactive)
REMARK    1  A    between atoms: C_1  and  C_2
REMARK    2  A    between atoms: C_2  and  C_3
REMARK    3  A    between atoms: C_3  and  C_4
REMARK    4  A    between atoms: C_6  and  C_7
REMARK    5  A    between atoms: C_7  and  C_8
REMARK    6  A    between atoms: C_8  and  C_9
REMARK    7  A    between atoms: C_13  and  N_14
REMARK    8  A    between atoms: N_14  and  C_15
REMARK    9  A    between atoms: C_22  and  C_23
REMARK                            x       y       z     vdW  Elec       q    Type
REMARK                         _______ _______ _______ _____ _____    ______ ____
ROOT
ATOM      1  C   UNL     1      46.528   6.514  11.336  0.00  0.00    +0.000 C 
ENDROOT
BRANCH   1   4
ATOM      2  C   UNL     1      48.394   6.394  14.686  0.00  0.00    +0.000 A 
ATOM      3  C   UNL     1      47.945   6.794  13.410  0.00  0.00    +0.000 A 
ATOM      4  C   UNL     1      46.988   6.057  12.701  0.00  0.00    +0.000 A 
ATOM      5  C   UNL     1      46.485   4.884  13.268  0.00  0.00    +0.000 A 
ATOM      6  C   UNL     1      46.882   4.495  14.550  0.00  0.00    +0.000 A 
ATOM      7  C   UNL     1      47.818   5.250  15.280  0.00  0.00    +0.000 A 
BRANCH   7   8
ATOM      8  C   UNL     1      48.119   4.859  16.693  0.00  0.00    +0.000 C 
ATOM      9  N   UNL     1      47.346   5.404  17.682  0.00  0.00    +0.000 N 
ATOM     10  O   UNL     1      49.023   4.090  16.990  0.00  0.00    +0.000 OA
ATOM     11  H   UNL     1      46.509   5.942  17.514  0.00  0.00    +0.000 HD
ATOM     12  H   UNL     1      47.543   5.106  18.627  0.00  0.00    +0.000 HD
ENDBRANCH   7   8
BRANCH   2  13
ATOM     13  C   UNL     1      49.515   7.198  15.315  0.00  0.00    +0.000 C 
BRANCH  13  15
ATOM     14  C   UNL     1      50.037   9.667  15.741  0.00  0.00    +0.000 C 
ATOM     15  C   UNL     1      49.057   8.521  15.948  0.00  0.00    +0.000 C 
ENDBRANCH  13  15
ENDBRANCH   2  13
ENDBRANCH   1   4
BRANCH   1  16
ATOM     16  C   UNL     1      45.075   6.111  11.070  0.00  0.00    +0.000 C 
BRANCH  16  17
ATOM     17  C   UNL     1      44.933   4.791  10.341  0.00  0.00    +0.000 A 
ATOM     18  C   UNL     1      44.237   3.722  10.917  0.00  0.00    +0.000 A 
ATOM     19  C   UNL     1      44.095   2.520  10.225  0.00  0.00    +0.000 A 
ATOM     20  C   UNL     1      44.653   2.368   8.955  0.00  0.00    +0.000 A 
ATOM     21  C   UNL     1      45.349   3.420   8.357  0.00  0.00    +0.000 A 
ATOM     22  C   UNL     1      45.467   4.631   9.056  0.00  0.00    +0.000 A 
BRANCH  21  23
ATOM     23  N   UNL     1      45.892   3.343   7.055  0.00  0.00    +0.000 N 
ATOM     24  H   UNL     1      45.234   2.841   6.456  0.00  0.00    +0.000 HD
BRANCH  23  25
ATOM     25  C   UNL     1      47.261   3.015   6.742  0.00  0.00    +0.000 C 
ATOM     26  C   UNL     1      47.454   2.672   5.250  0.00  0.00    +0.000 C 
ATOM     27  N   UNL     1      48.195   1.454   5.627  0.00  0.00    +0.000 NA
ATOM     28  C   UNL     1      47.681   1.559   7.007  0.00  0.00    +0.000 C 
ATOM     29  H   UNL     1      49.206   1.562   5.560  0.00  0.00    +0.000 HD
ENDBRANCH  23  25
ENDBRANCH  21  23
ENDBRANCH  16  17
ENDBRANCH   1  16
TORSDOF 8
ENDMDL
MODEL 2
REMARK VINA RESULT:    -6.864      4.352      7.669
REMARK INTER + INTRA:         -10.970
REMARK INTER:                  -9.565
REMARK INTRA:                  -1.406
REMARK UNBOUND:                -0.896
REMARK  Name = 
REMARK  9 active torsions:
REMARK  status: ('A' for Active; 'I' for Inactive)
REMARK    1  A    between atoms: C_1  and  C_2
REMARK    2  A    between atoms: C_2  and  C_3
REMARK    3  A    between atoms: C_3  and  C_4
REMARK    4  A    between atoms: C_6  and  C_7
REMARK    5  A    between atoms: C_7  and  C_8
REMARK    6  A    between atoms: C_8  and  C_9
REMARK    7  A    between atoms: C_13  and  N_14
REMARK    8  A    between atoms: N_14  and  C_15
REMARK    9  A    between atoms: C_22  and  C_23
REMARK                            x       y       z     vdW  Elec       q    Type
REMARK                         _______ _______ _______ _____ _____    ______ ____
ROOT
ATOM      1  C   UNL     1      48.190   7.409  11.464  0.00  0.00    +0.000 C 
ENDROOT
BRANCH   1   4
ATOM      2  C   UNL     1      45.025   5.266  11.130  0.00  0.00    +0.000 A 
ATOM      3  C   UNL     1      46.149   6.062  10.825  0.00  0.00    +0.000 A 
ATOM      4  C   UNL     1      46.994   6.559  11.825  0.00  0.00    +0.000 A 
ATOM      5  C   UNL     1      46.699   6.274  13.160  0.00  0.00    +0.000 A 
ATOM      6  C   UNL     1      45.617   5.449  13.481  0.00  0.00    +0.000 A 
ATOM      7  C   UNL     1      44.785   4.920  12.477  0.00  0.00    +0.000 A 
BRANCH   7   8
ATOM      8  C   UNL     1      43.716   3.946  12.863  0.00  0.00    +0.000 C 
ATOM      9  N   UNL     1      43.954   2.618  12.637  0.00  0.00    +0.000 N 
ATOM     10  O   UNL     1      42.651   4.292  13.356  0.00  0.00    +0.000 OA
ATOM     11  H   UNL     1      44.847   2.243  12.355  0.00  0.00    +0.000 HD
ATOM     12  H   UNL     1      43.234   1.972  12.931  0.00  0.00    +0.000 HD
ENDBRANCH   7   8
BRANCH   2  13
ATOM     13  C   UNL     1      44.113   4.877   9.983  0.00  0.00    +0.000 C 
BRANCH  13  15
ATOM     14  C   UNL     1      44.799   2.552   9.162  0.00  0.00    +0.000 C 
ATOM     15  C   UNL     1      44.802   4.048   8.888  0.00  0.00    +0.000 C 
ENDBRANCH  13  15
ENDBRANCH   2  13
ENDBRANCH   1   4
BRANCH   1  16
ATOM     16  C   UNL     1      48.316   8.624  12.388  0.00  0.00    +0.000 C 
BRANCH  16  17
ATOM     17  C   UNL     1      47.590   9.852  11.879  0.00  0.00    +0.000 A 
ATOM     18  C   UNL     1      48.265  10.835  11.145  0.00  0.00    +0.000 A 
ATOM     19  C   UNL     1      47.578  11.948  10.663  0.00  0.00    +0.000 A 
ATOM     20  C   UNL     1      46.213  12.099  10.915  0.00  0.00    +0.000 A 
ATOM     21  C   UNL     1      45.517  11.132  11.642  0.00  0.00    +0.000 A 
ATOM     22  C   UNL     1      46.215  10.005  12.103  0.00  0.00    +0.000 A 
BRANCH  21  23
ATOM     23  N   UNL     1      44.127  11.203  11.885  0.00  0.00    +0.000 N 
ATOM     24  H   UNL     1      43.935  10.793  12.800  0.00  0.00    +0.000 HD
BRANCH  23  25
ATOM     25  C   UNL     1      43.097  10.887  10.927  0.00  0.00    +0.000 C 
ATOM     26  C   UNL     1      41.681  10.997  11.532  0.00  0.00    +0.000 C 
ATOM     27  N   UNL     1      41.344   9.672  10.980  0.00  0.00    +0.000 NA
ATOM     28  C   UNL     1      42.776   9.392  10.754  0.00  0.00    +0.000 C 
ATOM     29  H   UNL     1      40.798   9.722  10.120  0.00  0.00    +0.000 HD
ENDBRANCH  23  25
ENDBRANCH  21  23
ENDBRANCH  16  17
ENDBRANCH   1  16
TORSDOF 8
ENDMDL
MODEL 3
REMARK VINA RESULT:    -6.594      2.581      3.111
REMARK INTER + INTRA:         -10.573
REMARK INTER:                  -9.503
REMARK INTRA:                  -1.071
REMARK UNBOUND:                -0.896
REMARK  Name = 
REMARK  9 active torsions:
REMARK  status: ('A' for Active; 'I' for Inactive)
REMARK    1  A    between atoms: C_1  and  C_2
REMARK    2  A    between atoms: C_2  and  C_3
REMARK    3  A    between atoms: C_3  and  C_4
REMARK    4  A    between atoms: C_6  and  C_7
REMARK    5  A    between atoms: C_7  and  C_8
REMARK    6  A    between atoms: C_8  and  C_9
REMARK    7  A    between atoms: C_13  and  N_14
REMARK    8  A    between atoms: N_14  and  C_15
REMARK    9  A    between atoms: C_22  and  C_23
REMARK                            x       y       z     vdW  Elec       q    Type
REMARK                         _______ _______ _______ _____ _____    ______ ____
ROOT
ATOM      1  C   UNL     1      45.543   6.250  12.520  0.00  0.00    +0.000 C 
ENDROOT
BRANCH   1   4
ATOM      2  C   UNL     1      48.731   8.381  12.370  0.00  0.00    +0.000 A 
ATOM      3  C   UNL     1      47.460   7.840  12.084  0.00  0.00    +0.000 A 
ATOM      4  C   UNL     1      46.908   6.807  12.853  0.00  0.00    +0.000 A 
ATOM      5  C   UNL     1      47.650   6.289  13.916  0.00  0.00    +0.000 A 
ATOM      6  C   UNL     1      48.892   6.841  14.245  0.00  0.00    +0.000 A 
ATOM      7  C   UNL     1      49.435   7.901  13.495  0.00  0.00    +0.000 A 
BRANCH   7   8
ATOM      8  C   UNL     1      50.707   8.537  13.960  0.00  0.00    +0.000 C 
ATOM      9  N   UNL     1      51.885   7.929  13.618  0.00  0.00    +0.000 N 
ATOM     10  O   UNL     1      50.730   9.561  14.630  0.00  0.00    +0.000 OA
ATOM     11  H   UNL     1      51.957   7.162  12.966  0.00  0.00    +0.000 HD
ATOM     12  H   UNL     1      52.735   8.389  13.913  0.00  0.00    +0.000 HD
ENDBRANCH   7   8
BRANCH   2  13
ATOM     13  C   UNL     1      49.283   9.414  11.407  0.00  0.00    +0.000 C 
BRANCH  13  15
ATOM     14  C   UNL     1      48.375  11.547  10.322  0.00  0.00    +0.000 C 
ATOM     15  C   UNL     1      48.722  10.829  11.618  0.00  0.00    +0.000 C 
ENDBRANCH  13  15
ENDBRANCH   2  13
ENDBRANCH   1   4
BRANCH   1  16
ATOM     16  C   UNL     1      45.226   6.397  11.029  0.00  0.00    +0.000 C 
BRANCH  16  17
ATOM     17  C   UNL     1      45.086   5.075  10.304  0.00  0.00    +0.000 A 
ATOM     18  C   UNL     1      44.339   4.027  10.855  0.00  0.00    +0.000 A 
ATOM     19  C   UNL     1      44.199   2.824  10.165  0.00  0.00    +0.000 A 
ATOM     20  C   UNL     1      44.811   2.649   8.923  0.00  0.00    +0.000 A 
ATOM     21  C   UNL     1      45.559   3.678   8.350  0.00  0.00    +0.000 A 
ATOM     22  C   UNL     1      45.674   4.892   9.045  0.00  0.00    +0.000 A 
BRANCH  21  23
ATOM     23  N   UNL     1      46.158   3.578   7.075  0.00  0.00    +0.000 N 
ATOM     24  H   UNL     1      45.661   4.196   6.432  0.00  0.00    +0.000 HD
BRANCH  23  25
ATOM     25  C   UNL     1      46.559   2.348   6.438  0.00  0.00    +0.000 C 
ATOM     26  C   UNL     1      47.984   1.916   6.845  0.00  0.00    +0.000 C 
ATOM     27  N   UNL     1      48.325   1.709   5.425  0.00  0.00    +0.000 NA
ATOM     28  C   UNL     1      47.135   2.484   5.018  0.00  0.00    +0.000 C 
ATOM     29  H   UNL     1      48.290   0.730   5.142  0.00  0.00    +0.000 HD
ENDBRANCH  23  25
ENDBRANCH  21  23
ENDBRANCH  16  17
ENDBRANCH   1  16
TORSDOF 8
ENDMDL
MODEL 4
REMARK VINA RESULT:    -6.512      3.294      8.060
REMARK INTER + INTRA:         -10.453
REMARK INTER:                  -9.229
REMARK INTRA:                  -1.225
REMARK UNBOUND:                -0.896
REMARK  Name = 
REMARK  9 active torsions:
REMARK  status: ('A' for Active; 'I' for Inactive)
REMARK    1  A    between atoms: C_1  and  C_2
REMARK    2  A    between atoms: C_2  and  C_3
REMARK    3  A    between atoms: C_3  and  C_4
REMARK    4  A    between atoms: C_6  and  C_7
REMARK    5  A    between atoms: C_7  and  C_8
REMARK    6  A    between atoms: C_8  and  C_9
REMARK    7  A    between atoms: C_13  and  N_14
REMARK    8  A    between atoms: N_14  and  C_15
REMARK    9  A    between atoms: C_22  and  C_23
REMARK                            x       y       z     vdW  Elec       q    Type
REMARK                         _______ _______ _______ _____ _____    ______ ____
ROOT
ATOM      1  C   UNL     1      48.381   7.658  11.778  0.00  0.00    +0.000 C 
ENDROOT
BRANCH   1   4
ATOM      2  C   UNL     1      45.252   5.599  10.945  0.00  0.00    +0.000 A 
ATOM      3  C   UNL     1      46.559   6.129  10.922  0.00  0.00    +0.000 A 
ATOM      4  C   UNL     1      46.973   7.112  11.831  0.00  0.00    +0.000 A 
ATOM      5  C   UNL     1      46.056   7.591  12.768  0.00  0.00    +0.000 A 
ATOM      6  C   UNL     1      44.770   7.047  12.838  0.00  0.00    +0.000 A 
ATOM      7  C   UNL     1      44.361   6.036  11.949  0.00  0.00    +0.000 A 
BRANCH   7   8
ATOM      8  C   UNL     1      43.019   5.401  12.142  0.00  0.00    +0.000 C 
ATOM      9  N   UNL     1      41.915   6.126  11.784  0.00  0.00    +0.000 N 
ATOM     10  O   UNL     1      42.879   4.279  12.610  0.00  0.00    +0.000 OA
ATOM     11  H   UNL     1      41.951   6.998  11.278  0.00  0.00    +0.000 HD
ATOM     12  H   UNL     1      41.020   5.671  11.893  0.00  0.00    +0.000 HD
ENDBRANCH   7   8
BRANCH   2  13
ATOM     13  C   UNL     1      44.874   4.626   9.846  0.00  0.00    +0.000 C 
BRANCH  13  15
ATOM     14  C   UNL     1      45.554   3.529   7.635  0.00  0.00    +0.000 C 
ATOM     15  C   UNL     1      45.841   4.624   8.651  0.00  0.00    +0.000 C 
ENDBRANCH  13  15
ENDBRANCH   2  13
ENDBRANCH   1   4
BRANCH   1  16
ATOM     16  C   UNL     1      48.673   8.572  12.972  0.00  0.00    +0.000 C 
BRANCH  16  17
ATOM     17  C   UNL     1      49.537   7.926  14.035  0.00  0.00    +0.000 A 
ATOM     18  C   UNL     1      50.879   8.292  14.193  0.00  0.00    +0.000 A 
ATOM     19  C   UNL     1      51.655   7.705  15.191  0.00  0.00    +0.000 A 
ATOM     20  C   UNL     1      51.105   6.741  16.037  0.00  0.00    +0.000 A 
ATOM     21  C   UNL     1      49.769   6.361  15.903  0.00  0.00    +0.000 A 
ATOM     22  C   UNL     1      48.992   6.974  14.907  0.00  0.00    +0.000 A 
BRANCH  21  23
ATOM     23  N   UNL     1      49.143   5.430  16.760  0.00  0.00    +0.000 N 
ATOM     24  H   UNL     1      49.827   4.719  17.025  0.00  0.00    +0.000 HD
BRANCH  23  25
ATOM     25  C   UNL     1      47.831   4.865  16.560  0.00  0.00    +0.000 C 
ATOM     26  C   UNL     1      47.084   4.633  17.891  0.00  0.00    +0.000 C 
ATOM     27  N   UNL     1      46.753   3.261  17.464  0.00  0.00    +0.000 NA
ATOM     28  C   UNL     1      47.774   3.336  16.401  0.00  0.00    +0.000 C 
ATOM     29  H   UNL     1      45.801   3.170  17.108  0.00  0.00    +0.000 HD
ENDBRANCH  23  25
ENDBRANCH  21  23
ENDBRANCH  16  17
ENDBRANCH   1  16
TORSDOF 8
ENDMDL
MODEL 5
REMARK VINA RESULT:    -6.434      3.680      4.895
REMARK INTER + INTRA:         -10.339
REMARK INTER:                  -9.334
REMARK INTRA:                  -1.004
REMARK UNBOUND:                -0.896
REMARK  Name = 
REMARK  9 active torsions:
REMARK  status: ('A' for Active; 'I' for Inactive)
REMARK    1  A    between atoms: C_1  and  C_2
REMARK    2  A    between atoms: C_2  and  C_3
REMARK    3  A    between atoms: C_3  and  C_4
REMARK    4  A    between atoms: C_6  and  C_7
REMARK    5  A    between atoms: C_7  and  C_8
REMARK    6  A    between atoms: C_8  and  C_9
REMARK    7  A    between atoms: C_13  and  N_14
REMARK    8  A    between atoms: N_14  and  C_15
REMARK    9  A    between atoms: C_22  and  C_23
REMARK                            x       y       z     vdW  Elec       q    Type
REMARK                         _______ _______ _______ _____ _____    ______ ____
ROOT
ATOM      1  C   UNL     1      45.905   6.379  12.121  0.00  0.00    +0.000 C 
ENDROOT
BRANCH   1   4
ATOM      2  C   UNL     1      45.818  10.201  11.800  0.00  0.00    +0.000 A 
ATOM      3  C   UNL     1      45.425   8.849  11.883  0.00  0.00    +0.000 A 
ATOM      4  C   UNL     1      46.361   7.817  12.034  0.00  0.00    +0.000 A 
ATOM      5  C   UNL     1      47.718   8.140  12.083  0.00  0.00    +0.000 A 
ATOM      6  C   UNL     1      48.126   9.476  12.048  0.00  0.00    +0.000 A 
ATOM      7  C   UNL     1      47.188  10.518  11.929  0.00  0.00    +0.000 A 
BRANCH   7   8
ATOM      8  C   UNL     1      47.663  11.934  12.019  0.00  0.00    +0.000 C 
ATOM      9  N   UNL     1      47.715  12.511  13.259  0.00  0.00    +0.000 N 
ATOM     10  O   UNL     1      47.993  12.586  11.037  0.00  0.00    +0.000 OA
ATOM     11  H   UNL     1      47.584  12.006  14.123  0.00  0.00    +0.000 HD
ATOM     12  H   UNL     1      48.068  13.456  13.305  0.00  0.00    +0.000 HD
ENDBRANCH   7   8
BRANCH   2  13
ATOM     13  C   UNL     1      44.737  11.226  11.520  0.00  0.00    +0.000 C 
BRANCH  13  15
ATOM     14  C   UNL     1      42.879  10.548   9.895  0.00  0.00    +0.000 C 
ATOM     15  C   UNL     1      44.231  11.222  10.068  0.00  0.00    +0.000 C 
ENDBRANCH  13  15
ENDBRANCH   2  13
ENDBRANCH   1   4
BRANCH   1  16
ATOM     16  C   UNL     1      44.668   6.129  11.253  0.00  0.00    +0.000 C 
BRANCH  16  17
ATOM     17  C   UNL     1      44.729   4.836  10.466  0.00  0.00    +0.000 A 
ATOM     18  C   UNL     1      44.057   3.691  10.908  0.00  0.00    +0.000 A 
ATOM     19  C   UNL     1      44.103   2.515  10.161  0.00  0.00    +0.000 A 
ATOM     20  C   UNL     1      44.828   2.465   8.968  0.00  0.00    +0.000 A 
ATOM     21  C   UNL     1      45.504   3.594   8.504  0.00  0.00    +0.000 A 
ATOM     22  C   UNL     1      45.432   4.778   9.255  0.00  0.00    +0.000 A 
BRANCH  21  23
ATOM     23  N   UNL     1      46.211   3.620   7.281  0.00  0.00    +0.000 N 
ATOM     24  H   UNL     1      45.824   4.363   6.696  0.00  0.00    +0.000 HD
BRANCH  23  25
ATOM     25  C   UNL     1      46.575   2.460   6.505  0.00  0.00    +0.000 C 
ATOM     26  C   UNL     1      47.959   1.903   6.900  0.00  0.00    +0.000 C 
ATOM     27  N   UNL     1      48.345   1.859   5.477  0.00  0.00    +0.000 NA
ATOM     28  C   UNL     1      47.212   2.741   5.134  0.00  0.00    +0.000 C 
ATOM     29  H   UNL     1      48.272   0.926   5.070  0.00  0.00    +0.000 HD
ENDBRANCH  23  25
ENDBRANCH  21  23
ENDBRANCH  16  17
ENDBRANCH   1  16
TORSDOF 8
ENDMDL
MODEL 6
REMARK VINA RESULT:    -6.425      2.081      3.361
REMARK INTER + INTRA:         -10.326
REMARK INTER:                  -9.371
REMARK INTRA:                  -0.955
REMARK UNBOUND:                -0.896
REMARK  Name = 
REMARK  9 active torsions:
REMARK  status: ('A' for Active; 'I' for Inactive)
REMARK    1  A    between atoms: C_1  and  C_2
REMARK    2  A    between atoms: C_2  and  C_3
REMARK    3  A    between atoms: C_3  and  C_4
REMARK    4  A    between atoms: C_6  and  C_7
REMARK    5  A    between atoms: C_7  and  C_8
REMARK    6  A    between atoms: C_8  and  C_9
REMARK    7  A    between atoms: C_13  and  N_14
REMARK    8  A    between atoms: N_14  and  C_15
REMARK    9  A    between atoms: C_22  and  C_23
REMARK                            x       y       z     vdW  Elec       q    Type
REMARK                         _______ _______ _______ _____ _____    ______ ____
ROOT
ATOM      1  C   UNL     1      47.213   3.950  14.419  0.00  0.00    +0.000 C 
ENDROOT
BRANCH   1   4
ATOM      2  C   UNL     1      48.514   5.711  17.570  0.00  0.00    +0.000 A 
ATOM      3  C   UNL     1      48.117   5.450  16.242  0.00  0.00    +0.000 A 
ATOM      4  C   UNL     1      47.630   4.195  15.850  0.00  0.00    +0.000 A 
ATOM      5  C   UNL     1      47.558   3.175  16.800  0.00  0.00    +0.000 A 
ATOM      6  C   UNL     1      47.904   3.425  18.131  0.00  0.00    +0.000 A 
ATOM      7  C   UNL     1      48.361   4.692  18.536  0.00  0.00    +0.000 A 
BRANCH   7   8
ATOM      8  C   UNL     1      48.601   4.945  19.992  0.00  0.00    +0.000 C 
ATOM      9  N   UNL     1      47.550   5.402  20.740  0.00  0.00    +0.000 N 
ATOM     10  O   UNL     1      49.688   4.767  20.524  0.00  0.00    +0.000 OA
ATOM     11  H   UNL     1      46.599   5.453  20.408  0.00  0.00    +0.000 HD
ATOM     12  H   UNL     1      47.722   5.538  21.726  0.00  0.00    +0.000 HD
ENDBRANCH   7   8
BRANCH   2  13
ATOM     13  C   UNL     1      49.134   7.063  17.861  0.00  0.00    +0.000 C 
BRANCH  13  15
ATOM     14  C   UNL     1      48.077   9.254  17.063  0.00  0.00    +0.000 C 
ATOM     15  C   UNL     1      48.109   8.176  18.135  0.00  0.00    +0.000 C 
ENDBRANCH  13  15
ENDBRANCH   2  13
ENDBRANCH   1   4
BRANCH   1  16
ATOM     16  C   UNL     1      46.488   5.163  13.830  0.00  0.00    +0.000 C 
BRANCH  16  17
ATOM     17  C   UNL     1      45.270   4.802  13.005  0.00  0.00    +0.000 A 
ATOM     18  C   UNL     1      44.094   5.555  13.090  0.00  0.00    +0.000 A 
ATOM     19  C   UNL     1      42.988   5.225  12.307  0.00  0.00    +0.000 A 
ATOM     20  C   UNL     1      43.041   4.134  11.437  0.00  0.00    +0.000 A 
ATOM     21  C   UNL     1      44.203   3.369  11.332  0.00  0.00    +0.000 A 
ATOM     22  C   UNL     1      45.316   3.725  12.110  0.00  0.00    +0.000 A 
BRANCH  21  23
ATOM     23  N   UNL     1      44.334   2.286  10.435  0.00  0.00    +0.000 N 
ATOM     24  H   UNL     1      44.974   1.601  10.840  0.00  0.00    +0.000 HD
BRANCH  23  25
ATOM     25  C   UNL     1      44.506   2.404   9.007  0.00  0.00    +0.000 C 
ATOM     26  C   UNL     1      45.860   1.834   8.532  0.00  0.00    +0.000 C 
ATOM     27  N   UNL     1      46.102   3.064   7.756  0.00  0.00    +0.000 NA
ATOM     28  C   UNL     1      45.035   3.758   8.504  0.00  0.00    +0.000 C 
ATOM     29  H   UNL     1      45.900   2.958   6.762  0.00  0.00    +0.000 HD
ENDBRANCH  23  25
ENDBRANCH  21  23
ENDBRANCH  16  17
ENDBRANCH   1  16
TORSDOF 8
ENDMDL
MODEL 7
REMARK VINA RESULT:    -6.388      2.904      4.893
REMARK INTER + INTRA:         -10.272
REMARK INTER:                  -8.920
REMARK INTRA:                  -1.351
REMARK UNBOUND:                -0.896
REMARK  Name = 
REMARK  9 active torsions:
REMARK  status: ('A' for Active; 'I' for Inactive)
REMARK    1  A    between atoms: C_1  and  C_2
REMARK    2  A    between atoms: C_2  and  C_3
REMARK    3  A    between atoms: C_3  and  C_4
REMARK    4  A    between atoms: C_6  and  C_7
REMARK    5  A    between atoms: C_7  and  C_8
REMARK    6  A    between atoms: C_8  and  C_9
REMARK    7  A    between atoms: C_13  and  N_14
REMARK    8  A    between atoms: N_14  and  C_15
REMARK    9  A    between atoms: C_22  and  C_23
REMARK                            x       y       z     vdW  Elec       q    Type
REMARK                         _______ _______ _______ _____ _____    ______ ____
ROOT
ATOM      1  C   UNL     1      48.965   7.528  14.323  0.00  0.00    +0.000 C 
ENDROOT
BRANCH   1   4
ATOM      2  C   UNL     1      48.089   5.106  17.167  0.00  0.00    +0.000 A 
ATOM      3  C   UNL     1      48.319   5.649  15.886  0.00  0.00    +0.000 A 
ATOM      4  C   UNL     1      48.727   6.978  15.710  0.00  0.00    +0.000 A 
ATOM      5  C   UNL     1      48.888   7.787  16.837  0.00  0.00    +0.000 A 
ATOM      6  C   UNL     1      48.710   7.257  18.117  0.00  0.00    +0.000 A 
ATOM      7  C   UNL     1      48.332   5.914  18.299  0.00  0.00    +0.000 A 
BRANCH   7   8
ATOM      8  C   UNL     1      48.273   5.361  19.689  0.00  0.00    +0.000 C 
ATOM      9  N   UNL     1      47.119   5.547  20.400  0.00  0.00    +0.000 N 
ATOM     10  O   UNL     1      49.209   4.765  20.206  0.00  0.00    +0.000 OA
ATOM     11  H   UNL     1      46.264   5.911  20.005  0.00  0.00    +0.000 HD
ATOM     12  H   UNL     1      47.085   5.140  21.324  0.00  0.00    +0.000 HD
ENDBRANCH   7   8
BRANCH   2  13
ATOM     13  C   UNL     1      47.539   3.695  17.239  0.00  0.00    +0.000 C 
BRANCH  13  15
ATOM     14  C   UNL     1      49.826   2.563  17.443  0.00  0.00    +0.000 C 
ATOM     15  C   UNL     1      48.498   2.621  16.702  0.00  0.00    +0.000 C 
ENDBRANCH  13  15
ENDBRANCH   2  13
ENDBRANCH   1   4
BRANCH   1  16
ATOM     16  C   UNL     1      48.490   6.552  13.244  0.00  0.00    +0.000 C 
BRANCH  16  17
ATOM     17  C   UNL     1      47.133   6.898  12.666  0.00  0.00    +0.000 A 
ATOM     18  C   UNL     1      46.502   8.106  12.984  0.00  0.00    +0.000 A 
ATOM     19  C   UNL     1      45.264   8.421  12.426  0.00  0.00    +0.000 A 
ATOM     20  C   UNL     1      44.637   7.531  11.552  0.00  0.00    +0.000 A 
ATOM     21  C   UNL     1      45.247   6.321  11.216  0.00  0.00    +0.000 A 
ATOM     22  C   UNL     1      46.503   6.025  11.768  0.00  0.00    +0.000 A 
BRANCH  21  23
ATOM     23  N   UNL     1      44.686   5.404  10.300  0.00  0.00    +0.000 N 
ATOM     24  H   UNL     1      44.491   5.895   9.426  0.00  0.00    +0.000 HD
BRANCH  23  25
ATOM     25  C   UNL     1      43.666   4.434  10.612  0.00  0.00    +0.000 C 
ATOM     26  C   UNL     1      43.650   4.062  12.110  0.00  0.00    +0.000 C 
ATOM     27  N   UNL     1      43.632   2.631  11.752  0.00  0.00    +0.000 NA
ATOM     28  C   UNL     1      44.043   2.962  10.374  0.00  0.00    +0.000 C 
ATOM     29  H   UNL     1      42.703   2.215  11.812  0.00  0.00    +0.000 HD
ENDBRANCH  23  25
ENDBRANCH  21  23
ENDBRANCH  16  17
ENDBRANCH   1  16
TORSDOF 8
ENDMDL
MODEL 8
REMARK VINA RESULT:    -6.140      3.406      4.977
REMARK INTER + INTRA:          -9.908
REMARK INTER:                  -8.742
REMARK INTRA:                  -1.166
REMARK UNBOUND:                -0.896
REMARK  Name = 
REMARK  9 active torsions:
REMARK  status: ('A' for Active; 'I' for Inactive)
REMARK    1  A    between atoms: C_1  and  C_2
REMARK    2  A    between atoms: C_2  and  C_3
REMARK    3  A    between atoms: C_3  and  C_4
REMARK    4  A    between atoms: C_6  and  C_7
REMARK    5  A    between atoms: C_7  and  C_8
REMARK    6  A    between atoms: C_8  and  C_9
REMARK    7  A    between atoms: C_13  and  N_14
REMARK    8  A    between atoms: N_14  and  C_15
REMARK    9  A    between atoms: C_22  and  C_23
REMARK                            x       y       z     vdW  Elec       q    Type
REMARK                         _______ _______ _______ _____ _____    ______ ____
ROOT
ATOM      1  C   UNL     1      48.358   7.565  12.549  0.00  0.00    +0.000 C 
ENDROOT
BRANCH   1   4
ATOM      2  C   UNL     1      48.664   5.948  16.015  0.00  0.00    +0.000 A 
ATOM      3  C   UNL     1      48.832   6.817  14.917  0.00  0.00    +0.000 A 
ATOM      4  C   UNL     1      48.156   6.615  13.706  0.00  0.00    +0.000 A 
ATOM      5  C   UNL     1      47.312   5.510  13.583  0.00  0.00    +0.000 A 
ATOM      6  C   UNL     1      47.097   4.662  14.673  0.00  0.00    +0.000 A 
ATOM      7  C   UNL     1      47.748   4.881  15.901  0.00  0.00    +0.000 A 
BRANCH   7   8
ATOM      8  C   UNL     1      47.391   4.020  17.073  0.00  0.00    +0.000 C 
ATOM      9  N   UNL     1      47.920   2.759  17.120  0.00  0.00    +0.000 N 
ATOM     10  O   UNL     1      46.649   4.396  17.970  0.00  0.00    +0.000 OA
ATOM     11  H   UNL     1      48.635   2.421  16.493  0.00  0.00    +0.000 HD
ATOM     12  H   UNL     1      47.694   2.203  17.933  0.00  0.00    +0.000 HD
ENDBRANCH   7   8
BRANCH   2  13
ATOM     13  C   UNL     1      49.530   6.191  17.236  0.00  0.00    +0.000 C 
BRANCH  13  15
ATOM     14  C   UNL     1      50.961   4.607  18.649  0.00  0.00    +0.000 C 
ATOM     15  C   UNL     1      50.779   5.298  17.305  0.00  0.00    +0.000 C 
ENDBRANCH  13  15
ENDBRANCH   2  13
ENDBRANCH   1   4
BRANCH   1  16
ATOM     16  C   UNL     1      47.759   8.943  12.844  0.00  0.00    +0.000 C 
BRANCH  16  17
ATOM     17  C   UNL     1      46.408   9.170  12.198  0.00  0.00    +0.000 A 
ATOM     18  C   UNL     1      46.015  10.446  11.779  0.00  0.00    +0.000 A 
ATOM     19  C   UNL     1      44.778  10.635  11.164  0.00  0.00    +0.000 A 
ATOM     20  C   UNL     1      43.916   9.554  10.968  0.00  0.00    +0.000 A 
ATOM     21  C   UNL     1      44.286   8.271  11.373  0.00  0.00    +0.000 A 
ATOM     22  C   UNL     1      45.542   8.091  11.972  0.00  0.00    +0.000 A 
BRANCH  21  23
ATOM     23  N   UNL     1      43.479   7.132  11.156  0.00  0.00    +0.000 N 
ATOM     24  H   UNL     1      42.507   7.380  11.348  0.00  0.00    +0.000 HD
BRANCH  23  25
ATOM     25  C   UNL     1      43.791   5.795  11.596  0.00  0.00    +0.000 C 
ATOM     26  C   UNL     1      43.533   4.742  10.498  0.00  0.00    +0.000 C 
ATOM     27  N   UNL     1      42.785   3.918  11.466  0.00  0.00    +0.000 NA
ATOM     28  C   UNL     1      42.685   5.071  12.383  0.00  0.00    +0.000 C 
ATOM     29  H   UNL     1      43.334   3.145  11.843  0.00  0.00    +0.000 HD
ENDBRANCH  23  25
ENDBRANCH  21  23
ENDBRANCH  16  17
ENDBRANCH   1  16
TORSDOF 8
ENDMDL
MODEL 9
REMARK VINA RESULT:    -6.017      4.396      7.968
REMARK INTER + INTRA:          -9.727
REMARK INTER:                  -8.379
REMARK INTRA:                  -1.348
REMARK UNBOUND:                -0.896
REMARK  Name = 
REMARK  9 active torsions:
REMARK  status: ('A' for Active; 'I' for Inactive)
REMARK    1  A    between atoms: C_1  and  C_2
REMARK    2  A    between atoms: C_2  and  C_3
REMARK    3  A    between atoms: C_3  and  C_4
REMARK    4  A    between atoms: C_6  and  C_7
REMARK    5  A    between atoms: C_7  and  C_8
REMARK    6  A    between atoms: C_8  and  C_9
REMARK    7  A    between atoms: C_13  and  N_14
REMARK    8  A    between atoms: N_14  and  C_15
REMARK    9  A    between atoms: C_22  and  C_23
REMARK                            x       y       z     vdW  Elec       q    Type
REMARK                         _______ _______ _______ _____ _____    ______ ____
ROOT
ATOM      1  C   UNL     1      49.007   6.974  12.846  0.00  0.00    +0.000 C 
ENDROOT
BRANCH   1   4
ATOM      2  C   UNL     1      45.322   7.378  11.858  0.00  0.00    +0.000 A 
ATOM      3  C   UNL     1      46.690   7.638  12.087  0.00  0.00    +0.000 A 
ATOM      4  C   UNL     1      47.547   6.663  12.613  0.00  0.00    +0.000 A 
ATOM      5  C   UNL     1      47.024   5.410  12.937  0.00  0.00    +0.000 A 
ATOM      6  C   UNL     1      45.682   5.117  12.676  0.00  0.00    +0.000 A 
ATOM      7  C   UNL     1      44.825   6.082  12.116  0.00  0.00    +0.000 A 
BRANCH   7   8
ATOM      8  C   UNL     1      43.432   5.683  11.743  0.00  0.00    +0.000 C 
ATOM      9  N   UNL     1      42.485   5.677  12.730  0.00  0.00    +0.000 N 
ATOM     10  O   UNL     1      43.118   5.360  10.605  0.00  0.00    +0.000 OA
ATOM     11  H   UNL     1      42.631   6.049  13.657  0.00  0.00    +0.000 HD
ATOM     12  H   UNL     1      41.544   5.435  12.454  0.00  0.00    +0.000 HD
ENDBRANCH   7   8
BRANCH   2  13
ATOM     13  C   UNL     1      44.459   8.536  11.396  0.00  0.00    +0.000 C 
BRANCH  13  15
ATOM     14  C   UNL     1      45.310  10.932  11.098  0.00  0.00    +0.000 C 
ATOM     15  C   UNL     1      44.800   9.876  12.067  0.00  0.00    +0.000 C 
ENDBRANCH  13  15
ENDBRANCH   2  13
ENDBRANCH   1   4
BRANCH   1  16
ATOM     16  C   UNL     1      49.184   8.248  13.676  0.00  0.00    +0.000 C 
BRANCH  16  17
ATOM     17  C   UNL     1      48.991   8.037  15.164  0.00  0.00    +0.000 A 
ATOM     18  C   UNL     1      48.514   9.066  15.982  0.00  0.00    +0.000 A 
ATOM     19  C   UNL     1      48.319   8.849  17.345  0.00  0.00    +0.000 A 
ATOM     20  C   UNL     1      48.607   7.605  17.909  0.00  0.00    +0.000 A 
ATOM     21  C   UNL     1      49.081   6.561  17.114  0.00  0.00    +0.000 A 
ATOM     22  C   UNL     1      49.253   6.786  15.740  0.00  0.00    +0.000 A 
BRANCH  21  23
ATOM     23  N   UNL     1      49.342   5.267  17.618  0.00  0.00    +0.000 N 
ATOM     24  H   UNL     1      49.911   4.761  16.937  0.00  0.00    +0.000 HD
BRANCH  23  25
ATOM     25  C   UNL     1      48.371   4.409  18.251  0.00  0.00    +0.000 C 
ATOM     26  C   UNL     1      48.390   2.978  17.673  0.00  0.00    +0.000 C 
ATOM     27  N   UNL     1      46.923   3.020  17.526  0.00  0.00    +0.000 NA
ATOM     28  C   UNL     1      46.940   4.486  17.691  0.00  0.00    +0.000 C 
ATOM     29  H   UNL     1      46.431   2.531  18.273  0.00  0.00    +0.000 HD
ENDBRANCH  23  25
ENDBRANCH  21  23
ENDBRANCH  16  17
ENDBRANCH   1  16
TORSDOF 8
ENDMDL
