MODEL 1
REMARK VINA RESULT:    -7.743      0.000      0.000
REMARK INTER + INTRA:         -11.888
REMARK INTER:                 -10.912
REMARK INTRA:                  -0.976
REMARK UNBOUND:                -0.976
REMARK  Name = 
REMARK  10 active torsions:
REMARK  status: ('A' for Active; 'I' for Inactive)
REMARK    1  A    between atoms: C_1  and  C_2
REMARK    2  A    between atoms: C_8  and  C_9
REMARK    3  A    between atoms: N_11  and  C_12
REMARK    4  A    between atoms: N_11  and  C_13
REMARK    5  A    between atoms: C_13  and  C_14
REMARK    6  A    between atoms: C_17  and  N_18
REMARK    7  A    between atoms: N_18  and  C_19
REMARK    8  A    between atoms: C_19  and  C_20
REMARK    9  A    between atoms: C_20  and  N_21
REMARK   10  A    between atoms: C_30  and  C_31
REMARK                            x       y       z     vdW  Elec       q    Type
REMARK                         _______ _______ _______ _____ _____    ______ ____
ROOT
ATOM      1  C   UNL     1      48.312   6.067  13.935  0.00  0.00    +0.000 C 
ENDROOT
BRANCH   1   2
ATOM      2  C   UNL     1      47.030   5.973  13.153  0.00  0.00    +0.000 A 
ATOM      3  C   UNL     1      46.967   6.500  11.856  0.00  0.00    +0.000 A 
ATOM      4  C   UNL     1      45.868   6.233  11.040  0.00  0.00    +0.000 A 
ATOM      5  C   UNL     1      44.824   5.428  11.495  0.00  0.00    +0.000 A 
ATOM      6  C   UNL     1      44.835   5.017  12.832  0.00  0.00    +0.000 A 
ATOM      7  C   UNL     1      45.935   5.266  13.653  0.00  0.00    +0.000 A 
BRANCH   5   8
ATOM      8  N   UNL     1      43.720   5.074  10.721  0.00  0.00    +0.000 N 
ATOM      9  H   UNL     1      43.079   5.859  10.591  0.00  0.00    +0.000 HD
BRANCH   8  10
ATOM     10  C   UNL     1      43.966   4.407   9.443  0.00  0.00    +0.000 C 
BRANCH  10  11
ATOM     11  C   UNL     1      44.621   3.035   9.713  0.00  0.00    +0.000 C 
BRANCH  11  12
ATOM     12  N   UNL     1      45.770   2.738   8.826  0.00  0.00    +0.000 NA
ATOM     13  C   UNL     1      45.772   1.340   8.370  0.00  0.00    +0.000 C 
ATOM     14  C   UNL     1      46.993   1.046   7.499  0.00  0.00    +0.000 C 
ATOM     15  C   UNL     1      47.076   2.001   6.316  0.00  0.00    +0.000 C 
ATOM     16  C   UNL     1      46.988   3.446   6.792  0.00  0.00    +0.000 C 
ATOM     17  C   UNL     1      45.764   3.662   7.681  0.00  0.00    +0.000 C 
ENDBRANCH  11  12
ENDBRANCH  10  11
ENDBRANCH   8  10
ENDBRANCH   5   8
ENDBRANCH   1   2
BRANCH   1  20
ATOM     18  C   UNL     1      48.645   6.799  16.322  0.00  0.00    +0.000 C 
ATOM     19  O   UNL     1      48.881   7.678  17.150  0.00  0.00    +0.000 OA
ATOM     20  N   UNL     1      48.456   7.108  14.952  0.00  0.00    +0.000 N 
ATOM     21  C   UNL     1      48.536   8.499  14.530  0.00  0.00    +0.000 C 
BRANCH  18  29
ATOM     22  C   UNL     1      52.967   3.015  18.112  0.00  0.00    +0.000 C 
ATOM     23  C   UNL     1      51.592   3.480  17.797  0.00  0.00    +0.000 A 
ATOM     24  N   UNL     1      50.514   2.656  17.956  0.00  0.00    +0.000 N 
ATOM     25  C   UNL     1      49.376   3.305  17.595  0.00  0.00    +0.000 A 
ATOM     26  N   UNL     1      48.167   2.728  17.660  0.00  0.00    +0.000 NA
ATOM     27  C   UNL     1      47.202   3.540  17.236  0.00  0.00    +0.000 A 
ATOM     28  N   UNL     1      47.343   4.793  16.798  0.00  0.00    +0.000 NA
ATOM     29  C   UNL     1      48.583   5.371  16.788  0.00  0.00    +0.000 A 
ATOM     30  C   UNL     1      49.694   4.598  17.179  0.00  0.00    +0.000 A 
ATOM     31  C   UNL     1      51.130   4.705  17.324  0.00  0.00    +0.000 A 
ATOM     32  C   UNL     1      52.040   5.850  17.041  0.00  0.00    +0.000 C 
ATOM     33  H   UNL     1      50.528   1.703  18.289  0.00  0.00    +0.000 HD
ENDBRANCH  18  29
ENDBRANCH   1  20
TORSDOF 7
ENDMDL
MODEL 2
REMARK VINA RESULT:    -7.416      2.197      2.695
REMARK INTER + INTRA:         -11.427
REMARK INTER:                 -10.617
REMARK INTRA:                  -0.810
REMARK UNBOUND:                -0.976
REMARK  Name = 
REMARK  10 active torsions:
REMARK  status: ('A' for Active; 'I' for Inactive)
REMARK    1  A    between atoms: C_1  and  C_2
REMARK    2  A    between atoms: C_8  and  C_9
REMARK    3  A    between atoms: N_11  and  C_12
REMARK    4  A    between atoms: N_11  and  C_13
REMARK    5  A    between atoms: C_13  and  C_14
REMARK    6  A    between atoms: C_17  and  N_18
REMARK    7  A    between atoms: N_18  and  C_19
REMARK    8  A    between atoms: C_19  and  C_20
REMARK    9  A    between atoms: C_20  and  N_21
REMARK   10  A    between atoms: C_30  and  C_31
REMARK                            x       y       z     vdW  Elec       q    Type
REMARK                         _______ _______ _______ _____ _____    ______ ____
ROOT
ATOM      1  C   UNL     1      47.728   8.336  14.568  0.00  0.00    +0.000 C 
ENDROOT
BRANCH   1   2
ATOM      2  C   UNL     1      47.115   7.862  13.278  0.00  0.00    +0.000 A 
ATOM      3  C   UNL     1      47.932   7.308  12.283  0.00  0.00    +0.000 A 
ATOM      4  C   UNL     1      47.365   6.670  11.181  0.00  0.00    +0.000 A 
ATOM      5  C   UNL     1      45.979   6.560  11.058  0.00  0.00    +0.000 A 
ATOM      6  C   UNL     1      45.175   7.228  11.987  0.00  0.00    +0.000 A 
ATOM      7  C   UNL     1      45.730   7.858  13.100  0.00  0.00    +0.000 A 
BRANCH   5   8
ATOM      8  N   UNL     1      45.342   5.892  10.015  0.00  0.00    +0.000 N 
ATOM      9  H   UNL     1      45.832   6.016   9.127  0.00  0.00    +0.000 HD
BRANCH   8  10
ATOM     10  C   UNL     1      45.000   4.483  10.210  0.00  0.00    +0.000 C 
BRANCH  10  11
ATOM     11  C   UNL     1      44.226   3.980   8.974  0.00  0.00    +0.000 C 
BRANCH  11  12
ATOM     12  N   UNL     1      45.020   3.092   8.092  0.00  0.00    +0.000 NA
ATOM     13  C   UNL     1      46.083   3.820   7.383  0.00  0.00    +0.000 C 
ATOM     14  C   UNL     1      46.853   2.892   6.443  0.00  0.00    +0.000 C 
ATOM     15  C   UNL     1      47.422   1.693   7.189  0.00  0.00    +0.000 C 
ATOM     16  C   UNL     1      46.329   0.996   7.989  0.00  0.00    +0.000 C 
ATOM     17  C   UNL     1      45.580   1.984   8.882  0.00  0.00    +0.000 C 
ENDBRANCH  11  12
ENDBRANCH  10  11
ENDBRANCH   8  10
ENDBRANCH   5   8
ENDBRANCH   1   2
BRANCH   1  20
ATOM     18  C   UNL     1      49.609   6.943  15.495  0.00  0.00    +0.000 C 
ATOM     19  O   UNL     1      50.811   6.696  15.596  0.00  0.00    +0.000 OA
ATOM     20  N   UNL     1      49.148   8.098  14.816  0.00  0.00    +0.000 N 
ATOM     21  C   UNL     1      50.127   9.008  14.238  0.00  0.00    +0.000 C 
BRANCH  18  29
ATOM     22  C   UNL     1      47.397   6.460  21.070  0.00  0.00    +0.000 C 
ATOM     23  C   UNL     1      47.586   6.132  19.634  0.00  0.00    +0.000 A 
ATOM     24  N   UNL     1      46.910   5.098  19.050  0.00  0.00    +0.000 N 
ATOM     25  C   UNL     1      47.259   4.995  17.741  0.00  0.00    +0.000 A 
ATOM     26  N   UNL     1      46.736   4.065  16.928  0.00  0.00    +0.000 NA
ATOM     27  C   UNL     1      47.239   4.136  15.698  0.00  0.00    +0.000 A 
ATOM     28  N   UNL     1      48.146   5.008  15.251  0.00  0.00    +0.000 NA
ATOM     29  C   UNL     1      48.625   5.976  16.092  0.00  0.00    +0.000 A 
ATOM     30  C   UNL     1      48.196   5.982  17.434  0.00  0.00    +0.000 A 
ATOM     31  C   UNL     1      48.394   6.719  18.663  0.00  0.00    +0.000 A 
ATOM     32  C   UNL     1      49.273   7.887  18.951  0.00  0.00    +0.000 C 
ATOM     33  H   UNL     1      46.245   4.485  19.498  0.00  0.00    +0.000 HD
ENDBRANCH  18  29
ENDBRANCH   1  20
TORSDOF 7
ENDMDL
MODEL 3
REMARK VINA RESULT:    -7.152      2.088      8.521
REMARK INTER + INTRA:         -11.054
REMARK INTER:                  -9.973
REMARK INTRA:                  -1.081
REMARK UNBOUND:                -0.976
REMARK  Name = 
REMARK  10 active torsions:
REMARK  status: ('A' for Active; 'I' for Inactive)
REMARK    1  A    between atoms: C_1  and  C_2
REMARK    2  A    between atoms: C_8  and  C_9
REMARK    3  A    between atoms: N_11  and  C_12
REMARK    4  A    between atoms: N_11  and  C_13
REMARK    5  A    between atoms: C_13  and  C_14
REMARK    6  A    between atoms: C_17  and  N_18
REMARK    7  A    between atoms: N_18  and  C_19
REMARK    8  A    between atoms: C_19  and  C_20
REMARK    9  A    between atoms: C_20  and  N_21
REMARK   10  A    between atoms: C_30  and  C_31
REMARK                            x       y       z     vdW  Elec       q    Type
REMARK                         _______ _______ _______ _____ _____    ______ ____
ROOT
ATOM      1  C   UNL     1      47.364   6.150  12.513  0.00  0.00    +0.000 C 
ENDROOT
BRANCH   1   2
ATOM      2  C   UNL     1      47.573   5.892  13.981  0.00  0.00    +0.000 A 
ATOM      3  C   UNL     1      47.005   4.756  14.575  0.00  0.00    +0.000 A 
ATOM      4  C   UNL     1      47.362   4.386  15.870  0.00  0.00    +0.000 A 
ATOM      5  C   UNL     1      48.300   5.128  16.589  0.00  0.00    +0.000 A 
ATOM      6  C   UNL     1      48.760   6.329  16.038  0.00  0.00    +0.000 A 
ATOM      7  C   UNL     1      48.420   6.703  14.738  0.00  0.00    +0.000 A 
BRANCH   5   8
ATOM      8  N   UNL     1      48.746   4.791  17.865  0.00  0.00    +0.000 N 
ATOM      9  H   UNL     1      47.974   4.707  18.528  0.00  0.00    +0.000 HD
BRANCH   8  10
ATOM     10  C   UNL     1      49.651   3.649  17.995  0.00  0.00    +0.000 C 
BRANCH  10  11
ATOM     11  C   UNL     1      51.094   4.171  18.161  0.00  0.00    +0.000 C 
BRANCH  11  12
ATOM     12  N   UNL     1      52.108   3.097  18.279  0.00  0.00    +0.000 NA
ATOM     13  C   UNL     1      51.731   1.893  17.524  0.00  0.00    +0.000 C 
ATOM     14  C   UNL     1      52.767   0.784  17.704  0.00  0.00    +0.000 C 
ATOM     15  C   UNL     1      54.161   1.255  17.310  0.00  0.00    +0.000 C 
ATOM     16  C   UNL     1      54.508   2.551  18.033  0.00  0.00    +0.000 C 
ATOM     17  C   UNL     1      53.417   3.603  17.839  0.00  0.00    +0.000 C 
ENDBRANCH  11  12
ENDBRANCH  10  11
ENDBRANCH   8  10
ENDBRANCH   5   8
ENDBRANCH   1   2
BRANCH   1  20
ATOM     18  C   UNL     1      45.051   6.957  11.930  0.00  0.00    +0.000 C 
ATOM     19  O   UNL     1      44.264   7.873  11.692  0.00  0.00    +0.000 OA
ATOM     20  N   UNL     1      46.437   7.200  12.095  0.00  0.00    +0.000 N 
ATOM     21  C   UNL     1      46.929   8.565  11.970  0.00  0.00    +0.000 C 
BRANCH  18  29
ATOM     22  C   UNL     1      45.358   2.198   8.262  0.00  0.00    +0.000 C 
ATOM     23  C   UNL     1      44.998   2.977   9.474  0.00  0.00    +0.000 A 
ATOM     24  N   UNL     1      44.293   2.408  10.497  0.00  0.00    +0.000 N 
ATOM     25  C   UNL     1      44.083   3.321  11.480  0.00  0.00    +0.000 A 
ATOM     26  N   UNL     1      43.420   3.024  12.608  0.00  0.00    +0.000 NA
ATOM     27  C   UNL     1      43.314   4.075  13.418  0.00  0.00    +0.000 A 
ATOM     28  N   UNL     1      43.794   5.302  13.206  0.00  0.00    +0.000 NA
ATOM     29  C   UNL     1      44.508   5.562  12.068  0.00  0.00    +0.000 A 
ATOM     30  C   UNL     1      44.658   4.538  11.112  0.00  0.00    +0.000 A 
ATOM     31  C   UNL     1      45.257   4.302   9.816  0.00  0.00    +0.000 A 
ATOM     32  C   UNL     1      46.016   5.226   8.928  0.00  0.00    +0.000 C 
ATOM     33  H   UNL     1      43.963   1.455  10.543  0.00  0.00    +0.000 HD
ENDBRANCH  18  29
ENDBRANCH   1  20
TORSDOF 7
ENDMDL
MODEL 4
REMARK VINA RESULT:    -7.071      2.992      9.233
REMARK INTER + INTRA:         -10.940
REMARK INTER:                  -9.726
REMARK INTRA:                  -1.214
REMARK UNBOUND:                -0.976
REMARK  Name = 
REMARK  10 active torsions:
REMARK  status: ('A' for Active; 'I' for Inactive)
REMARK    1  A    between atoms: C_1  and  C_2
REMARK    2  A    between atoms: C_8  and  C_9
REMARK    3  A    between atoms: N_11  and  C_12
REMARK    4  A    between atoms: N_11  and  C_13
REMARK    5  A    between atoms: C_13  and  C_14
REMARK    6  A    between atoms: C_17  and  N_18
REMARK    7  A    between atoms: N_18  and  C_19
REMARK    8  A    between atoms: C_19  and  C_20
REMARK    9  A    between atoms: C_20  and  N_21
REMARK   10  A    between atoms: C_30  and  C_31
REMARK                            x       y       z     vdW  Elec       q    Type
REMARK                         _______ _______ _______ _____ _____    ______ ____
ROOT
ATOM      1  C   UNL     1      47.385   6.090  12.608  0.00  0.00    +0.000 C 
ENDROOT
BRANCH   1   2
ATOM      2  C   UNL     1      47.597   5.817  14.073  0.00  0.00    +0.000 A 
ATOM      3  C   UNL     1      47.017   4.683  14.659  0.00  0.00    +0.000 A 
ATOM      4  C   UNL     1      47.375   4.298  15.950  0.00  0.00    +0.000 A 
ATOM      5  C   UNL     1      48.324   5.023  16.672  0.00  0.00    +0.000 A 
ATOM      6  C   UNL     1      48.796   6.223  16.129  0.00  0.00    +0.000 A 
ATOM      7  C   UNL     1      48.455   6.611  14.834  0.00  0.00    +0.000 A 
BRANCH   5   8
ATOM      8  N   UNL     1      48.771   4.670  17.943  0.00  0.00    +0.000 N 
ATOM      9  H   UNL     1      49.493   3.949  17.906  0.00  0.00    +0.000 HD
BRANCH   8  10
ATOM     10  C   UNL     1      49.176   5.744  18.850  0.00  0.00    +0.000 C 
BRANCH  10  11
ATOM     11  C   UNL     1      47.953   6.182  19.684  0.00  0.00    +0.000 C 
BRANCH  11  12
ATOM     12  N   UNL     1      47.944   7.625  20.019  0.00  0.00    +0.000 NA
ATOM     13  C   UNL     1      47.287   8.432  18.980  0.00  0.00    +0.000 C 
ATOM     14  C   UNL     1      47.337   9.920  19.326  0.00  0.00    +0.000 C 
ATOM     15  C   UNL     1      46.725  10.195  20.693  0.00  0.00    +0.000 C 
ATOM     16  C   UNL     1      47.353   9.293  21.748  0.00  0.00    +0.000 C 
ATOM     17  C   UNL     1      47.298   7.825  21.326  0.00  0.00    +0.000 C 
ENDBRANCH  11  12
ENDBRANCH  10  11
ENDBRANCH   8  10
ENDBRANCH   5   8
ENDBRANCH   1   2
BRANCH   1  20
ATOM     18  C   UNL     1      45.094   6.951  12.016  0.00  0.00    +0.000 C 
ATOM     19  O   UNL     1      44.327   7.886  11.788  0.00  0.00    +0.000 OA
ATOM     20  N   UNL     1      46.482   7.165  12.203  0.00  0.00    +0.000 N 
ATOM     21  C   UNL     1      47.000   8.524  12.113  0.00  0.00    +0.000 C 
BRANCH  18  29
ATOM     22  C   UNL     1      45.304   2.290   8.217  0.00  0.00    +0.000 C 
ATOM     23  C   UNL     1      44.962   3.042   9.451  0.00  0.00    +0.000 A 
ATOM     24  N   UNL     1      44.247   2.458  10.459  0.00  0.00    +0.000 N 
ATOM     25  C   UNL     1      44.056   3.348  11.468  0.00  0.00    +0.000 A 
ATOM     26  N   UNL     1      43.389   3.032  12.588  0.00  0.00    +0.000 NA
ATOM     27  C   UNL     1      43.305   4.062  13.427  0.00  0.00    +0.000 A 
ATOM     28  N   UNL     1      43.808   5.286  13.248  0.00  0.00    +0.000 NA
ATOM     29  C   UNL     1      44.525   5.563  12.116  0.00  0.00    +0.000 A 
ATOM     30  C   UNL     1      44.654   4.563  11.132  0.00  0.00    +0.000 A 
ATOM     31  C   UNL     1      45.246   4.351   9.829  0.00  0.00    +0.000 A 
ATOM     32  C   UNL     1      46.021   5.285   8.964  0.00  0.00    +0.000 C 
ATOM     33  H   UNL     1      43.900   1.510  10.480  0.00  0.00    +0.000 HD
ENDBRANCH  18  29
ENDBRANCH   1  20
TORSDOF 7
ENDMDL
MODEL 5
REMARK VINA RESULT:    -7.039      2.310      3.753
REMARK INTER + INTRA:         -10.895
REMARK INTER:                  -9.729
REMARK INTRA:                  -1.166
REMARK UNBOUND:                -0.976
REMARK  Name = 
REMARK  10 active torsions:
REMARK  status: ('A' for Active; 'I' for Inactive)
REMARK    1  A    between atoms: C_1  and  C_2
REMARK    2  A    between atoms: C_8  and  C_9
REMARK    3  A    between atoms: N_11  and  C_12
REMARK    4  A    between atoms: N_11  and  C_13
REMARK    5  A    between atoms: C_13  and  C_14
REMARK    6  A    between atoms: C_17  and  N_18
REMARK    7  A    between atoms: N_18  and  C_19
REMARK    8  A    between atoms: C_19  and  C_20
REMARK    9  A    between atoms: C_20  and  N_21
REMARK   10  A    between atoms: C_30  and  C_31
REMARK                            x       y       z     vdW  Elec       q    Type
REMARK                         _______ _______ _______ _____ _____    ______ ____
ROOT
ATOM      1  C   UNL     1      50.682   6.511  16.391  0.00  0.00    +0.000 C 
ENDROOT
BRANCH   1   2
ATOM      2  C   UNL     1      49.807   6.957  15.251  0.00  0.00    +0.000 A 
ATOM      3  C   UNL     1      50.366   7.681  14.188  0.00  0.00    +0.000 A 
ATOM      4  C   UNL     1      49.627   7.914  13.030  0.00  0.00    +0.000 A 
ATOM      5  C   UNL     1      48.329   7.420  12.904  0.00  0.00    +0.000 A 
ATOM      6  C   UNL     1      47.736   6.815  14.017  0.00  0.00    +0.000 A 
ATOM      7  C   UNL     1      48.470   6.565  15.176  0.00  0.00    +0.000 A 
BRANCH   5   8
ATOM      8  N   UNL     1      47.549   7.567  11.758  0.00  0.00    +0.000 N 
ATOM      9  H   UNL     1      47.974   7.113  10.948  0.00  0.00    +0.000 HD
BRANCH   8  10
ATOM     10  C   UNL     1      46.131   7.218  11.846  0.00  0.00    +0.000 C 
BRANCH  10  11
ATOM     11  C   UNL     1      45.800   6.188  10.745  0.00  0.00    +0.000 C 
BRANCH  11  12
ATOM     12  N   UNL     1      44.712   5.252  11.111  0.00  0.00    +0.000 NA
ATOM     13  C   UNL     1      44.920   3.910  10.544  0.00  0.00    +0.000 C 
ATOM     14  C   UNL     1      43.759   2.979  10.893  0.00  0.00    +0.000 C 
ATOM     15  C   UNL     1      43.540   2.903  12.398  0.00  0.00    +0.000 C 
ATOM     16  C   UNL     1      43.412   4.302  12.988  0.00  0.00    +0.000 C 
ATOM     17  C   UNL     1      44.586   5.188  12.575  0.00  0.00    +0.000 C 
ENDBRANCH  11  12
ENDBRANCH  10  11
ENDBRANCH   8  10
ENDBRANCH   5   8
ENDBRANCH   1   2
BRANCH   1  20
ATOM     18  C   UNL     1      49.722   5.354  18.411  0.00  0.00    +0.000 C 
ATOM     19  O   UNL     1      49.387   5.367  19.595  0.00  0.00    +0.000 OA
ATOM     20  N   UNL     1      50.152   6.533  17.753  0.00  0.00    +0.000 N 
ATOM     21  C   UNL     1      50.185   7.781  18.502  0.00  0.00    +0.000 C 
BRANCH  18  29
ATOM     22  C   UNL     1      53.802   0.957  17.935  0.00  0.00    +0.000 C 
ATOM     23  C   UNL     1      52.514   1.666  17.720  0.00  0.00    +0.000 A 
ATOM     24  N   UNL     1      51.523   1.115  16.959  0.00  0.00    +0.000 N 
ATOM     25  C   UNL     1      50.456   1.955  16.906  0.00  0.00    +0.000 A 
ATOM     26  N   UNL     1      49.337   1.655  16.229  0.00  0.00    +0.000 NA
ATOM     27  C   UNL     1      48.436   2.631  16.296  0.00  0.00    +0.000 A 
ATOM     28  N   UNL     1      48.555   3.790  16.949  0.00  0.00    +0.000 NA
ATOM     29  C   UNL     1      49.689   4.046  17.670  0.00  0.00    +0.000 A 
ATOM     30  C   UNL     1      50.735   3.103  17.647  0.00  0.00    +0.000 A 
ATOM     31  C   UNL     1      52.066   2.902  18.179  0.00  0.00    +0.000 A 
ATOM     32  C   UNL     1      52.895   3.783  19.048  0.00  0.00    +0.000 C 
ATOM     33  H   UNL     1      51.549   0.219  16.492  0.00  0.00    +0.000 HD
ENDBRANCH  18  29
ENDBRANCH   1  20
TORSDOF 7
ENDMDL
MODEL 6
REMARK VINA RESULT:    -6.935      1.889      2.954
REMARK INTER + INTRA:         -10.748
REMARK INTER:                  -9.173
REMARK INTRA:                  -1.575
REMARK UNBOUND:                -0.976
REMARK  Name = 
REMARK  10 active torsions:
REMARK  status: ('A' for Active; 'I' for Inactive)
REMARK    1  A    between atoms: C_1  and  C_2
REMARK    2  A    between atoms: C_8  and  C_9
REMARK    3  A    between atoms: N_11  and  C_12
REMARK    4  A    between atoms: N_11  and  C_13
REMARK    5  A    between atoms: C_13  and  C_14
REMARK    6  A    between atoms: C_17  and  N_18
REMARK    7  A    between atoms: N_18  and  C_19
REMARK    8  A    between atoms: C_19  and  C_20
REMARK    9  A    between atoms: C_20  and  N_21
REMARK   10  A    between atoms: C_30  and  C_31
REMARK                            x       y       z     vdW  Elec       q    Type
REMARK                         _______ _______ _______ _____ _____    ______ ____
ROOT
ATOM      1  C   UNL     1      49.374   7.410  13.862  0.00  0.00    +0.000 C 
ENDROOT
BRANCH   1   2
ATOM      2  C   UNL     1      48.153   6.545  13.705  0.00  0.00    +0.000 A 
ATOM      3  C   UNL     1      47.396   6.619  12.527  0.00  0.00    +0.000 A 
ATOM      4  C   UNL     1      46.397   5.682  12.272  0.00  0.00    +0.000 A 
ATOM      5  C   UNL     1      46.145   4.648  13.175  0.00  0.00    +0.000 A 
ATOM      6  C   UNL     1      46.814   4.661  14.404  0.00  0.00    +0.000 A 
ATOM      7  C   UNL     1      47.824   5.586  14.664  0.00  0.00    +0.000 A 
BRANCH   5   8
ATOM      8  N   UNL     1      45.201   3.645  12.966  0.00  0.00    +0.000 N 
ATOM      9  H   UNL     1      45.128   3.018  13.769  0.00  0.00    +0.000 HD
BRANCH   8  10
ATOM     10  C   UNL     1      43.868   4.042  12.512  0.00  0.00    +0.000 C 
BRANCH  10  11
ATOM     11  C   UNL     1      43.525   3.263  11.224  0.00  0.00    +0.000 C 
BRANCH  11  12
ATOM     12  N   UNL     1      44.625   3.236  10.232  0.00  0.00    +0.000 NA
ATOM     13  C   UNL     1      44.609   2.011   9.419  0.00  0.00    +0.000 C 
ATOM     14  C   UNL     1      45.782   1.984   8.439  0.00  0.00    +0.000 C 
ATOM     15  C   UNL     1      45.795   3.222   7.553  0.00  0.00    +0.000 C 
ATOM     16  C   UNL     1      45.726   4.485   8.403  0.00  0.00    +0.000 C 
ATOM     17  C   UNL     1      44.551   4.432   9.379  0.00  0.00    +0.000 C 
ENDBRANCH  11  12
ENDBRANCH  10  11
ENDBRANCH   8  10
ENDBRANCH   5   8
ENDBRANCH   1   2
BRANCH   1  20
ATOM     18  C   UNL     1      50.078   8.693  15.912  0.00  0.00    +0.000 C 
ATOM     19  O   UNL     1      50.106   9.734  16.567  0.00  0.00    +0.000 OA
ATOM     20  N   UNL     1      49.312   8.589  14.724  0.00  0.00    +0.000 N 
ATOM     21  C   UNL     1      48.539   9.743  14.286  0.00  0.00    +0.000 C 
BRANCH  18  29
ATOM     22  C   UNL     1      48.806   4.246  19.760  0.00  0.00    +0.000 C 
ATOM     23  C   UNL     1      49.608   5.039  18.794  0.00  0.00    +0.000 A 
ATOM     24  N   UNL     1      50.878   4.666  18.454  0.00  0.00    +0.000 N 
ATOM     25  C   UNL     1      51.401   5.552  17.567  0.00  0.00    +0.000 A 
ATOM     26  N   UNL     1      52.637   5.418  17.061  0.00  0.00    +0.000 NA
ATOM     27  C   UNL     1      52.947   6.411  16.232  0.00  0.00    +0.000 A 
ATOM     28  N   UNL     1      52.171   7.442  15.889  0.00  0.00    +0.000 NA
ATOM     29  C   UNL     1      50.898   7.525  16.385  0.00  0.00    +0.000 A 
ATOM     30  C   UNL     1      50.464   6.551  17.304  0.00  0.00    +0.000 A 
ATOM     31  C   UNL     1      49.303   6.204  18.095  0.00  0.00    +0.000 A 
ATOM     32  C   UNL     1      47.988   6.894  18.222  0.00  0.00    +0.000 C 
ATOM     33  H   UNL     1      51.378   3.857  18.794  0.00  0.00    +0.000 HD
ENDBRANCH  18  29
ENDBRANCH   1  20
TORSDOF 7
ENDMDL
MODEL 7
REMARK VINA RESULT:    -6.650      2.252      8.291
REMARK INTER + INTRA:         -10.346
REMARK INTER:                  -9.281
REMARK INTRA:                  -1.065
REMARK UNBOUND:                -0.976
REMARK  Name = 
REMARK  10 active torsions:
REMARK  status: ('A' for Active; 'I' for Inactive)
REMARK    1  A    between atoms: C_1  and  C_2
REMARK    2  A    between atoms: C_8  and  C_9
REMARK    3  A    between atoms: N_11  and  C_12
REMARK    4  A    between atoms: N_11  and  C_13
REMARK    5  A    between atoms: C_13  and  C_14
REMARK    6  A    between atoms: C_17  and  N_18
REMARK    7  A    between atoms: N_18  and  C_19
REMARK    8  A    between atoms: C_19  and  C_20
REMARK    9  A    between atoms: C_20  and  N_21
REMARK   10  A    between atoms: C_30  and  C_31
REMARK                            x       y       z     vdW  Elec       q    Type
REMARK                         _______ _______ _______ _____ _____    ______ ____
ROOT
ATOM      1  C   UNL     1      47.390   6.351  12.177  0.00  0.00    +0.000 C 
ENDROOT
BRANCH   1   2
ATOM      2  C   UNL     1      48.262   6.535  13.390  0.00  0.00    +0.000 A 
ATOM      3  C   UNL     1      49.461   7.254  13.281  0.00  0.00    +0.000 A 
ATOM      4  C   UNL     1      50.169   7.619  14.424  0.00  0.00    +0.000 A 
ATOM      5  C   UNL     1      49.690   7.290  15.693  0.00  0.00    +0.000 A 
ATOM      6  C   UNL     1      48.566   6.463  15.785  0.00  0.00    +0.000 A 
ATOM      7  C   UNL     1      47.842   6.102  14.648  0.00  0.00    +0.000 A 
BRANCH   5   8
ATOM      8  N   UNL     1      50.314   7.665  16.881  0.00  0.00    +0.000 N 
ATOM      9  H   UNL     1      50.479   8.672  16.922  0.00  0.00    +0.000 HD
BRANCH   8  10
ATOM     10  C   UNL     1      49.730   7.198  18.138  0.00  0.00    +0.000 C 
BRANCH  10  11
ATOM     11  C   UNL     1      50.709   6.210  18.808  0.00  0.00    +0.000 C 
BRANCH  11  12
ATOM     12  N   UNL     1      50.320   4.789  18.659  0.00  0.00    +0.000 NA
ATOM     13  C   UNL     1      48.865   4.623  18.522  0.00  0.00    +0.000 C 
ATOM     14  C   UNL     1      48.486   3.146  18.421  0.00  0.00    +0.000 C 
ATOM     15  C   UNL     1      49.219   2.460  17.276  0.00  0.00    +0.000 C 
ATOM     16  C   UNL     1      50.719   2.710  17.379  0.00  0.00    +0.000 C 
ATOM     17  C   UNL     1      51.024   4.202  17.508  0.00  0.00    +0.000 C 
ENDBRANCH  11  12
ENDBRANCH  10  11
ENDBRANCH   8  10
ENDBRANCH   5   8
ENDBRANCH   1   2
BRANCH   1  20
ATOM     18  C   UNL     1      45.021   7.126  11.815  0.00  0.00    +0.000 C 
ATOM     19  O   UNL     1      44.204   8.029  11.638  0.00  0.00    +0.000 OA
ATOM     20  N   UNL     1      46.414   7.384  11.833  0.00  0.00    +0.000 N 
ATOM     21  C   UNL     1      46.876   8.750  11.628  0.00  0.00    +0.000 C 
BRANCH  18  29
ATOM     22  C   UNL     1      45.353   2.184   8.398  0.00  0.00    +0.000 C 
ATOM     23  C   UNL     1      45.002   3.019   9.575  0.00  0.00    +0.000 A 
ATOM     24  N   UNL     1      44.329   2.492  10.641  0.00  0.00    +0.000 N 
ATOM     25  C   UNL     1      44.120   3.452  11.579  0.00  0.00    +0.000 A 
ATOM     26  N   UNL     1      43.486   3.203  12.735  0.00  0.00    +0.000 NA
ATOM     27  C   UNL     1      43.374   4.293  13.489  0.00  0.00    +0.000 A 
ATOM     28  N   UNL     1      43.825   5.517  13.203  0.00  0.00    +0.000 NA
ATOM     29  C   UNL     1      44.510   5.729  12.038  0.00  0.00    +0.000 A 
ATOM     30  C   UNL     1      44.662   4.659  11.135  0.00  0.00    +0.000 A 
ATOM     31  C   UNL     1      45.240   4.365   9.841  0.00  0.00    +0.000 A 
ATOM     32  C   UNL     1      45.962   5.256   8.889  0.00  0.00    +0.000 C 
ATOM     33  H   UNL     1      44.020   1.536  10.745  0.00  0.00    +0.000 HD
ENDBRANCH  18  29
ENDBRANCH   1  20
TORSDOF 7
ENDMDL
MODEL 8
REMARK VINA RESULT:    -6.492      2.904      4.147
REMARK INTER + INTRA:         -10.125
REMARK INTER:                  -8.616
REMARK INTRA:                  -1.509
REMARK UNBOUND:                -0.976
REMARK  Name = 
REMARK  10 active torsions:
REMARK  status: ('A' for Active; 'I' for Inactive)
REMARK    1  A    between atoms: C_1  and  C_2
REMARK    2  A    between atoms: C_8  and  C_9
REMARK    3  A    between atoms: N_11  and  C_12
REMARK    4  A    between atoms: N_11  and  C_13
REMARK    5  A    between atoms: C_13  and  C_14
REMARK    6  A    between atoms: C_17  and  N_18
REMARK    7  A    between atoms: N_18  and  C_19
REMARK    8  A    between atoms: C_19  and  C_20
REMARK    9  A    between atoms: C_20  and  N_21
REMARK   10  A    between atoms: C_30  and  C_31
REMARK                            x       y       z     vdW  Elec       q    Type
REMARK                         _______ _______ _______ _____ _____    ______ ____
ROOT
ATOM      1  C   UNL     1      50.610   7.042  16.641  0.00  0.00    +0.000 C 
ENDROOT
BRANCH   1   2
ATOM      2  C   UNL     1      49.798   7.775  15.607  0.00  0.00    +0.000 A 
ATOM      3  C   UNL     1      50.122   7.646  14.249  0.00  0.00    +0.000 A 
ATOM      4  C   UNL     1      49.260   8.136  13.270  0.00  0.00    +0.000 A 
ATOM      5  C   UNL     1      48.057   8.749  13.623  0.00  0.00    +0.000 A 
ATOM      6  C   UNL     1      47.806   8.988  14.979  0.00  0.00    +0.000 A 
ATOM      7  C   UNL     1      48.655   8.491  15.967  0.00  0.00    +0.000 A 
BRANCH   5   8
ATOM      8  N   UNL     1      47.121   9.215  12.702  0.00  0.00    +0.000 N 
ATOM      9  H   UNL     1      47.441   9.092  11.740  0.00  0.00    +0.000 HD
BRANCH   8  10
ATOM     10  C   UNL     1      45.739   8.757  12.838  0.00  0.00    +0.000 C 
BRANCH  10  11
ATOM     11  C   UNL     1      45.479   7.640  11.804  0.00  0.00    +0.000 C 
BRANCH  11  12
ATOM     12  N   UNL     1      45.192   6.320  12.411  0.00  0.00    +0.000 NA
ATOM     13  C   UNL     1      44.178   5.569  11.655  0.00  0.00    +0.000 C 
ATOM     14  C   UNL     1      43.864   4.234  12.329  0.00  0.00    +0.000 C 
ATOM     15  C   UNL     1      45.122   3.399  12.522  0.00  0.00    +0.000 C 
ATOM     16  C   UNL     1      46.197   4.213  13.231  0.00  0.00    +0.000 C 
ATOM     17  C   UNL     1      46.439   5.546  12.525  0.00  0.00    +0.000 C 
ENDBRANCH  11  12
ENDBRANCH  10  11
ENDBRANCH   8  10
ENDBRANCH   5   8
ENDBRANCH   1   2
BRANCH   1  20
ATOM     18  C   UNL     1      49.531   6.148  18.733  0.00  0.00    +0.000 C 
ATOM     19  O   UNL     1      49.335   6.206  19.946  0.00  0.00    +0.000 OA
ATOM     20  N   UNL     1      50.249   7.162  18.052  0.00  0.00    +0.000 N 
ATOM     21  C   UNL     1      50.753   8.297  18.814  0.00  0.00    +0.000 C 
BRANCH  18  29
ATOM     22  C   UNL     1      52.152   0.945  17.228  0.00  0.00    +0.000 C 
ATOM     23  C   UNL     1      51.075   1.963  17.326  0.00  0.00    +0.000 A 
ATOM     24  N   UNL     1      49.839   1.738  16.788  0.00  0.00    +0.000 N 
ATOM     25  C   UNL     1      49.038   2.815  16.999  0.00  0.00    +0.000 A 
ATOM     26  N   UNL     1      47.764   2.857  16.579  0.00  0.00    +0.000 NA
ATOM     27  C   UNL     1      47.179   4.014  16.875  0.00  0.00    +0.000 A 
ATOM     28  N   UNL     1      47.725   5.048  17.520  0.00  0.00    +0.000 NA
ATOM     29  C   UNL     1      49.010   4.956  17.978  0.00  0.00    +0.000 A 
ATOM     30  C   UNL     1      49.751   3.792  17.694  0.00  0.00    +0.000 A 
ATOM     31  C   UNL     1      51.065   3.227  17.910  0.00  0.00    +0.000 A 
ATOM     32  C   UNL     1      52.254   3.800  18.600  0.00  0.00    +0.000 C 
ATOM     33  H   UNL     1      49.537   0.907  16.300  0.00  0.00    +0.000 HD
ENDBRANCH  18  29
ENDBRANCH   1  20
TORSDOF 7
ENDMDL
MODEL 9
REMARK VINA RESULT:    -6.271      2.314      3.122
REMARK INTER + INTRA:          -9.813
REMARK INTER:                  -9.097
REMARK INTRA:                  -0.716
REMARK UNBOUND:                -0.976
REMARK  Name = 
REMARK  10 active torsions:
REMARK  status: ('A' for Active; 'I' for Inactive)
REMARK    1  A    between atoms: C_1  and  C_2
REMARK    2  A    between atoms: C_8  and  C_9
REMARK    3  A    between atoms: N_11  and  C_12
REMARK    4  A    between atoms: N_11  and  C_13
REMARK    5  A    between atoms: C_13  and  C_14
REMARK    6  A    between atoms: C_17  and  N_18
REMARK    7  A    between atoms: N_18  and  C_19
REMARK    8  A    between atoms: C_19  and  C_20
REMARK    9  A    between atoms: C_20  and  N_21
REMARK   10  A    between atoms: C_30  and  C_31
REMARK                            x       y       z     vdW  Elec       q    Type
REMARK                         _______ _______ _______ _____ _____    ______ ____
ROOT
ATOM      1  C   UNL     1      48.229   6.888  14.628  0.00  0.00    +0.000 C 
ENDROOT
BRANCH   1   2
ATOM      2  C   UNL     1      47.176   6.562  13.603  0.00  0.00    +0.000 A 
ATOM      3  C   UNL     1      46.574   7.595  12.871  0.00  0.00    +0.000 A 
ATOM      4  C   UNL     1      45.763   7.302  11.777  0.00  0.00    +0.000 A 
ATOM      5  C   UNL     1      45.549   5.981  11.384  0.00  0.00    +0.000 A 
ATOM      6  C   UNL     1      46.045   4.957  12.197  0.00  0.00    +0.000 A 
ATOM      7  C   UNL     1      46.869   5.238  13.287  0.00  0.00    +0.000 A 
BRANCH   5   8
ATOM      8  N   UNL     1      44.795   5.612  10.271  0.00  0.00    +0.000 N 
ATOM      9  H   UNL     1      44.182   6.368   9.959  0.00  0.00    +0.000 HD
BRANCH   8  10
ATOM     10  C   UNL     1      45.499   5.030   9.129  0.00  0.00    +0.000 C 
BRANCH  10  11
ATOM     11  C   UNL     1      44.648   3.881   8.549  0.00  0.00    +0.000 C 
BRANCH  11  12
ATOM     12  N   UNL     1      45.414   2.937   7.704  0.00  0.00    +0.000 NA
ATOM     13  C   UNL     1      46.509   3.601   6.981  0.00  0.00    +0.000 C 
ATOM     14  C   UNL     1      47.252   2.616   6.078  0.00  0.00    +0.000 C 
ATOM     15  C   UNL     1      47.770   1.422   6.867  0.00  0.00    +0.000 C 
ATOM     16  C   UNL     1      46.646   0.792   7.680  0.00  0.00    +0.000 C 
ATOM     17  C   UNL     1      45.927   1.835   8.534  0.00  0.00    +0.000 C 
ENDBRANCH  11  12
ENDBRANCH  10  11
ENDBRANCH   8  10
ENDBRANCH   5   8
ENDBRANCH   1   2
BRANCH   1  20
ATOM     18  C   UNL     1      49.850   8.724  15.212  0.00  0.00    +0.000 C 
ATOM     19  O   UNL     1      50.835   9.410  14.941  0.00  0.00    +0.000 OA
ATOM     20  N   UNL     1      49.310   7.807  14.276  0.00  0.00    +0.000 N 
ATOM     21  C   UNL     1      49.937   7.691  12.967  0.00  0.00    +0.000 C 
BRANCH  18  29
ATOM     22  C   UNL     1      50.173   5.200  20.078  0.00  0.00    +0.000 C 
ATOM     23  C   UNL     1      49.772   6.367  19.251  0.00  0.00    +0.000 A 
ATOM     24  N   UNL     1      48.976   7.354  19.759  0.00  0.00    +0.000 N 
ATOM     25  C   UNL     1      48.745   8.299  18.811  0.00  0.00    +0.000 A 
ATOM     26  N   UNL     1      47.997   9.388  19.048  0.00  0.00    +0.000 NA
ATOM     27  C   UNL     1      47.888  10.163  17.972  0.00  0.00    +0.000 A 
ATOM     28  N   UNL     1      48.438   9.954  16.773  0.00  0.00    +0.000 NA
ATOM     29  C   UNL     1      49.235   8.859  16.577  0.00  0.00    +0.000 A 
ATOM     30  C   UNL     1      49.399   7.940  17.632  0.00  0.00    +0.000 A 
ATOM     31  C   UNL     1      50.069   6.693  17.930  0.00  0.00    +0.000 A 
ATOM     32  C   UNL     1      50.926   5.835  17.065  0.00  0.00    +0.000 C 
ATOM     33  H   UNL     1      48.600   7.401  20.695  0.00  0.00    +0.000 HD
ENDBRANCH  18  29
ENDBRANCH   1  20
TORSDOF 7
ENDMDL
