MODEL 1
REMARK VINA RESULT:    -7.040      0.000      0.000
REMARK INTER + INTRA:          -9.729
REMARK INTER:                  -9.098
REMARK INTRA:                  -0.631
REMARK UNBOUND:                -0.631
REMARK  Name = 
REMARK  5 active torsions:
REMARK  status: ('A' for Active; 'I' for Inactive)
REMARK    1  A    between atoms: C_2  and  C_4
REMARK    2  A    between atoms: C_9  and  C_10
REMARK    3  A    between atoms: C_10  and  O_11
REMARK    4  A    between atoms: O_11  and  C_12
REMARK    5  A    between atoms: C_16  and  C_17
REMARK                            x       y       z     vdW  Elec       q    Type
REMARK                         _______ _______ _______ _____ _____    ______ ____
ROOT
ATOM      1  O   UNL     1      49.164   6.451  14.272  0.00  0.00    +0.000 OA
ENDROOT
BRANCH   1   2
ATOM      2  C   UNL     1      47.921   6.695  13.760  0.00  0.00    +0.000 A 
ATOM      3  C   UNL     1      47.664   8.006  13.375  0.00  0.00    +0.000 A 
ATOM      4  C   UNL     1      46.397   8.353  12.915  0.00  0.00    +0.000 A 
ATOM      5  C   UNL     1      45.402   7.379  12.791  0.00  0.00    +0.000 A 
ATOM      6  C   UNL     1      45.672   6.034  13.073  0.00  0.00    +0.000 A 
ATOM      7  C   UNL     1      46.936   5.720  13.595  0.00  0.00    +0.000 A 
BRANCH   6   8
ATOM      8  C   UNL     1      44.691   4.887  12.842  0.00  0.00    +0.000 C 
ATOM      9  C   UNL     1      45.074   4.056  11.596  0.00  0.00    +0.000 C 
ATOM     10  C   UNL     1      44.726   4.793  10.303  0.00  0.00    +0.000 C 
ATOM     11  N   UNL     1      43.296   5.096  10.234  0.00  0.00    +0.000 NA
ATOM     12  C   UNL     1      42.867   5.909  11.371  0.00  0.00    +0.000 C 
ATOM     13  C   UNL     1      43.205   5.264  12.719  0.00  0.00    +0.000 C 
ATOM     14  H   UNL     1      42.770   4.223  10.228  0.00  0.00    +0.000 HD
ENDBRANCH   6   8
ENDBRANCH   1   2
BRANCH   1  15
ATOM     15  C   UNL     1      49.542   7.322  15.339  0.00  0.00    +0.000 C 
BRANCH  15  21
ATOM     16  C   UNL     1      47.900   5.071  17.938  0.00  0.00    +0.000 A 
ATOM     17  C   UNL     1      47.559   5.997  18.928  0.00  0.00    +0.000 A 
ATOM     18  C   UNL     1      47.862   7.344  18.745  0.00  0.00    +0.000 A 
ATOM     19 CL   UNL     1      47.441   8.489  19.957  0.00  0.00    +0.000 Cl
ATOM     20  C   UNL     1      48.503   7.775  17.587  0.00  0.00    +0.000 A 
ATOM     21  C   UNL     1      48.866   6.851  16.596  0.00  0.00    +0.000 A 
ATOM     22  C   UNL     1      48.560   5.498  16.778  0.00  0.00    +0.000 A 
BRANCH  16  24
ATOM     23  N   UNL     1      48.246   2.939  19.051  0.00  0.00    +0.000 N 
ATOM     24  C   UNL     1      47.591   3.626  18.070  0.00  0.00    +0.000 C 
ATOM     25  O   UNL     1      46.750   3.082  17.367  0.00  0.00    +0.000 OA
ATOM     26  H   UNL     1      47.947   1.982  19.199  0.00  0.00    +0.000 HD
ATOM     27  H   UNL     1      48.740   3.397  19.803  0.00  0.00    +0.000 HD
ENDBRANCH  16  24
ENDBRANCH  15  21
ENDBRANCH   1  15
TORSDOF 5
ENDMDL
MODEL 2
REMARK VINA RESULT:    -6.921      0.950      1.529
REMARK INTER + INTRA:          -9.576
REMARK INTER:                  -8.947
REMARK INTRA:                  -0.629
REMARK UNBOUND:                -0.631
REMARK  Name = 
REMARK  5 active torsions:
REMARK  status: ('A' for Active; 'I' for Inactive)
REMARK    1  A    between atoms: C_2  and  C_4
REMARK    2  A    between atoms: C_9  and  C_10
REMARK    3  A    between atoms: C_10  and  O_11
REMARK    4  A    between atoms: O_11  and  C_12
REMARK    5  A    between atoms: C_16  and  C_17
REMARK                            x       y       z     vdW  Elec       q    Type
REMARK                         _______ _______ _______ _____ _____    ______ ____
ROOT
ATOM      1  O   UNL     1      48.653   6.191  13.779  0.00  0.00    +0.000 OA
ENDROOT
BRANCH   1   2
ATOM      2  C   UNL     1      47.519   6.701  13.214  0.00  0.00    +0.000 A 
ATOM      3  C   UNL     1      47.351   8.077  13.315  0.00  0.00    +0.000 A 
ATOM      4  C   UNL     1      46.185   8.667  12.833  0.00  0.00    +0.000 A 
ATOM      5  C   UNL     1      45.211   7.887  12.203  0.00  0.00    +0.000 A 
ATOM      6  C   UNL     1      45.409   6.516  11.997  0.00  0.00    +0.000 A 
ATOM      7  C   UNL     1      46.561   5.935  12.547  0.00  0.00    +0.000 A 
BRANCH   6   8
ATOM      8  C   UNL     1      44.464   5.614  11.206  0.00  0.00    +0.000 C 
ATOM      9  C   UNL     1      43.070   5.533  11.870  0.00  0.00    +0.000 C 
ATOM     10  C   UNL     1      43.093   4.645  13.114  0.00  0.00    +0.000 C 
ATOM     11  N   UNL     1      43.529   3.287  12.789  0.00  0.00    +0.000 NA
ATOM     12  C   UNL     1      44.860   3.284  12.182  0.00  0.00    +0.000 C 
ATOM     13  C   UNL     1      44.945   4.177  10.939  0.00  0.00    +0.000 C 
ATOM     14  H   UNL     1      42.863   2.869  12.139  0.00  0.00    +0.000 HD
ENDBRANCH   6   8
ENDBRANCH   1   2
BRANCH   1  15
ATOM     15  C   UNL     1      49.289   7.063  14.714  0.00  0.00    +0.000 C 
BRANCH  15  21
ATOM     16  C   UNL     1      47.974   5.066  17.681  0.00  0.00    +0.000 A 
ATOM     17  C   UNL     1      47.890   6.057  18.664  0.00  0.00    +0.000 A 
ATOM     18  C   UNL     1      48.259   7.364  18.357  0.00  0.00    +0.000 A 
ATOM     19 CL   UNL     1      48.154   8.588  19.560  0.00  0.00    +0.000 Cl
ATOM     20  C   UNL     1      48.711   7.692  17.082  0.00  0.00    +0.000 A 
ATOM     21  C   UNL     1      48.817   6.702  16.094  0.00  0.00    +0.000 A 
ATOM     22  C   UNL     1      48.445   5.388  16.401  0.00  0.00    +0.000 A 
BRANCH  16  24
ATOM     23  N   UNL     1      48.262   3.000  18.928  0.00  0.00    +0.000 N 
ATOM     24  C   UNL     1      47.583   3.659  17.944  0.00  0.00    +0.000 C 
ATOM     25  O   UNL     1      46.660   3.126  17.343  0.00  0.00    +0.000 OA
ATOM     26  H   UNL     1      47.913   2.080  19.169  0.00  0.00    +0.000 HD
ATOM     27  H   UNL     1      48.838   3.475  19.607  0.00  0.00    +0.000 HD
ENDBRANCH  16  24
ENDBRANCH  15  21
ENDBRANCH   1  15
TORSDOF 5
ENDMDL
MODEL 3
REMARK VINA RESULT:    -6.824      2.420      3.073
REMARK INTER + INTRA:          -9.450
REMARK INTER:                  -9.360
REMARK INTRA:                  -0.090
REMARK UNBOUND:                -0.631
REMARK  Name = 
REMARK  5 active torsions:
REMARK  status: ('A' for Active; 'I' for Inactive)
REMARK    1  A    between atoms: C_2  and  C_4
REMARK    2  A    between atoms: C_9  and  C_10
REMARK    3  A    between atoms: C_10  and  O_11
REMARK    4  A    between atoms: O_11  and  C_12
REMARK    5  A    between atoms: C_16  and  C_17
REMARK                            x       y       z     vdW  Elec       q    Type
REMARK                         _______ _______ _______ _____ _____    ______ ____
ROOT
ATOM      1  O   UNL     1      47.330   3.578  14.904  0.00  0.00    +0.000 OA
ENDROOT
BRANCH   1   2
ATOM      2  C   UNL     1      46.930   4.513  13.991  0.00  0.00    +0.000 A 
ATOM      3  C   UNL     1      47.777   5.602  13.819  0.00  0.00    +0.000 A 
ATOM      4  C   UNL     1      47.406   6.637  12.966  0.00  0.00    +0.000 A 
ATOM      5  C   UNL     1      46.210   6.559  12.245  0.00  0.00    +0.000 A 
ATOM      6  C   UNL     1      45.395   5.423  12.324  0.00  0.00    +0.000 A 
ATOM      7  C   UNL     1      45.759   4.423  13.238  0.00  0.00    +0.000 A 
BRANCH   6   8
ATOM      8  C   UNL     1      44.145   5.194  11.477  0.00  0.00    +0.000 C 
ATOM      9  C   UNL     1      43.124   4.291  12.206  0.00  0.00    +0.000 C 
ATOM     10  C   UNL     1      43.563   2.827  12.196  0.00  0.00    +0.000 C 
ATOM     11  N   UNL     1      43.724   2.331  10.828  0.00  0.00    +0.000 NA
ATOM     12  C   UNL     1      44.702   3.124  10.085  0.00  0.00    +0.000 C 
ATOM     13  C   UNL     1      44.363   4.618  10.067  0.00  0.00    +0.000 C 
ATOM     14  H   UNL     1      42.824   2.374  10.351  0.00  0.00    +0.000 HD
ENDBRANCH   6   8
ENDBRANCH   1   2
BRANCH   1  15
ATOM     15  C   UNL     1      47.116   3.953  16.264  0.00  0.00    +0.000 C 
BRANCH  15  21
ATOM     16  C   UNL     1      50.580   3.160  17.639  0.00  0.00    +0.000 A 
ATOM     17  C   UNL     1      50.930   4.381  18.224  0.00  0.00    +0.000 A 
ATOM     18  C   UNL     1      50.040   5.451  18.170  0.00  0.00    +0.000 A 
ATOM     19 CL   UNL     1      50.463   6.954  18.891  0.00  0.00    +0.000 Cl
ATOM     20  C   UNL     1      48.808   5.316  17.537  0.00  0.00    +0.000 A 
ATOM     21  C   UNL     1      48.455   4.101  16.931  0.00  0.00    +0.000 A 
ATOM     22  C   UNL     1      49.347   3.025  16.986  0.00  0.00    +0.000 A 
BRANCH  16  24
ATOM     23  N   UNL     1      52.576   2.062  18.485  0.00  0.00    +0.000 N 
ATOM     24  C   UNL     1      51.480   1.981  17.676  0.00  0.00    +0.000 C 
ATOM     25  O   UNL     1      51.228   0.961  17.049  0.00  0.00    +0.000 OA
ATOM     26  H   UNL     1      53.121   1.213  18.582  0.00  0.00    +0.000 HD
ATOM     27  H   UNL     1      52.677   2.767  19.200  0.00  0.00    +0.000 HD
ENDBRANCH  16  24
ENDBRANCH  15  21
ENDBRANCH   1  15
TORSDOF 5
ENDMDL
MODEL 4
REMARK VINA RESULT:    -6.780      1.770      2.000
REMARK INTER + INTRA:          -9.393
REMARK INTER:                  -8.727
REMARK INTRA:                  -0.666
REMARK UNBOUND:                -0.631
REMARK  Name = 
REMARK  5 active torsions:
REMARK  status: ('A' for Active; 'I' for Inactive)
REMARK    1  A    between atoms: C_2  and  C_4
REMARK    2  A    between atoms: C_9  and  C_10
REMARK    3  A    between atoms: C_10  and  O_11
REMARK    4  A    between atoms: O_11  and  C_12
REMARK    5  A    between atoms: C_16  and  C_17
REMARK                            x       y       z     vdW  Elec       q    Type
REMARK                         _______ _______ _______ _____ _____    ______ ____
ROOT
ATOM      1  O   UNL     1      49.175   6.713  14.019  0.00  0.00    +0.000 OA
ENDROOT
BRANCH   1   2
ATOM      2  C   UNL     1      47.888   6.892  13.596  0.00  0.00    +0.000 A 
ATOM      3  C   UNL     1      47.528   8.193  13.266  0.00  0.00    +0.000 A 
ATOM      4  C   UNL     1      46.214   8.473  12.899  0.00  0.00    +0.000 A 
ATOM      5  C   UNL     1      45.273   7.443  12.815  0.00  0.00    +0.000 A 
ATOM      6  C   UNL     1      45.641   6.111  13.041  0.00  0.00    +0.000 A 
ATOM      7  C   UNL     1      46.954   5.863  13.469  0.00  0.00    +0.000 A 
BRANCH   6   8
ATOM      8  C   UNL     1      44.717   4.911  12.843  0.00  0.00    +0.000 C 
ATOM      9  C   UNL     1      45.124   4.080  11.605  0.00  0.00    +0.000 C 
ATOM     10  C   UNL     1      44.720   4.776  10.306  0.00  0.00    +0.000 C 
ATOM     11  N   UNL     1      43.275   5.005  10.254  0.00  0.00    +0.000 NA
ATOM     12  C   UNL     1      42.822   5.814  11.384  0.00  0.00    +0.000 C 
ATOM     13  C   UNL     1      43.212   5.210  12.738  0.00  0.00    +0.000 C 
ATOM     14  H   UNL     1      42.795   4.106  10.269  0.00  0.00    +0.000 HD
ENDBRANCH   6   8
ENDBRANCH   1   2
BRANCH   1  15
ATOM     15  C   UNL     1      49.457   7.275  15.301  0.00  0.00    +0.000 C 
BRANCH  15  21
ATOM     16  C   UNL     1      49.087   4.279  17.626  0.00  0.00    +0.000 A 
ATOM     17  C   UNL     1      50.405   4.098  18.054  0.00  0.00    +0.000 A 
ATOM     18  C   UNL     1      51.404   4.949  17.587  0.00  0.00    +0.000 A 
ATOM     19 CL   UNL     1      53.027   4.734  18.112  0.00  0.00    +0.000 Cl
ATOM     20  C   UNL     1      51.100   5.976  16.698  0.00  0.00    +0.000 A 
ATOM     21  C   UNL     1      49.784   6.154  16.247  0.00  0.00    +0.000 A 
ATOM     22  C   UNL     1      48.780   5.301  16.718  0.00  0.00    +0.000 A 
BRANCH  16  24
ATOM     23  N   UNL     1      48.101   2.873  19.346  0.00  0.00    +0.000 N 
ATOM     24  C   UNL     1      47.979   3.412  18.098  0.00  0.00    +0.000 C 
ATOM     25  O   UNL     1      46.974   3.229  17.423  0.00  0.00    +0.000 OA
ATOM     26  H   UNL     1      47.291   2.373  19.696  0.00  0.00    +0.000 HD
ATOM     27  H   UNL     1      48.775   3.202  20.020  0.00  0.00    +0.000 HD
ENDBRANCH  16  24
ENDBRANCH  15  21
ENDBRANCH   1  15
TORSDOF 5
ENDMDL
MODEL 5
REMARK VINA RESULT:    -6.543      2.843      7.489
REMARK INTER + INTRA:          -9.087
REMARK INTER:                  -8.349
REMARK INTRA:                  -0.738
REMARK UNBOUND:                -0.631
REMARK  Name = 
REMARK  5 active torsions:
REMARK  status: ('A' for Active; 'I' for Inactive)
REMARK    1  A    between atoms: C_2  and  C_4
REMARK    2  A    between atoms: C_9  and  C_10
REMARK    3  A    between atoms: C_10  and  O_11
REMARK    4  A    between atoms: O_11  and  C_12
REMARK    5  A    between atoms: C_16  and  C_17
REMARK                            x       y       z     vdW  Elec       q    Type
REMARK                         _______ _______ _______ _____ _____    ______ ____
ROOT
ATOM      1  O   UNL     1      46.636   3.895  15.404  0.00  0.00    +0.000 OA
ENDROOT
BRANCH   1   2
ATOM      2  C   UNL     1      47.696   3.994  16.261  0.00  0.00    +0.000 A 
ATOM      3  C   UNL     1      48.336   2.802  16.582  0.00  0.00    +0.000 A 
ATOM      4  C   UNL     1      49.376   2.806  17.507  0.00  0.00    +0.000 A 
ATOM      5  C   UNL     1      49.810   4.009  18.073  0.00  0.00    +0.000 A 
ATOM      6  C   UNL     1      49.249   5.231  17.683  0.00  0.00    +0.000 A 
ATOM      7  C   UNL     1      48.161   5.195  16.798  0.00  0.00    +0.000 A 
BRANCH   6   8
ATOM      8  C   UNL     1      49.746   6.599  18.147  0.00  0.00    +0.000 C 
ATOM      9  C   UNL     1      50.276   6.548  19.598  0.00  0.00    +0.000 C 
ATOM     10  C   UNL     1      49.133   6.470  20.610  0.00  0.00    +0.000 C 
ATOM     11  N   UNL     1      48.236   7.620  20.486  0.00  0.00    +0.000 NA
ATOM     12  C   UNL     1      47.672   7.715  19.141  0.00  0.00    +0.000 C 
ATOM     13  C   UNL     1      48.746   7.765  18.050  0.00  0.00    +0.000 C 
ATOM     14  H   UNL     1      48.757   8.472  20.692  0.00  0.00    +0.000 HD
ENDBRANCH   6   8
ENDBRANCH   1   2
BRANCH   1  15
ATOM     15  C   UNL     1      47.000   3.711  14.036  0.00  0.00    +0.000 C 
BRANCH  15  21
ATOM     16  C   UNL     1      44.644   5.742  11.835  0.00  0.00    +0.000 A 
ATOM     17  C   UNL     1      45.356   6.938  11.699  0.00  0.00    +0.000 A 
ATOM     18  C   UNL     1      46.594   7.076  12.321  0.00  0.00    +0.000 A 
ATOM     19 CL   UNL     1      47.477   8.542  12.155  0.00  0.00    +0.000 Cl
ATOM     20  C   UNL     1      47.128   6.036  13.076  0.00  0.00    +0.000 A 
ATOM     21  C   UNL     1      46.413   4.839  13.234  0.00  0.00    +0.000 A 
ATOM     22  C   UNL     1      45.169   4.698  12.608  0.00  0.00    +0.000 A 
BRANCH  16  24
ATOM     23  N   UNL     1      42.245   6.125  11.769  0.00  0.00    +0.000 N 
ATOM     24  C   UNL     1      43.326   5.531  11.186  0.00  0.00    +0.000 C 
ATOM     25  O   UNL     1      43.217   4.895  10.145  0.00  0.00    +0.000 OA
ATOM     26  H   UNL     1      41.373   6.062  11.256  0.00  0.00    +0.000 HD
ATOM     27  H   UNL     1      42.329   6.855  12.461  0.00  0.00    +0.000 HD
ENDBRANCH  16  24
ENDBRANCH  15  21
ENDBRANCH   1  15
TORSDOF 5
ENDMDL
MODEL 6
REMARK VINA RESULT:    -6.463      3.076      7.323
REMARK INTER + INTRA:          -8.983
REMARK INTER:                  -8.248
REMARK INTRA:                  -0.735
REMARK UNBOUND:                -0.631
REMARK  Name = 
REMARK  5 active torsions:
REMARK  status: ('A' for Active; 'I' for Inactive)
REMARK    1  A    between atoms: C_2  and  C_4
REMARK    2  A    between atoms: C_9  and  C_10
REMARK    3  A    between atoms: C_10  and  O_11
REMARK    4  A    between atoms: O_11  and  C_12
REMARK    5  A    between atoms: C_16  and  C_17
REMARK                            x       y       z     vdW  Elec       q    Type
REMARK                         _______ _______ _______ _____ _____    ______ ____
ROOT
ATOM      1  O   UNL     1      46.625   3.935  15.447  0.00  0.00    +0.000 OA
ENDROOT
BRANCH   1   2
ATOM      2  C   UNL     1      47.714   4.105  16.255  0.00  0.00    +0.000 A 
ATOM      3  C   UNL     1      48.223   2.955  16.847  0.00  0.00    +0.000 A 
ATOM      4  C   UNL     1      49.282   3.053  17.744  0.00  0.00    +0.000 A 
ATOM      5  C   UNL     1      49.866   4.295  18.012  0.00  0.00    +0.000 A 
ATOM      6  C   UNL     1      49.437   5.450  17.346  0.00  0.00    +0.000 A 
ATOM      7  C   UNL     1      48.327   5.336  16.495  0.00  0.00    +0.000 A 
BRANCH   6   8
ATOM      8  C   UNL     1      50.099   6.820  17.475  0.00  0.00    +0.000 C 
ATOM      9  C   UNL     1      49.699   7.754  16.310  0.00  0.00    +0.000 C 
ATOM     10  C   UNL     1      50.421   7.377  15.016  0.00  0.00    +0.000 C 
ATOM     11  N   UNL     1      51.873   7.441  15.182  0.00  0.00    +0.000 NA
ATOM     12  C   UNL     1      52.328   6.556  16.253  0.00  0.00    +0.000 C 
ATOM     13  C   UNL     1      51.633   6.837  17.589  0.00  0.00    +0.000 C 
ATOM     14  H   UNL     1      52.142   8.400  15.402  0.00  0.00    +0.000 HD
ENDBRANCH   6   8
ENDBRANCH   1   2
BRANCH   1  15
ATOM     15  C   UNL     1      46.938   3.503  14.122  0.00  0.00    +0.000 C 
BRANCH  15  21
ATOM     16  C   UNL     1      44.906   5.336  11.470  0.00  0.00    +0.000 A 
ATOM     17  C   UNL     1      45.642   6.516  11.326  0.00  0.00    +0.000 A 
ATOM     18  C   UNL     1      46.792   6.708  12.089  0.00  0.00    +0.000 A 
ATOM     19 CL   UNL     1      47.703   8.155  11.913  0.00  0.00    +0.000 Cl
ATOM     20  C   UNL     1      47.212   5.737  12.992  0.00  0.00    +0.000 A 
ATOM     21  C   UNL     1      46.471   4.558  13.158  0.00  0.00    +0.000 A 
ATOM     22  C   UNL     1      45.317   4.363  12.391  0.00  0.00    +0.000 A 
BRANCH  16  24
ATOM     23  N   UNL     1      43.854   4.650   9.390  0.00  0.00    +0.000 N 
ATOM     24  C   UNL     1      43.681   5.069  10.677  0.00  0.00    +0.000 C 
ATOM     25  O   UNL     1      42.564   5.169  11.168  0.00  0.00    +0.000 OA
ATOM     26  H   UNL     1      43.014   4.370   8.897  0.00  0.00    +0.000 HD
ATOM     27  H   UNL     1      44.738   4.313   9.039  0.00  0.00    +0.000 HD
ENDBRANCH  16  24
ENDBRANCH  15  21
ENDBRANCH   1  15
TORSDOF 5
ENDMDL
MODEL 7
REMARK VINA RESULT:    -6.410      2.815      6.216
REMARK INTER + INTRA:          -8.915
REMARK INTER:                  -7.997
REMARK INTRA:                  -0.918
REMARK UNBOUND:                -0.631
REMARK  Name = 
REMARK  5 active torsions:
REMARK  status: ('A' for Active; 'I' for Inactive)
REMARK    1  A    between atoms: C_2  and  C_4
REMARK    2  A    between atoms: C_9  and  C_10
REMARK    3  A    between atoms: C_10  and  O_11
REMARK    4  A    between atoms: O_11  and  C_12
REMARK    5  A    between atoms: C_16  and  C_17
REMARK                            x       y       z     vdW  Elec       q    Type
REMARK                         _______ _______ _______ _____ _____    ______ ____
ROOT
ATOM      1  O   UNL     1      48.938   7.817  13.941  0.00  0.00    +0.000 OA
ENDROOT
BRANCH   1   2
ATOM      2  C   UNL     1      49.483   7.228  15.046  0.00  0.00    +0.000 A 
ATOM      3  C   UNL     1      50.694   7.752  15.484  0.00  0.00    +0.000 A 
ATOM      4  C   UNL     1      51.354   7.159  16.557  0.00  0.00    +0.000 A 
ATOM      5  C   UNL     1      50.778   6.074  17.224  0.00  0.00    +0.000 A 
ATOM      6  C   UNL     1      49.511   5.598  16.866  0.00  0.00    +0.000 A 
ATOM      7  C   UNL     1      48.895   6.171  15.743  0.00  0.00    +0.000 A 
BRANCH   6   8
ATOM      8  C   UNL     1      48.749   4.510  17.619  0.00  0.00    +0.000 C 
ATOM      9  C   UNL     1      49.697   3.392  18.112  0.00  0.00    +0.000 C 
ATOM     10  C   UNL     1      50.134   2.482  16.964  0.00  0.00    +0.000 C 
ATOM     11  N   UNL     1      48.981   1.856  16.315  0.00  0.00    +0.000 NA
ATOM     12  C   UNL     1      48.052   2.859  15.796  0.00  0.00    +0.000 C 
ATOM     13  C   UNL     1      47.581   3.843  16.872  0.00  0.00    +0.000 C 
ATOM     14  H   UNL     1      48.496   1.268  16.992  0.00  0.00    +0.000 HD
ENDBRANCH   6   8
ENDBRANCH   1   2
BRANCH   1  15
ATOM     15  C   UNL     1      48.788   6.944  12.822  0.00  0.00    +0.000 C 
BRANCH  15  21
ATOM     16  C   UNL     1      45.357   5.304  12.581  0.00  0.00    +0.000 A 
ATOM     17  C   UNL     1      44.587   6.351  12.064  0.00  0.00    +0.000 A 
ATOM     18  C   UNL     1      45.187   7.579  11.796  0.00  0.00    +0.000 A 
ATOM     19 CL   UNL     1      44.247   8.869  11.156  0.00  0.00    +0.000 Cl
ATOM     20  C   UNL     1      46.543   7.773  12.040  0.00  0.00    +0.000 A 
ATOM     21  C   UNL     1      47.320   6.736  12.576  0.00  0.00    +0.000 A 
ATOM     22  C   UNL     1      46.719   5.501  12.844  0.00  0.00    +0.000 A 
BRANCH  16  24
ATOM     23  N   UNL     1      45.583   2.887  12.675  0.00  0.00    +0.000 N 
ATOM     24  C   UNL     1      44.778   3.970  12.875  0.00  0.00    +0.000 C 
ATOM     25  O   UNL     1      43.646   3.846  13.325  0.00  0.00    +0.000 OA
ATOM     26  H   UNL     1      45.212   1.994  12.981  0.00  0.00    +0.000 HD
ATOM     27  H   UNL     1      46.583   2.962  12.558  0.00  0.00    +0.000 HD
ENDBRANCH  16  24
ENDBRANCH  15  21
ENDBRANCH   1  15
TORSDOF 5
ENDMDL
MODEL 8
REMARK VINA RESULT:    -6.325      3.078      7.881
REMARK INTER + INTRA:          -8.805
REMARK INTER:                  -8.175
REMARK INTRA:                  -0.630
REMARK UNBOUND:                -0.631
REMARK  Name = 
REMARK  5 active torsions:
REMARK  status: ('A' for Active; 'I' for Inactive)
REMARK    1  A    between atoms: C_2  and  C_4
REMARK    2  A    between atoms: C_9  and  C_10
REMARK    3  A    between atoms: C_10  and  O_11
REMARK    4  A    between atoms: O_11  and  C_12
REMARK    5  A    between atoms: C_16  and  C_17
REMARK                            x       y       z     vdW  Elec       q    Type
REMARK                         _______ _______ _______ _____ _____    ______ ____
ROOT
ATOM      1  O   UNL     1      47.233   3.811  14.800  0.00  0.00    +0.000 OA
ENDROOT
BRANCH   1   2
ATOM      2  C   UNL     1      47.627   3.814  16.109  0.00  0.00    +0.000 A 
ATOM      3  C   UNL     1      48.435   2.755  16.507  0.00  0.00    +0.000 A 
ATOM      4  C   UNL     1      48.816   2.642  17.841  0.00  0.00    +0.000 A 
ATOM      5  C   UNL     1      48.432   3.617  18.767  0.00  0.00    +0.000 A 
ATOM      6  C   UNL     1      47.708   4.746  18.365  0.00  0.00    +0.000 A 
ATOM      7  C   UNL     1      47.282   4.805  17.029  0.00  0.00    +0.000 A 
BRANCH   6   8
ATOM      8  C   UNL     1      47.360   5.921  19.276  0.00  0.00    +0.000 C 
ATOM      9  C   UNL     1      47.848   7.263  18.681  0.00  0.00    +0.000 C 
ATOM     10  C   UNL     1      49.361   7.423  18.827  0.00  0.00    +0.000 C 
ATOM     11  N   UNL     1      49.767   7.366  20.232  0.00  0.00    +0.000 NA
ATOM     12  C   UNL     1      49.363   6.106  20.854  0.00  0.00    +0.000 C 
ATOM     13  C   UNL     1      47.859   5.840  20.729  0.00  0.00    +0.000 C 
ATOM     14  H   UNL     1      49.337   8.142  20.735  0.00  0.00    +0.000 HD
ENDBRANCH   6   8
ENDBRANCH   1   2
BRANCH   1  15
ATOM     15  C   UNL     1      47.213   5.101  14.189  0.00  0.00    +0.000 C 
BRANCH  15  21
ATOM     16  C   UNL     1      44.475   6.463  11.915  0.00  0.00    +0.000 A 
ATOM     17  C   UNL     1      43.764   5.297  11.612  0.00  0.00    +0.000 A 
ATOM     18  C   UNL     1      44.177   4.080  12.149  0.00  0.00    +0.000 A 
ATOM     19 CL   UNL     1      43.304   2.644  11.784  0.00  0.00    +0.000 Cl
ATOM     20  C   UNL     1      45.290   4.014  12.981  0.00  0.00    +0.000 A 
ATOM     21  C   UNL     1      46.022   5.174  13.275  0.00  0.00    +0.000 A 
ATOM     22  C   UNL     1      45.607   6.398  12.739  0.00  0.00    +0.000 A 
BRANCH  16  24
ATOM     23  N   UNL     1      42.790   7.924  10.952  0.00  0.00    +0.000 N 
ATOM     24  C   UNL     1      44.077   7.790  11.384  0.00  0.00    +0.000 C 
ATOM     25  O   UNL     1      44.851   8.738  11.380  0.00  0.00    +0.000 OA
ATOM     26  H   UNL     1      42.503   8.862  10.694  0.00  0.00    +0.000 HD
ATOM     27  H   UNL     1      42.065   7.258  11.175  0.00  0.00    +0.000 HD
ENDBRANCH  16  24
ENDBRANCH  15  21
ENDBRANCH   1  15
TORSDOF 5
ENDMDL
MODEL 9
REMARK VINA RESULT:    -6.319      2.699      3.604
REMARK INTER + INTRA:          -8.797
REMARK INTER:                  -8.701
REMARK INTRA:                  -0.096
REMARK UNBOUND:                -0.631
REMARK  Name = 
REMARK  5 active torsions:
REMARK  status: ('A' for Active; 'I' for Inactive)
REMARK    1  A    between atoms: C_2  and  C_4
REMARK    2  A    between atoms: C_9  and  C_10
REMARK    3  A    between atoms: C_10  and  O_11
REMARK    4  A    between atoms: O_11  and  C_12
REMARK    5  A    between atoms: C_16  and  C_17
REMARK                            x       y       z     vdW  Elec       q    Type
REMARK                         _______ _______ _______ _____ _____    ______ ____
ROOT
ATOM      1  O   UNL     1      47.258   3.726  14.620  0.00  0.00    +0.000 OA
ENDROOT
BRANCH   1   2
ATOM      2  C   UNL     1      46.998   4.728  13.728  0.00  0.00    +0.000 A 
ATOM      3  C   UNL     1      47.798   5.860  13.828  0.00  0.00    +0.000 A 
ATOM      4  C   UNL     1      47.549   6.956  13.007  0.00  0.00    +0.000 A 
ATOM      5  C   UNL     1      46.531   6.900  12.050  0.00  0.00    +0.000 A 
ATOM      6  C   UNL     1      45.783   5.731  11.861  0.00  0.00    +0.000 A 
ATOM      7  C   UNL     1      46.012   4.664  12.742  0.00  0.00    +0.000 A 
BRANCH   6   8
ATOM      8  C   UNL     1      44.747   5.535  10.757  0.00  0.00    +0.000 C 
ATOM      9  C   UNL     1      43.315   5.816  11.267  0.00  0.00    +0.000 C 
ATOM     10  C   UNL     1      42.798   4.674  12.142  0.00  0.00    +0.000 C 
ATOM     11  N   UNL     1      42.786   3.407  11.409  0.00  0.00    +0.000 NA
ATOM     12  C   UNL     1      44.120   3.062  10.920  0.00  0.00    +0.000 C 
ATOM     13  C   UNL     1      44.738   4.166  10.055  0.00  0.00    +0.000 C 
ATOM     14  H   UNL     1      42.148   3.486  10.618  0.00  0.00    +0.000 HD
ENDBRANCH   6   8
ENDBRANCH   1   2
BRANCH   1  15
ATOM     15  C   UNL     1      46.989   4.066  15.981  0.00  0.00    +0.000 C 
BRANCH  15  21
ATOM     16  C   UNL     1      49.980   5.099  18.104  0.00  0.00    +0.000 A 
ATOM     17  C   UNL     1      50.724   3.916  18.127  0.00  0.00    +0.000 A 
ATOM     18  C   UNL     1      50.251   2.793  17.452  0.00  0.00    +0.000 A 
ATOM     19 CL   UNL     1      51.163   1.335  17.472  0.00  0.00    +0.000 Cl
ATOM     20  C   UNL     1      49.046   2.838  16.758  0.00  0.00    +0.000 A 
ATOM     21  C   UNL     1      48.282   4.015  16.746  0.00  0.00    +0.000 A 
ATOM     22  C   UNL     1      48.757   5.145  17.421  0.00  0.00    +0.000 A 
BRANCH  16  24
ATOM     23  N   UNL     1      51.084   6.173  19.984  0.00  0.00    +0.000 N 
ATOM     24  C   UNL     1      50.437   6.331  18.793  0.00  0.00    +0.000 C 
ATOM     25  O   UNL     1      50.289   7.439  18.293  0.00  0.00    +0.000 OA
ATOM     26  H   UNL     1      51.483   7.012  20.388  0.00  0.00    +0.000 HD
ATOM     27  H   UNL     1      51.448   5.284  20.295  0.00  0.00    +0.000 HD
ENDBRANCH  16  24
ENDBRANCH  15  21
ENDBRANCH   1  15
TORSDOF 5
ENDMDL
