MODEL 1
REMARK VINA RESULT:    -7.952      0.000      0.000
REMARK INTER + INTRA:         -12.038
REMARK INTER:                 -11.206
REMARK INTRA:                  -0.832
REMARK UNBOUND:                -0.832
REMARK  Name = 
REMARK  9 active torsions:
REMARK  status: ('A' for Active; 'I' for Inactive)
REMARK    1  A    between atoms: C_1  and  O_2
REMARK    2  A    between atoms: O_2  and  C_3
REMARK    3  A    between atoms: C_5  and  C_6
REMARK    4  A    between atoms: C_11  and  N_12
REMARK    5  A    between atoms: N_12  and  C_13
REMARK    6  A    between atoms: C_13  and  C_14
REMARK    7  A    between atoms: C_19  and  C_20
REMARK    8  A    between atoms: C_25  and  O_26
REMARK    9  A    between atoms: O_26  and  C_27
REMARK                            x       y       z     vdW  Elec       q    Type
REMARK                         _______ _______ _______ _____ _____    ______ ____
ROOT
ATOM      1  C   UNL     1      43.732   5.561  11.688  0.00  0.00    +0.000 C 
ENDROOT
BRANCH   1   2
ATOM      2  C   UNL     1      45.106   5.641  12.313  0.00  0.00    +0.000 A 
ATOM      3  C   UNL     1      45.541   4.681  13.226  0.00  0.00    +0.000 A 
ATOM      4  C   UNL     1      46.787   4.824  13.814  0.00  0.00    +0.000 A 
ATOM      5  F   UNL     1      47.219   3.889  14.673  0.00  0.00    +0.000 F 
ATOM      6  C   UNL     1      47.609   5.912  13.519  0.00  0.00    +0.000 A 
ATOM      7  C   UNL     1      47.219   6.899  12.591  0.00  0.00    +0.000 A 
ATOM      8  C   UNL     1      45.948   6.734  12.010  0.00  0.00    +0.000 A 
BRANCH   7   9
ATOM      9  C   UNL     1      48.145   8.002  12.182  0.00  0.00    +0.000 A 
ATOM     10  C   UNL     1      49.484   7.673  11.866  0.00  0.00    +0.000 A 
ATOM     11  C   UNL     1      50.398   8.617  11.402  0.00  0.00    +0.000 A 
ATOM     12  C   UNL     1      50.008   9.936  11.244  0.00  0.00    +0.000 A 
ATOM     13  C   UNL     1      48.709  10.309  11.562  0.00  0.00    +0.000 A 
ATOM     14  C   UNL     1      47.769   9.362  12.013  0.00  0.00    +0.000 A 
BRANCH  14  15
ATOM     15  O   UNL     1      46.486   9.739  12.340  0.00  0.00    +0.000 OA
ATOM     16  C   UNL     1      46.020  10.953  11.751  0.00  0.00    +0.000 C 
ENDBRANCH  14  15
ENDBRANCH   7   9
ENDBRANCH   1   2
BRANCH   1  17
ATOM     17  N   UNL     1      43.850   5.477  10.232  0.00  0.00    +0.000 N 
ATOM     18  H   UNL     1      44.157   6.366   9.844  0.00  0.00    +0.000 HD
BRANCH  17  24
ATOM     19  C   UNL     1      44.256   3.025   9.918  0.00  0.00    +0.000 A 
ATOM     20  C   UNL     1      44.989   2.020   9.271  0.00  0.00    +0.000 A 
ATOM     21  C   UNL     1      46.011   2.326   8.365  0.00  0.00    +0.000 A 
ATOM     22  C   UNL     1      46.276   3.668   8.080  0.00  0.00    +0.000 A 
ATOM     23  C   UNL     1      45.540   4.676   8.718  0.00  0.00    +0.000 A 
ATOM     24  C   UNL     1      44.548   4.386   9.678  0.00  0.00    +0.000 A 
BRANCH  21  25
ATOM     25  C   UNL     1      46.736   1.178   7.748  0.00  0.00    +0.000 C 
ATOM     26  N   UNL     1      47.732   1.432   6.850  0.00  0.00    +0.000 N 
ATOM     27  O   UNL     1      46.460   0.018   8.036  0.00  0.00    +0.000 OA
ATOM     28  H   UNL     1      48.025   2.346   6.540  0.00  0.00    +0.000 HD
ATOM     29  H   UNL     1      48.191   0.623   6.450  0.00  0.00    +0.000 HD
ENDBRANCH  21  25
BRANCH  19  31
ATOM     30  C   UNL     1      43.498   2.049  11.955  0.00  0.00    +0.000 C 
ATOM     31  O   UNL     1      43.201   2.724  10.740  0.00  0.00    +0.000 OA
ENDBRANCH  19  31
ENDBRANCH  17  24
ENDBRANCH   1  17
TORSDOF 7
ENDMDL
MODEL 2
REMARK VINA RESULT:    -7.254      1.973      2.748
REMARK INTER + INTRA:         -11.055
REMARK INTER:                 -10.112
REMARK INTRA:                  -0.943
REMARK UNBOUND:                -0.832
REMARK  Name = 
REMARK  9 active torsions:
REMARK  status: ('A' for Active; 'I' for Inactive)
REMARK    1  A    between atoms: C_1  and  O_2
REMARK    2  A    between atoms: O_2  and  C_3
REMARK    3  A    between atoms: C_5  and  C_6
REMARK    4  A    between atoms: C_11  and  N_12
REMARK    5  A    between atoms: N_12  and  C_13
REMARK    6  A    between atoms: C_13  and  C_14
REMARK    7  A    between atoms: C_19  and  C_20
REMARK    8  A    between atoms: C_25  and  O_26
REMARK    9  A    between atoms: O_26  and  C_27
REMARK                            x       y       z     vdW  Elec       q    Type
REMARK                         _______ _______ _______ _____ _____    ______ ____
ROOT
ATOM      1  C   UNL     1      44.418   5.795  11.749  0.00  0.00    +0.000 C 
ENDROOT
BRANCH   1   2
ATOM      2  C   UNL     1      45.168   7.102  11.871  0.00  0.00    +0.000 A 
ATOM      3  C   UNL     1      44.507   8.325  11.767  0.00  0.00    +0.000 A 
ATOM      4  C   UNL     1      45.242   9.498  11.832  0.00  0.00    +0.000 A 
ATOM      5  F   UNL     1      44.607  10.676  11.757  0.00  0.00    +0.000 F 
ATOM      6  C   UNL     1      46.629   9.478  11.988  0.00  0.00    +0.000 A 
ATOM      7  C   UNL     1      47.337   8.267  12.114  0.00  0.00    +0.000 A 
ATOM      8  C   UNL     1      46.570   7.090  12.041  0.00  0.00    +0.000 A 
BRANCH   7   9
ATOM      9  C   UNL     1      48.807   8.243  12.402  0.00  0.00    +0.000 A 
ATOM     10  C   UNL     1      49.706   8.415  11.324  0.00  0.00    +0.000 A 
ATOM     11  C   UNL     1      51.087   8.484  11.504  0.00  0.00    +0.000 A 
ATOM     12  C   UNL     1      51.624   8.373  12.775  0.00  0.00    +0.000 A 
ATOM     13  C   UNL     1      50.780   8.181  13.861  0.00  0.00    +0.000 A 
ATOM     14  C   UNL     1      49.382   8.130  13.697  0.00  0.00    +0.000 A 
BRANCH  14  15
ATOM     15  O   UNL     1      48.550   7.926  14.774  0.00  0.00    +0.000 OA
ATOM     16  C   UNL     1      48.690   6.674  15.446  0.00  0.00    +0.000 C 
ENDBRANCH  14  15
ENDBRANCH   7   9
ENDBRANCH   1   2
BRANCH   1  17
ATOM     17  N   UNL     1      44.094   5.535  10.346  0.00  0.00    +0.000 N 
ATOM     18  H   UNL     1      44.176   6.384   9.794  0.00  0.00    +0.000 HD
BRANCH  17  24
ATOM     19  C   UNL     1      44.339   3.078   9.918  0.00  0.00    +0.000 A 
ATOM     20  C   UNL     1      44.977   2.061   9.193  0.00  0.00    +0.000 A 
ATOM     21  C   UNL     1      45.965   2.347   8.244  0.00  0.00    +0.000 A 
ATOM     22  C   UNL     1      46.292   3.682   7.995  0.00  0.00    +0.000 A 
ATOM     23  C   UNL     1      45.650   4.703   8.711  0.00  0.00    +0.000 A 
ATOM     24  C   UNL     1      44.697   4.430   9.713  0.00  0.00    +0.000 A 
BRANCH  21  25
ATOM     25  C   UNL     1      46.588   1.186   7.543  0.00  0.00    +0.000 C 
ATOM     26  N   UNL     1      47.222   1.395   6.354  0.00  0.00    +0.000 N 
ATOM     27  O   UNL     1      46.547   0.056   8.019  0.00  0.00    +0.000 OA
ATOM     28  H   UNL     1      47.299   2.282   5.877  0.00  0.00    +0.000 HD
ATOM     29  H   UNL     1      47.623   0.579   5.910  0.00  0.00    +0.000 HD
ENDBRANCH  21  25
BRANCH  19  31
ATOM     30  C   UNL     1      43.668   2.456  12.118  0.00  0.00    +0.000 C 
ATOM     31  O   UNL     1      43.314   2.803  10.785  0.00  0.00    +0.000 OA
ENDBRANCH  19  31
ENDBRANCH  17  24
ENDBRANCH   1  17
TORSDOF 7
ENDMDL
MODEL 3
REMARK VINA RESULT:    -7.166      4.805      7.829
REMARK INTER + INTRA:         -10.931
REMARK INTER:                 -10.038
REMARK INTRA:                  -0.892
REMARK UNBOUND:                -0.832
REMARK  Name = 
REMARK  9 active torsions:
REMARK  status: ('A' for Active; 'I' for Inactive)
REMARK    1  A    between atoms: C_1  and  O_2
REMARK    2  A    between atoms: O_2  and  C_3
REMARK    3  A    between atoms: C_5  and  C_6
REMARK    4  A    between atoms: C_11  and  N_12
REMARK    5  A    between atoms: N_12  and  C_13
REMARK    6  A    between atoms: C_13  and  C_14
REMARK    7  A    between atoms: C_19  and  C_20
REMARK    8  A    between atoms: C_25  and  O_26
REMARK    9  A    between atoms: O_26  and  C_27
REMARK                            x       y       z     vdW  Elec       q    Type
REMARK                         _______ _______ _______ _____ _____    ______ ____
ROOT
ATOM      1  C   UNL     1      48.678   7.215  14.134  0.00  0.00    +0.000 C 
ENDROOT
BRANCH   1   2
ATOM      2  C   UNL     1      47.421   7.383  13.311  0.00  0.00    +0.000 A 
ATOM      3  C   UNL     1      46.690   8.570  13.347  0.00  0.00    +0.000 A 
ATOM      4  C   UNL     1      45.515   8.662  12.618  0.00  0.00    +0.000 A 
ATOM      5  F   UNL     1      44.823   9.810  12.629  0.00  0.00    +0.000 F 
ATOM      6  C   UNL     1      45.046   7.588  11.859  0.00  0.00    +0.000 A 
ATOM      7  C   UNL     1      45.759   6.375  11.781  0.00  0.00    +0.000 A 
ATOM      8  C   UNL     1      46.946   6.306  12.532  0.00  0.00    +0.000 A 
BRANCH   7   9
ATOM      9  C   UNL     1      45.323   5.265  10.875  0.00  0.00    +0.000 A 
ATOM     10  C   UNL     1      45.677   5.337   9.507  0.00  0.00    +0.000 A 
ATOM     11  C   UNL     1      45.383   4.316   8.603  0.00  0.00    +0.000 A 
ATOM     12  C   UNL     1      44.713   3.184   9.034  0.00  0.00    +0.000 A 
ATOM     13  C   UNL     1      44.328   3.080  10.364  0.00  0.00    +0.000 A 
ATOM     14  C   UNL     1      44.635   4.094  11.293  0.00  0.00    +0.000 A 
BRANCH  14  15
ATOM     15  O   UNL     1      44.240   3.993  12.607  0.00  0.00    +0.000 OA
ATOM     16  C   UNL     1      42.995   4.611  12.936  0.00  0.00    +0.000 C 
ENDBRANCH  14  15
ENDBRANCH   7   9
ENDBRANCH   1   2
BRANCH   1  17
ATOM     17  N   UNL     1      48.329   6.960  15.532  0.00  0.00    +0.000 N 
ATOM     18  H   UNL     1      47.360   6.663  15.612  0.00  0.00    +0.000 HD
BRANCH  17  24
ATOM     19  C   UNL     1      48.826   4.980  16.984  0.00  0.00    +0.000 A 
ATOM     20  C   UNL     1      49.788   4.237  17.684  0.00  0.00    +0.000 A 
ATOM     21  C   UNL     1      51.132   4.625  17.718  0.00  0.00    +0.000 A 
ATOM     22  C   UNL     1      51.520   5.763  17.007  0.00  0.00    +0.000 A 
ATOM     23  C   UNL     1      50.564   6.505  16.299  0.00  0.00    +0.000 A 
ATOM     24  C   UNL     1      49.196   6.161  16.304  0.00  0.00    +0.000 A 
BRANCH  21  25
ATOM     25  C   UNL     1      52.065   3.769  18.506  0.00  0.00    +0.000 C 
ATOM     26  N   UNL     1      52.241   4.031  19.833  0.00  0.00    +0.000 N 
ATOM     27  O   UNL     1      52.667   2.834  17.987  0.00  0.00    +0.000 OA
ATOM     28  H   UNL     1      51.802   4.780  20.347  0.00  0.00    +0.000 HD
ATOM     29  H   UNL     1      52.889   3.430  20.326  0.00  0.00    +0.000 HD
ENDBRANCH  21  25
BRANCH  19  31
ATOM     30  C   UNL     1      47.237   3.243  17.352  0.00  0.00    +0.000 C 
ATOM     31  O   UNL     1      47.527   4.553  16.882  0.00  0.00    +0.000 OA
ENDBRANCH  19  31
ENDBRANCH  17  24
ENDBRANCH   1  17
TORSDOF 7
ENDMDL
MODEL 4
REMARK VINA RESULT:    -6.911      4.225      7.732
REMARK INTER + INTRA:         -10.571
REMARK INTER:                  -9.439
REMARK INTRA:                  -1.132
REMARK UNBOUND:                -0.832
REMARK  Name = 
REMARK  9 active torsions:
REMARK  status: ('A' for Active; 'I' for Inactive)
REMARK    1  A    between atoms: C_1  and  O_2
REMARK    2  A    between atoms: O_2  and  C_3
REMARK    3  A    between atoms: C_5  and  C_6
REMARK    4  A    between atoms: C_11  and  N_12
REMARK    5  A    between atoms: N_12  and  C_13
REMARK    6  A    between atoms: C_13  and  C_14
REMARK    7  A    between atoms: C_19  and  C_20
REMARK    8  A    between atoms: C_25  and  O_26
REMARK    9  A    between atoms: O_26  and  C_27
REMARK                            x       y       z     vdW  Elec       q    Type
REMARK                         _______ _______ _______ _____ _____    ______ ____
ROOT
ATOM      1  C   UNL     1      49.075   7.740  13.183  0.00  0.00    +0.000 C 
ENDROOT
BRANCH   1   2
ATOM      2  C   UNL     1      47.665   7.734  12.636  0.00  0.00    +0.000 A 
ATOM      3  C   UNL     1      46.826   8.836  12.793  0.00  0.00    +0.000 A 
ATOM      4  C   UNL     1      45.524   8.766  12.324  0.00  0.00    +0.000 A 
ATOM      5  F   UNL     1      44.722   9.833  12.450  0.00  0.00    +0.000 F 
ATOM      6  C   UNL     1      45.036   7.613  11.708  0.00  0.00    +0.000 A 
ATOM      7  C   UNL     1      45.851   6.481  11.513  0.00  0.00    +0.000 A 
ATOM      8  C   UNL     1      47.167   6.575  12.002  0.00  0.00    +0.000 A 
BRANCH   7   9
ATOM      9  C   UNL     1      45.369   5.288  10.747  0.00  0.00    +0.000 A 
ATOM     10  C   UNL     1      45.630   5.231   9.357  0.00  0.00    +0.000 A 
ATOM     11  C   UNL     1      45.289   4.128   8.575  0.00  0.00    +0.000 A 
ATOM     12  C   UNL     1      44.663   3.039   9.155  0.00  0.00    +0.000 A 
ATOM     13  C   UNL     1      44.367   3.059  10.512  0.00  0.00    +0.000 A 
ATOM     14  C   UNL     1      44.724   4.158  11.318  0.00  0.00    +0.000 A 
BRANCH  14  15
ATOM     15  O   UNL     1      44.417   4.180  12.660  0.00  0.00    +0.000 OA
ATOM     16  C   UNL     1      43.121   4.673  12.998  0.00  0.00    +0.000 C 
ENDBRANCH  14  15
ENDBRANCH   7   9
ENDBRANCH   1   2
BRANCH   1  17
ATOM     17  N   UNL     1      49.048   7.939  14.632  0.00  0.00    +0.000 N 
ATOM     18  H   UNL     1      48.268   8.535  14.898  0.00  0.00    +0.000 HD
BRANCH  17  24
ATOM     19  C   UNL     1      50.261   6.525  16.306  0.00  0.00    +0.000 A 
ATOM     20  C   UNL     1      50.244   5.392  17.132  0.00  0.00    +0.000 A 
ATOM     21  C   UNL     1      49.145   4.525  17.165  0.00  0.00    +0.000 A 
ATOM     22  C   UNL     1      48.031   4.824  16.377  0.00  0.00    +0.000 A 
ATOM     23  C   UNL     1      48.040   5.960  15.555  0.00  0.00    +0.000 A 
ATOM     24  C   UNL     1      49.162   6.809  15.465  0.00  0.00    +0.000 A 
BRANCH  21  25
ATOM     25  C   UNL     1      49.241   3.342  18.069  0.00  0.00    +0.000 C 
ATOM     26  N   UNL     1      48.478   3.311  19.199  0.00  0.00    +0.000 N 
ATOM     27  O   UNL     1      49.984   2.401  17.812  0.00  0.00    +0.000 OA
ATOM     28  H   UNL     1      47.847   4.039  19.503  0.00  0.00    +0.000 HD
ATOM     29  H   UNL     1      48.581   2.494  19.787  0.00  0.00    +0.000 HD
ENDBRANCH  21  25
BRANCH  19  31
ATOM     30  C   UNL     1      52.582   6.933  15.955  0.00  0.00    +0.000 C 
ATOM     31  O   UNL     1      51.301   7.417  16.337  0.00  0.00    +0.000 OA
ENDBRANCH  19  31
ENDBRANCH  17  24
ENDBRANCH   1  17
TORSDOF 7
ENDMDL
MODEL 5
REMARK VINA RESULT:    -6.850      4.036      7.965
REMARK INTER + INTRA:         -10.486
REMARK INTER:                  -9.158
REMARK INTRA:                  -1.328
REMARK UNBOUND:                -0.832
REMARK  Name = 
REMARK  9 active torsions:
REMARK  status: ('A' for Active; 'I' for Inactive)
REMARK    1  A    between atoms: C_1  and  O_2
REMARK    2  A    between atoms: O_2  and  C_3
REMARK    3  A    between atoms: C_5  and  C_6
REMARK    4  A    between atoms: C_11  and  N_12
REMARK    5  A    between atoms: N_12  and  C_13
REMARK    6  A    between atoms: C_13  and  C_14
REMARK    7  A    between atoms: C_19  and  C_20
REMARK    8  A    between atoms: C_25  and  O_26
REMARK    9  A    between atoms: O_26  and  C_27
REMARK                            x       y       z     vdW  Elec       q    Type
REMARK                         _______ _______ _______ _____ _____    ______ ____
ROOT
ATOM      1  C   UNL     1      49.239   8.085  12.559  0.00  0.00    +0.000 C 
ENDROOT
BRANCH   1   2
ATOM      2  C   UNL     1      47.765   7.963  12.246  0.00  0.00    +0.000 A 
ATOM      3  C   UNL     1      46.876   8.995  12.545  0.00  0.00    +0.000 A 
ATOM      4  C   UNL     1      45.526   8.819  12.290  0.00  0.00    +0.000 A 
ATOM      5  F   UNL     1      44.672   9.818  12.553  0.00  0.00    +0.000 F 
ATOM      6  C   UNL     1      45.039   7.627  11.751  0.00  0.00    +0.000 A 
ATOM      7  C   UNL     1      45.900   6.564  11.419  0.00  0.00    +0.000 A 
ATOM      8  C   UNL     1      47.266   6.765  11.690  0.00  0.00    +0.000 A 
BRANCH   7   9
ATOM      9  C   UNL     1      45.398   5.332  10.730  0.00  0.00    +0.000 A 
ATOM     10  C   UNL     1      45.617   5.205   9.337  0.00  0.00    +0.000 A 
ATOM     11  C   UNL     1      45.255   4.063   8.624  0.00  0.00    +0.000 A 
ATOM     12  C   UNL     1      44.649   3.003   9.277  0.00  0.00    +0.000 A 
ATOM     13  C   UNL     1      44.396   3.093  10.640  0.00  0.00    +0.000 A 
ATOM     14  C   UNL     1      44.774   4.232  11.378  0.00  0.00    +0.000 A 
BRANCH  14  15
ATOM     15  O   UNL     1      44.509   4.323  12.725  0.00  0.00    +0.000 OA
ATOM     16  C   UNL     1      43.179   4.706  13.077  0.00  0.00    +0.000 C 
ENDBRANCH  14  15
ENDBRANCH   7   9
ENDBRANCH   1   2
BRANCH   1  17
ATOM     17  N   UNL     1      49.642   7.029  13.487  0.00  0.00    +0.000 N 
ATOM     18  H   UNL     1      50.609   6.759  13.327  0.00  0.00    +0.000 HD
BRANCH  17  24
ATOM     19  C   UNL     1      48.657   6.270  15.662  0.00  0.00    +0.000 A 
ATOM     20  C   UNL     1      48.474   6.520  17.030  0.00  0.00    +0.000 A 
ATOM     21  C   UNL     1      48.984   7.672  17.639  0.00  0.00    +0.000 A 
ATOM     22  C   UNL     1      49.721   8.571  16.864  0.00  0.00    +0.000 A 
ATOM     23  C   UNL     1      49.915   8.321  15.498  0.00  0.00    +0.000 A 
ATOM     24  C   UNL     1      49.356   7.196  14.857  0.00  0.00    +0.000 A 
BRANCH  21  25
ATOM     25  C   UNL     1      48.716   7.844  19.097  0.00  0.00    +0.000 C 
ATOM     26  N   UNL     1      47.452   8.159  19.503  0.00  0.00    +0.000 N 
ATOM     27  O   UNL     1      49.604   7.701  19.931  0.00  0.00    +0.000 OA
ATOM     28  H   UNL     1      46.660   8.308  18.896  0.00  0.00    +0.000 HD
ATOM     29  H   UNL     1      47.318   8.273  20.499  0.00  0.00    +0.000 HD
ENDBRANCH  21  25
BRANCH  19  31
ATOM     30  C   UNL     1      47.334   4.296  15.840  0.00  0.00    +0.000 C 
ATOM     31  O   UNL     1      48.230   5.102  15.085  0.00  0.00    +0.000 OA
ENDBRANCH  19  31
ENDBRANCH  17  24
ENDBRANCH   1  17
TORSDOF 7
ENDMDL
MODEL 6
REMARK VINA RESULT:    -6.752      4.867      8.198
REMARK INTER + INTRA:         -10.347
REMARK INTER:                  -9.407
REMARK INTRA:                  -0.939
REMARK UNBOUND:                -0.832
REMARK  Name = 
REMARK  9 active torsions:
REMARK  status: ('A' for Active; 'I' for Inactive)
REMARK    1  A    between atoms: C_1  and  O_2
REMARK    2  A    between atoms: O_2  and  C_3
REMARK    3  A    between atoms: C_5  and  C_6
REMARK    4  A    between atoms: C_11  and  N_12
REMARK    5  A    between atoms: N_12  and  C_13
REMARK    6  A    between atoms: C_13  and  C_14
REMARK    7  A    between atoms: C_19  and  C_20
REMARK    8  A    between atoms: C_25  and  O_26
REMARK    9  A    between atoms: O_26  and  C_27
REMARK                            x       y       z     vdW  Elec       q    Type
REMARK                         _______ _______ _______ _____ _____    ______ ____
ROOT
ATOM      1  C   UNL     1      48.395   7.098  14.552  0.00  0.00    +0.000 C 
ENDROOT
BRANCH   1   2
ATOM      2  C   UNL     1      47.300   7.366  13.545  0.00  0.00    +0.000 A 
ATOM      3  C   UNL     1      46.733   8.633  13.415  0.00  0.00    +0.000 A 
ATOM      4  C   UNL     1      45.696   8.821  12.516  0.00  0.00    +0.000 A 
ATOM      5  F   UNL     1      45.166  10.044  12.371  0.00  0.00    +0.000 F 
ATOM      6  C   UNL     1      45.201   7.766  11.749  0.00  0.00    +0.000 A 
ATOM      7  C   UNL     1      45.751   6.472  11.834  0.00  0.00    +0.000 A 
ATOM      8  C   UNL     1      46.801   6.306  12.756  0.00  0.00    +0.000 A 
BRANCH   7   9
ATOM      9  C   UNL     1      45.305   5.367  10.928  0.00  0.00    +0.000 A 
ATOM     10  C   UNL     1      45.725   5.395   9.577  0.00  0.00    +0.000 A 
ATOM     11  C   UNL     1      45.425   4.373   8.677  0.00  0.00    +0.000 A 
ATOM     12  C   UNL     1      44.682   3.282   9.095  0.00  0.00    +0.000 A 
ATOM     13  C   UNL     1      44.230   3.222  10.407  0.00  0.00    +0.000 A 
ATOM     14  C   UNL     1      44.542   4.238  11.332  0.00  0.00    +0.000 A 
BRANCH  14  15
ATOM     15  O   UNL     1      44.081   4.181  12.627  0.00  0.00    +0.000 OA
ATOM     16  C   UNL     1      42.874   4.895  12.894  0.00  0.00    +0.000 C 
ENDBRANCH  14  15
ENDBRANCH   7   9
ENDBRANCH   1   2
BRANCH   1  17
ATOM     17  N   UNL     1      48.254   5.746  15.094  0.00  0.00    +0.000 N 
ATOM     18  H   UNL     1      48.794   5.081  14.546  0.00  0.00    +0.000 HD
BRANCH  17  24
ATOM     19  C   UNL     1      48.520   4.307  17.127  0.00  0.00    +0.000 A 
ATOM     20  C   UNL     1      48.744   4.241  18.510  0.00  0.00    +0.000 A 
ATOM     21  C   UNL     1      48.898   5.398  19.283  0.00  0.00    +0.000 A 
ATOM     22  C   UNL     1      48.861   6.641  18.647  0.00  0.00    +0.000 A 
ATOM     23  C   UNL     1      48.646   6.711  17.263  0.00  0.00    +0.000 A 
ATOM     24  C   UNL     1      48.429   5.559  16.480  0.00  0.00    +0.000 A 
BRANCH  21  25
ATOM     25  C   UNL     1      49.116   5.211  20.747  0.00  0.00    +0.000 C 
ATOM     26  N   UNL     1      50.065   5.964  21.375  0.00  0.00    +0.000 N 
ATOM     27  O   UNL     1      48.457   4.403  21.393  0.00  0.00    +0.000 OA
ATOM     28  H   UNL     1      50.664   6.643  20.931  0.00  0.00    +0.000 HD
ATOM     29  H   UNL     1      50.184   5.798  22.366  0.00  0.00    +0.000 HD
ENDBRANCH  21  25
BRANCH  19  31
ATOM     30  C   UNL     1      49.295   2.088  16.730  0.00  0.00    +0.000 C 
ATOM     31  O   UNL     1      48.454   3.173  16.359  0.00  0.00    +0.000 OA
ENDBRANCH  19  31
ENDBRANCH  17  24
ENDBRANCH   1  17
TORSDOF 7
ENDMDL
MODEL 7
REMARK VINA RESULT:    -6.566      4.738      7.167
REMARK INTER + INTRA:         -10.084
REMARK INTER:                  -8.869
REMARK INTRA:                  -1.215
REMARK UNBOUND:                -0.832
REMARK  Name = 
REMARK  9 active torsions:
REMARK  status: ('A' for Active; 'I' for Inactive)
REMARK    1  A    between atoms: C_1  and  O_2
REMARK    2  A    between atoms: O_2  and  C_3
REMARK    3  A    between atoms: C_5  and  C_6
REMARK    4  A    between atoms: C_11  and  N_12
REMARK    5  A    between atoms: N_12  and  C_13
REMARK    6  A    between atoms: C_13  and  C_14
REMARK    7  A    between atoms: C_19  and  C_20
REMARK    8  A    between atoms: C_25  and  O_26
REMARK    9  A    between atoms: O_26  and  C_27
REMARK                            x       y       z     vdW  Elec       q    Type
REMARK                         _______ _______ _______ _____ _____    ______ ____
ROOT
ATOM      1  C   UNL     1      48.831   7.506  15.713  0.00  0.00    +0.000 C 
ENDROOT
BRANCH   1   2
ATOM      2  C   UNL     1      48.613   7.360  14.224  0.00  0.00    +0.000 A 
ATOM      3  C   UNL     1      49.630   7.648  13.314  0.00  0.00    +0.000 A 
ATOM      4  C   UNL     1      49.370   7.552  11.957  0.00  0.00    +0.000 A 
ATOM      5  F   UNL     1      50.353   7.802  11.080  0.00  0.00    +0.000 F 
ATOM      6  C   UNL     1      48.109   7.184  11.484  0.00  0.00    +0.000 A 
ATOM      7  C   UNL     1      47.056   6.869  12.365  0.00  0.00    +0.000 A 
ATOM      8  C   UNL     1      47.344   6.978  13.737  0.00  0.00    +0.000 A 
BRANCH   7   9
ATOM      9  C   UNL     1      45.740   6.359  11.864  0.00  0.00    +0.000 A 
ATOM     10  C   UNL     1      45.594   4.967  11.656  0.00  0.00    +0.000 A 
ATOM     11  C   UNL     1      44.386   4.390  11.266  0.00  0.00    +0.000 A 
ATOM     12  C   UNL     1      43.274   5.189  11.060  0.00  0.00    +0.000 A 
ATOM     13  C   UNL     1      43.376   6.563  11.232  0.00  0.00    +0.000 A 
ATOM     14  C   UNL     1      44.585   7.158  11.645  0.00  0.00    +0.000 A 
BRANCH  14  15
ATOM     15  O   UNL     1      44.686   8.522  11.802  0.00  0.00    +0.000 OA
ATOM     16  C   UNL     1      43.938   9.314  10.879  0.00  0.00    +0.000 C 
ENDBRANCH  14  15
ENDBRANCH   7   9
ENDBRANCH   1   2
BRANCH   1  17
ATOM     17  N   UNL     1      48.167   6.413  16.423  0.00  0.00    +0.000 N 
ATOM     18  H   UNL     1      47.303   6.151  15.955  0.00  0.00    +0.000 HD
BRANCH  17  24
ATOM     19  C   UNL     1      48.504   3.946  16.703  0.00  0.00    +0.000 A 
ATOM     20  C   UNL     1      49.374   2.902  17.051  0.00  0.00    +0.000 A 
ATOM     21  C   UNL     1      50.685   3.151  17.473  0.00  0.00    +0.000 A 
ATOM     22  C   UNL     1      51.138   4.471  17.514  0.00  0.00    +0.000 A 
ATOM     23  C   UNL     1      50.275   5.518  17.160  0.00  0.00    +0.000 A 
ATOM     24  C   UNL     1      48.934   5.289  16.790  0.00  0.00    +0.000 A 
BRANCH  21  25
ATOM     25  C   UNL     1      51.517   1.966  17.833  0.00  0.00    +0.000 C 
ATOM     26  N   UNL     1      52.645   2.152  18.577  0.00  0.00    +0.000 N 
ATOM     27  O   UNL     1      51.203   0.833  17.480  0.00  0.00    +0.000 OA
ATOM     28  H   UNL     1      52.993   3.041  18.905  0.00  0.00    +0.000 HD
ATOM     29  H   UNL     1      53.183   1.322  18.791  0.00  0.00    +0.000 HD
ENDBRANCH  21  25
BRANCH  19  31
ATOM     30  C   UNL     1      47.117   3.602  14.797  0.00  0.00    +0.000 C 
ATOM     31  O   UNL     1      47.250   3.697  16.209  0.00  0.00    +0.000 OA
ENDBRANCH  19  31
ENDBRANCH  17  24
ENDBRANCH   1  17
TORSDOF 7
ENDMDL
MODEL 8
REMARK VINA RESULT:    -6.561      4.234      6.279
REMARK INTER + INTRA:         -10.077
REMARK INTER:                  -8.924
REMARK INTRA:                  -1.154
REMARK UNBOUND:                -0.832
REMARK  Name = 
REMARK  9 active torsions:
REMARK  status: ('A' for Active; 'I' for Inactive)
REMARK    1  A    between atoms: C_1  and  O_2
REMARK    2  A    between atoms: O_2  and  C_3
REMARK    3  A    between atoms: C_5  and  C_6
REMARK    4  A    between atoms: C_11  and  N_12
REMARK    5  A    between atoms: N_12  and  C_13
REMARK    6  A    between atoms: C_13  and  C_14
REMARK    7  A    between atoms: C_19  and  C_20
REMARK    8  A    between atoms: C_25  and  O_26
REMARK    9  A    between atoms: O_26  and  C_27
REMARK                            x       y       z     vdW  Elec       q    Type
REMARK                         _______ _______ _______ _____ _____    ______ ____
ROOT
ATOM      1  C   UNL     1      48.079   7.573  13.094  0.00  0.00    +0.000 C 
ENDROOT
BRANCH   1   2
ATOM      2  C   UNL     1      49.199   7.527  14.108  0.00  0.00    +0.000 A 
ATOM      3  C   UNL     1      50.453   8.067  13.823  0.00  0.00    +0.000 A 
ATOM      4  C   UNL     1      51.465   7.955  14.762  0.00  0.00    +0.000 A 
ATOM      5  F   UNL     1      52.665   8.495  14.502  0.00  0.00    +0.000 F 
ATOM      6  C   UNL     1      51.258   7.305  15.979  0.00  0.00    +0.000 A 
ATOM      7  C   UNL     1      50.005   6.758  16.317  0.00  0.00    +0.000 A 
ATOM      8  C   UNL     1      48.994   6.881  15.346  0.00  0.00    +0.000 A 
BRANCH   7   9
ATOM      9  C   UNL     1      49.744   6.166  17.668  0.00  0.00    +0.000 A 
ATOM     10  C   UNL     1      49.319   7.027  18.708  0.00  0.00    +0.000 A 
ATOM     11  C   UNL     1      48.979   6.559  19.976  0.00  0.00    +0.000 A 
ATOM     12  C   UNL     1      49.060   5.206  20.257  0.00  0.00    +0.000 A 
ATOM     13  C   UNL     1      49.492   4.326  19.273  0.00  0.00    +0.000 A 
ATOM     14  C   UNL     1      49.820   4.782  17.981  0.00  0.00    +0.000 A 
BRANCH  14  15
ATOM     15  O   UNL     1      50.261   3.909  17.013  0.00  0.00    +0.000 OA
ATOM     16  C   UNL     1      50.196   2.522  17.344  0.00  0.00    +0.000 C 
ENDBRANCH  14  15
ENDBRANCH   7   9
ENDBRANCH   1   2
BRANCH   1  17
ATOM     17  N   UNL     1      46.844   7.065  13.691  0.00  0.00    +0.000 N 
ATOM     18  H   UNL     1      46.209   7.828  13.910  0.00  0.00    +0.000 HD
BRANCH  17  24
ATOM     19  C   UNL     1      46.480   4.625  13.255  0.00  0.00    +0.000 A 
ATOM     20  C   UNL     1      45.724   3.638  12.605  0.00  0.00    +0.000 A 
ATOM     21  C   UNL     1      44.656   3.969  11.763  0.00  0.00    +0.000 A 
ATOM     22  C   UNL     1      44.322   5.316  11.600  0.00  0.00    +0.000 A 
ATOM     23  C   UNL     1      45.070   6.305  12.254  0.00  0.00    +0.000 A 
ATOM     24  C   UNL     1      46.186   5.992  13.057  0.00  0.00    +0.000 A 
BRANCH  21  25
ATOM     25  C   UNL     1      43.931   2.840  11.112  0.00  0.00    +0.000 C 
ATOM     26  N   UNL     1      44.473   2.258  10.004  0.00  0.00    +0.000 N 
ATOM     27  O   UNL     1      42.866   2.423  11.557  0.00  0.00    +0.000 OA
ATOM     28  H   UNL     1      45.335   2.535   9.557  0.00  0.00    +0.000 HD
ATOM     29  H   UNL     1      43.944   1.501   9.591  0.00  0.00    +0.000 HD
ENDBRANCH  21  25
BRANCH  19  31
ATOM     30  C   UNL     1      47.069   3.942  15.460  0.00  0.00    +0.000 C 
ATOM     31  O   UNL     1      47.471   4.297  14.143  0.00  0.00    +0.000 OA
ENDBRANCH  19  31
ENDBRANCH  17  24
ENDBRANCH   1  17
TORSDOF 7
ENDMDL
MODEL 9
REMARK VINA RESULT:    -6.520      4.490      7.233
REMARK INTER + INTRA:         -10.020
REMARK INTER:                  -8.922
REMARK INTRA:                  -1.098
REMARK UNBOUND:                -0.832
REMARK  Name = 
REMARK  9 active torsions:
REMARK  status: ('A' for Active; 'I' for Inactive)
REMARK    1  A    between atoms: C_1  and  O_2
REMARK    2  A    between atoms: O_2  and  C_3
REMARK    3  A    between atoms: C_5  and  C_6
REMARK    4  A    between atoms: C_11  and  N_12
REMARK    5  A    between atoms: N_12  and  C_13
REMARK    6  A    between atoms: C_13  and  C_14
REMARK    7  A    between atoms: C_19  and  C_20
REMARK    8  A    between atoms: C_25  and  O_26
REMARK    9  A    between atoms: O_26  and  C_27
REMARK                            x       y       z     vdW  Elec       q    Type
REMARK                         _______ _______ _______ _____ _____    ______ ____
ROOT
ATOM      1  C   UNL     1      48.924   8.160  14.987  0.00  0.00    +0.000 C 
ENDROOT
BRANCH   1   2
ATOM      2  C   UNL     1      49.055   7.404  16.289  0.00  0.00    +0.000 A 
ATOM      3  C   UNL     1      48.533   7.917  17.477  0.00  0.00    +0.000 A 
ATOM      4  C   UNL     1      48.723   7.215  18.656  0.00  0.00    +0.000 A 
ATOM      5  F   UNL     1      48.201   7.692  19.795  0.00  0.00    +0.000 F 
ATOM      6  C   UNL     1      49.433   6.014  18.680  0.00  0.00    +0.000 A 
ATOM      7  C   UNL     1      49.965   5.450  17.504  0.00  0.00    +0.000 A 
ATOM      8  C   UNL     1      49.762   6.182  16.320  0.00  0.00    +0.000 A 
BRANCH   7   9
ATOM      9  C   UNL     1      50.622   4.104  17.506  0.00  0.00    +0.000 A 
ATOM     10  C   UNL     1      51.938   3.999  18.015  0.00  0.00    +0.000 A 
ATOM     11  C   UNL     1      52.602   2.779  18.128  0.00  0.00    +0.000 A 
ATOM     12  C   UNL     1      51.976   1.612  17.726  0.00  0.00    +0.000 A 
ATOM     13  C   UNL     1      50.691   1.669  17.200  0.00  0.00    +0.000 A 
ATOM     14  C   UNL     1      50.000   2.892  17.098  0.00  0.00    +0.000 A 
BRANCH  14  15
ATOM     15  O   UNL     1      48.733   2.947  16.564  0.00  0.00    +0.000 OA
ATOM     16  C   UNL     1      47.656   2.850  17.496  0.00  0.00    +0.000 C 
ENDBRANCH  14  15
ENDBRANCH   7   9
ENDBRANCH   1   2
BRANCH   1  17
ATOM     17  N   UNL     1      48.742   7.220  13.880  0.00  0.00    +0.000 N 
ATOM     18  H   UNL     1      49.458   6.499  13.899  0.00  0.00    +0.000 HD
BRANCH  17  24
ATOM     19  C   UNL     1      46.360   7.398  13.125  0.00  0.00    +0.000 A 
ATOM     20  C   UNL     1      45.137   6.748  12.902  0.00  0.00    +0.000 A 
ATOM     21  C   UNL     1      44.968   5.388  13.183  0.00  0.00    +0.000 A 
ATOM     22  C   UNL     1      46.060   4.661  13.663  0.00  0.00    +0.000 A 
ATOM     23  C   UNL     1      47.287   5.304  13.880  0.00  0.00    +0.000 A 
ATOM     24  C   UNL     1      47.457   6.686  13.660  0.00  0.00    +0.000 A 
BRANCH  21  25
ATOM     25  C   UNL     1      43.620   4.804  12.922  0.00  0.00    +0.000 C 
ATOM     26  N   UNL     1      42.645   5.602  12.401  0.00  0.00    +0.000 N 
ATOM     27  O   UNL     1      43.378   3.625  13.159  0.00  0.00    +0.000 OA
ATOM     28  H   UNL     1      42.742   6.583  12.183  0.00  0.00    +0.000 HD
ATOM     29  H   UNL     1      41.744   5.167  12.247  0.00  0.00    +0.000 HD
ENDBRANCH  21  25
BRANCH  19  31
ATOM     30  C   UNL     1      45.439   9.393  12.202  0.00  0.00    +0.000 C 
ATOM     31  O   UNL     1      46.548   8.709  12.771  0.00  0.00    +0.000 OA
ENDBRANCH  19  31
ENDBRANCH  17  24
ENDBRANCH   1  17
TORSDOF 7
ENDMDL
