MODEL 1
REMARK VINA RESULT:    -7.555      0.000      0.000
REMARK INTER + INTRA:         -11.620
REMARK INTER:                 -10.205
REMARK INTRA:                  -1.415
REMARK UNBOUND:                -1.415
REMARK  Name = 
REMARK  7 active torsions:
REMARK  status: ('A' for Active; 'I' for Inactive)
REMARK    1  A    between atoms: C_1  and  N_2
REMARK    2  A    between atoms: N_2  and  C_3
REMARK    3  A    between atoms: C_3  and  C_4
REMARK    4  A    between atoms: C_7  and  C_8
REMARK    5  A    between atoms: C_8  and  O_9
REMARK    6  A    between atoms: O_9  and  C_10
REMARK    7  A    between atoms: C_18  and  C_20
REMARK                            x       y       z     vdW  Elec       q    Type
REMARK                         _______ _______ _______ _____ _____    ______ ____
ROOT
ATOM      1  C   UNL     1      46.359   8.610  12.232  0.00  0.00    +0.000 C 
ATOM      2  N   UNL     1      46.150   7.169  12.148  0.00  0.00    +0.000 N 
ATOM      3  C   UNL     1      44.885   6.761  11.683  0.00  0.00    +0.000 C 
ATOM      4  O   UNL     1      44.028   7.589  11.377  0.00  0.00    +0.000 OA
ENDROOT
BRANCH   3   5
ATOM      5  C   UNL     1      44.567   5.327  11.596  0.00  0.00    +0.000 A 
ATOM      6  C   UNL     1      43.834   4.622  12.539  0.00  0.00    +0.000 A 
ATOM      7  S   UNL     1      43.573   2.987  12.122  0.00  0.00    +0.000 S 
ATOM      8  C   UNL     1      44.293   3.208  10.597  0.00  0.00    +0.000 A 
ATOM      9  N   UNL     1      44.297   2.210   9.676  0.00  0.00    +0.000 NA
ATOM     10  C   UNL     1      44.811   2.546   8.539  0.00  0.00    +0.000 A 
ATOM     11  N   UNL     1      45.355   3.772   8.257  0.00  0.00    +0.000 N 
ATOM     12  C   UNL     1      45.500   4.763   9.207  0.00  0.00    +0.000 A 
ATOM     13  O   UNL     1      46.212   5.737   8.995  0.00  0.00    +0.000 OA
ATOM     14  C   UNL     1      44.820   4.477  10.455  0.00  0.00    +0.000 A 
ATOM     15  H   UNL     1      45.807   3.946   7.371  0.00  0.00    +0.000 HD
ENDBRANCH   3   5
BRANCH   2  16
ATOM     16  C   UNL     1      47.247   6.237  12.409  0.00  0.00    +0.000 C 
BRANCH  16  17
ATOM     17  C   UNL     1      47.538   5.850  13.833  0.00  0.00    +0.000 A 
ATOM     18  C   UNL     1      46.959   4.695  14.382  0.00  0.00    +0.000 A 
ATOM     19  C   UNL     1      47.285   4.290  15.675  0.00  0.00    +0.000 A 
ATOM     20  C   UNL     1      48.184   5.040  16.442  0.00  0.00    +0.000 A 
ATOM     21  C   UNL     1      48.751   6.200  15.896  0.00  0.00    +0.000 A 
ATOM     22  C   UNL     1      48.422   6.609  14.606  0.00  0.00    +0.000 A 
BRANCH  20  23
ATOM     23  C   UNL     1      48.571   4.580  17.821  0.00  0.00    +0.000 C 
BRANCH  23  24
ATOM     24  O   UNL     1      48.988   3.219  17.745  0.00  0.00    +0.000 OA
BRANCH  24  25
ATOM     25  C   UNL     1      50.338   2.998  17.798  0.00  0.00    +0.000 A 
ATOM     26  C   UNL     1      51.302   3.928  18.192  0.00  0.00    +0.000 A 
ATOM     27  C   UNL     1      52.652   3.579  18.202  0.00  0.00    +0.000 A 
ATOM     28  C   UNL     1      53.052   2.299  17.819  0.00  0.00    +0.000 A 
ATOM     29  C   UNL     1      52.093   1.367  17.425  0.00  0.00    +0.000 A 
ATOM     30  C   UNL     1      50.741   1.716  17.414  0.00  0.00    +0.000 A 
ENDBRANCH  24  25
ENDBRANCH  23  24
ENDBRANCH  20  23
ENDBRANCH  16  17
ENDBRANCH   2  16
TORSDOF 6
ENDMDL
MODEL 2
REMARK VINA RESULT:    -7.311      3.792      8.296
REMARK INTER + INTRA:         -11.290
REMARK INTER:                  -9.911
REMARK INTRA:                  -1.379
REMARK UNBOUND:                -1.415
REMARK  Name = 
REMARK  7 active torsions:
REMARK  status: ('A' for Active; 'I' for Inactive)
REMARK    1  A    between atoms: C_1  and  N_2
REMARK    2  A    between atoms: N_2  and  C_3
REMARK    3  A    between atoms: C_3  and  C_4
REMARK    4  A    between atoms: C_7  and  C_8
REMARK    5  A    between atoms: C_8  and  O_9
REMARK    6  A    between atoms: O_9  and  C_10
REMARK    7  A    between atoms: C_18  and  C_20
REMARK                            x       y       z     vdW  Elec       q    Type
REMARK                         _______ _______ _______ _____ _____    ______ ____
ROOT
ATOM      1  C   UNL     1      49.625   7.284  12.504  0.00  0.00    +0.000 C 
ATOM      2  N   UNL     1      48.943   7.594  13.755  0.00  0.00    +0.000 N 
ATOM      3  C   UNL     1      49.778   7.865  14.855  0.00  0.00    +0.000 C 
ATOM      4  O   UNL     1      51.003   7.831  14.742  0.00  0.00    +0.000 OA
ENDROOT
BRANCH   3   5
ATOM      5  C   UNL     1      49.183   8.154  16.170  0.00  0.00    +0.000 A 
ATOM      6  C   UNL     1      48.895   9.425  16.644  0.00  0.00    +0.000 A 
ATOM      7  S   UNL     1      48.144   9.432  18.176  0.00  0.00    +0.000 S 
ATOM      8  C   UNL     1      48.033   7.734  18.186  0.00  0.00    +0.000 A 
ATOM      9  N   UNL     1      47.379   7.083  19.181  0.00  0.00    +0.000 NA
ATOM     10  C   UNL     1      47.310   5.804  19.017  0.00  0.00    +0.000 A 
ATOM     11  N   UNL     1      47.870   5.117  17.971  0.00  0.00    +0.000 N 
ATOM     12  C   UNL     1      48.664   5.723  17.018  0.00  0.00    +0.000 A 
ATOM     13  O   UNL     1      49.351   5.055  16.255  0.00  0.00    +0.000 OA
ATOM     14  C   UNL     1      48.658   7.171  17.090  0.00  0.00    +0.000 A 
ATOM     15  H   UNL     1      47.843   4.108  17.941  0.00  0.00    +0.000 HD
ENDBRANCH   3   5
BRANCH   2  16
ATOM     16  C   UNL     1      47.488   7.739  13.798  0.00  0.00    +0.000 C 
BRANCH  16  17
ATOM     17  C   UNL     1      46.643   6.721  13.084  0.00  0.00    +0.000 A 
ATOM     18  C   UNL     1      46.623   5.387  13.524  0.00  0.00    +0.000 A 
ATOM     19  C   UNL     1      45.784   4.456  12.913  0.00  0.00    +0.000 A 
ATOM     20  C   UNL     1      44.961   4.842  11.848  0.00  0.00    +0.000 A 
ATOM     21  C   UNL     1      44.991   6.171  11.403  0.00  0.00    +0.000 A 
ATOM     22  C   UNL     1      45.834   7.101  12.008  0.00  0.00    +0.000 A 
BRANCH  20  23
ATOM     23  C   UNL     1      44.023   3.850  11.217  0.00  0.00    +0.000 C 
BRANCH  23  24
ATOM     24  O   UNL     1      43.920   4.145   9.826  0.00  0.00    +0.000 OA
BRANCH  24  25
ATOM     25  C   UNL     1      44.857   3.563   9.015  0.00  0.00    +0.000 A 
ATOM     26  C   UNL     1      45.655   4.228   8.082  0.00  0.00    +0.000 A 
ATOM     27  C   UNL     1      46.576   3.519   7.312  0.00  0.00    +0.000 A 
ATOM     28  C   UNL     1      46.709   2.139   7.466  0.00  0.00    +0.000 A 
ATOM     29  C   UNL     1      45.914   1.470   8.396  0.00  0.00    +0.000 A 
ATOM     30  C   UNL     1      44.991   2.180   9.167  0.00  0.00    +0.000 A 
ENDBRANCH  24  25
ENDBRANCH  23  24
ENDBRANCH  20  23
ENDBRANCH  16  17
ENDBRANCH   2  16
TORSDOF 6
ENDMDL
MODEL 3
REMARK VINA RESULT:    -7.282      2.053      3.456
REMARK INTER + INTRA:         -11.251
REMARK INTER:                  -9.854
REMARK INTRA:                  -1.397
REMARK UNBOUND:                -1.415
REMARK  Name = 
REMARK  7 active torsions:
REMARK  status: ('A' for Active; 'I' for Inactive)
REMARK    1  A    between atoms: C_1  and  N_2
REMARK    2  A    between atoms: N_2  and  C_3
REMARK    3  A    between atoms: C_3  and  C_4
REMARK    4  A    between atoms: C_7  and  C_8
REMARK    5  A    between atoms: C_8  and  O_9
REMARK    6  A    between atoms: O_9  and  C_10
REMARK    7  A    between atoms: C_18  and  C_20
REMARK                            x       y       z     vdW  Elec       q    Type
REMARK                         _______ _______ _______ _____ _____    ______ ____
ROOT
ATOM      1  C   UNL     1      46.476   8.546  12.369  0.00  0.00    +0.000 C 
ATOM      2  N   UNL     1      46.225   7.114  12.260  0.00  0.00    +0.000 N 
ATOM      3  C   UNL     1      44.948   6.751  11.792  0.00  0.00    +0.000 C 
ATOM      4  O   UNL     1      44.114   7.608  11.504  0.00  0.00    +0.000 OA
ENDROOT
BRANCH   3   5
ATOM      5  C   UNL     1      44.589   5.328  11.681  0.00  0.00    +0.000 A 
ATOM      6  C   UNL     1      43.866   4.619  12.628  0.00  0.00    +0.000 A 
ATOM      7  S   UNL     1      43.548   3.003  12.181  0.00  0.00    +0.000 S 
ATOM      8  C   UNL     1      44.226   3.243  10.639  0.00  0.00    +0.000 A 
ATOM      9  N   UNL     1      44.173   2.269   9.695  0.00  0.00    +0.000 NA
ATOM     10  C   UNL     1      44.660   2.620   8.550  0.00  0.00    +0.000 A 
ATOM     11  N   UNL     1      45.228   3.838   8.280  0.00  0.00    +0.000 N 
ATOM     12  C   UNL     1      45.430   4.800   9.249  0.00  0.00    +0.000 A 
ATOM     13  O   UNL     1      46.161   5.760   9.038  0.00  0.00    +0.000 OA
ATOM     14  C   UNL     1      44.783   4.501  10.511  0.00  0.00    +0.000 A 
ATOM     15  H   UNL     1      45.657   4.022   7.384  0.00  0.00    +0.000 HD
ENDBRANCH   3   5
BRANCH   2  16
ATOM     16  C   UNL     1      47.295   6.146  12.501  0.00  0.00    +0.000 C 
BRANCH  16  17
ATOM     17  C   UNL     1      47.640   5.794  13.922  0.00  0.00    +0.000 A 
ATOM     18  C   UNL     1      48.535   6.594  14.650  0.00  0.00    +0.000 A 
ATOM     19  C   UNL     1      48.799   6.315  15.990  0.00  0.00    +0.000 A 
ATOM     20  C   UNL     1      48.181   5.228  16.618  0.00  0.00    +0.000 A 
ATOM     21  C   UNL     1      47.297   4.423  15.886  0.00  0.00    +0.000 A 
ATOM     22  C   UNL     1      47.037   4.696  14.545  0.00  0.00    +0.000 A 
BRANCH  20  23
ATOM     23  C   UNL     1      48.431   4.953  18.076  0.00  0.00    +0.000 C 
BRANCH  23  24
ATOM     24  O   UNL     1      47.255   5.291  18.808  0.00  0.00    +0.000 OA
BRANCH  24  25
ATOM     25  C   UNL     1      47.336   6.408  19.597  0.00  0.00    +0.000 A 
ATOM     26  C   UNL     1      47.390   7.726  19.141  0.00  0.00    +0.000 A 
ATOM     27  C   UNL     1      47.472   8.782  20.048  0.00  0.00    +0.000 A 
ATOM     28  C   UNL     1      47.500   8.530  21.420  0.00  0.00    +0.000 A 
ATOM     29  C   UNL     1      47.447   7.215  21.881  0.00  0.00    +0.000 A 
ATOM     30  C   UNL     1      47.366   6.159  20.972  0.00  0.00    +0.000 A 
ENDBRANCH  24  25
ENDBRANCH  23  24
ENDBRANCH  20  23
ENDBRANCH  16  17
ENDBRANCH   2  16
TORSDOF 6
ENDMDL
MODEL 4
REMARK VINA RESULT:    -7.235      1.306      1.989
REMARK INTER + INTRA:         -11.187
REMARK INTER:                  -9.813
REMARK INTRA:                  -1.374
REMARK UNBOUND:                -1.415
REMARK  Name = 
REMARK  7 active torsions:
REMARK  status: ('A' for Active; 'I' for Inactive)
REMARK    1  A    between atoms: C_1  and  N_2
REMARK    2  A    between atoms: N_2  and  C_3
REMARK    3  A    between atoms: C_3  and  C_4
REMARK    4  A    between atoms: C_7  and  C_8
REMARK    5  A    between atoms: C_8  and  O_9
REMARK    6  A    between atoms: O_9  and  C_10
REMARK    7  A    between atoms: C_18  and  C_20
REMARK                            x       y       z     vdW  Elec       q    Type
REMARK                         _______ _______ _______ _____ _____    ______ ____
ROOT
ATOM      1  C   UNL     1      46.331   8.841  12.918  0.00  0.00    +0.000 C 
ATOM      2  N   UNL     1      46.266   7.525  12.293  0.00  0.00    +0.000 N 
ATOM      3  C   UNL     1      45.190   7.320  11.409  0.00  0.00    +0.000 C 
ATOM      4  O   UNL     1      44.369   8.211  11.197  0.00  0.00    +0.000 OA
ENDROOT
BRANCH   3   5
ATOM      5  C   UNL     1      45.021   6.013  10.755  0.00  0.00    +0.000 A 
ATOM      6  C   UNL     1      45.588   5.657   9.541  0.00  0.00    +0.000 A 
ATOM      7  S   UNL     1      45.265   4.046   9.078  0.00  0.00    +0.000 S 
ATOM      8  C   UNL     1      44.492   3.722  10.559  0.00  0.00    +0.000 A 
ATOM      9  N   UNL     1      44.069   2.470  10.866  0.00  0.00    +0.000 NA
ATOM     10  C   UNL     1      43.570   2.359  12.053  0.00  0.00    +0.000 A 
ATOM     11  N   UNL     1      43.420   3.394  12.940  0.00  0.00    +0.000 N 
ATOM     12  C   UNL     1      43.704   4.705  12.613  0.00  0.00    +0.000 A 
ATOM     13  O   UNL     1      43.323   5.626  13.326  0.00  0.00    +0.000 OA
ATOM     14  C   UNL     1      44.387   4.855  11.344  0.00  0.00    +0.000 A 
ATOM     15  H   UNL     1      42.954   3.254  13.824  0.00  0.00    +0.000 HD
ENDBRANCH   3   5
BRANCH   2  16
ATOM     16  C   UNL     1      47.339   6.550  12.489  0.00  0.00    +0.000 C 
BRANCH  16  17
ATOM     17  C   UNL     1      47.580   6.016  13.874  0.00  0.00    +0.000 A 
ATOM     18  C   UNL     1      46.953   4.831  14.293  0.00  0.00    +0.000 A 
ATOM     19  C   UNL     1      47.232   4.291  15.547  0.00  0.00    +0.000 A 
ATOM     20  C   UNL     1      48.133   4.933  16.405  0.00  0.00    +0.000 A 
ATOM     21  C   UNL     1      48.749   6.122  15.990  0.00  0.00    +0.000 A 
ATOM     22  C   UNL     1      48.467   6.666  14.739  0.00  0.00    +0.000 A 
BRANCH  20  23
ATOM     23  C   UNL     1      48.469   4.328  17.741  0.00  0.00    +0.000 C 
BRANCH  23  24
ATOM     24  O   UNL     1      48.953   3.004  17.530  0.00  0.00    +0.000 OA
BRANCH  24  25
ATOM     25  C   UNL     1      50.304   2.826  17.671  0.00  0.00    +0.000 A 
ATOM     26  C   UNL     1      51.212   3.790  18.110  0.00  0.00    +0.000 A 
ATOM     27  C   UNL     1      52.569   3.484  18.211  0.00  0.00    +0.000 A 
ATOM     28  C   UNL     1      53.031   2.212  17.874  0.00  0.00    +0.000 A 
ATOM     29  C   UNL     1      52.127   1.245  17.434  0.00  0.00    +0.000 A 
ATOM     30  C   UNL     1      50.769   1.552  17.333  0.00  0.00    +0.000 A 
ENDBRANCH  24  25
ENDBRANCH  23  24
ENDBRANCH  20  23
ENDBRANCH  16  17
ENDBRANCH   2  16
TORSDOF 6
ENDMDL
MODEL 5
REMARK VINA RESULT:    -7.022      3.678      8.616
REMARK INTER + INTRA:         -10.900
REMARK INTER:                  -9.920
REMARK INTRA:                  -0.980
REMARK UNBOUND:                -1.415
REMARK  Name = 
REMARK  7 active torsions:
REMARK  status: ('A' for Active; 'I' for Inactive)
REMARK    1  A    between atoms: C_1  and  N_2
REMARK    2  A    between atoms: N_2  and  C_3
REMARK    3  A    between atoms: C_3  and  C_4
REMARK    4  A    between atoms: C_7  and  C_8
REMARK    5  A    between atoms: C_8  and  O_9
REMARK    6  A    between atoms: O_9  and  C_10
REMARK    7  A    between atoms: C_18  and  C_20
REMARK                            x       y       z     vdW  Elec       q    Type
REMARK                         _______ _______ _______ _____ _____    ______ ____
ROOT
ATOM      1  C   UNL     1      49.239   7.052  12.645  0.00  0.00    +0.000 C 
ATOM      2  N   UNL     1      48.520   6.760  13.879  0.00  0.00    +0.000 N 
ATOM      3  C   UNL     1      49.301   6.730  15.049  0.00  0.00    +0.000 C 
ATOM      4  O   UNL     1      50.513   6.937  15.005  0.00  0.00    +0.000 OA
ENDROOT
BRANCH   3   5
ATOM      5  C   UNL     1      48.671   6.410  16.340  0.00  0.00    +0.000 A 
ATOM      6  C   UNL     1      48.448   5.126  16.813  0.00  0.00    +0.000 A 
ATOM      7  S   UNL     1      47.762   5.080  18.376  0.00  0.00    +0.000 S 
ATOM      8  C   UNL     1      47.887   6.769  18.536  0.00  0.00    +0.000 A 
ATOM      9  N   UNL     1      47.573   7.385  19.704  0.00  0.00    +0.000 NA
ATOM     10  C   UNL     1      47.789   8.659  19.703  0.00  0.00    +0.000 A 
ATOM     11  N   UNL     1      48.251   9.373  18.628  0.00  0.00    +0.000 N 
ATOM     12  C   UNL     1      48.446   8.810  17.383  0.00  0.00    +0.000 A 
ATOM     13  O   UNL     1      48.609   9.514  16.394  0.00  0.00    +0.000 OA
ATOM     14  C   UNL     1      48.342   7.364  17.375  0.00  0.00    +0.000 A 
ATOM     15  H   UNL     1      48.328  10.379  18.670  0.00  0.00    +0.000 HD
ENDBRANCH   3   5
BRANCH   2  16
ATOM     16  C   UNL     1      47.062   6.645  13.886  0.00  0.00    +0.000 C 
BRANCH  16  17
ATOM     17  C   UNL     1      46.405   5.774  12.850  0.00  0.00    +0.000 A 
ATOM     18  C   UNL     1      46.033   4.457  13.168  0.00  0.00    +0.000 A 
ATOM     19  C   UNL     1      45.356   3.672  12.237  0.00  0.00    +0.000 A 
ATOM     20  C   UNL     1      45.050   4.186  10.972  0.00  0.00    +0.000 A 
ATOM     21  C   UNL     1      45.433   5.496  10.652  0.00  0.00    +0.000 A 
ATOM     22  C   UNL     1      46.115   6.281  11.579  0.00  0.00    +0.000 A 
BRANCH  20  23
ATOM     23  C   UNL     1      44.281   3.355   9.982  0.00  0.00    +0.000 C 
BRANCH  23  24
ATOM     24  O   UNL     1      45.080   2.231   9.618  0.00  0.00    +0.000 OA
BRANCH  24  25
ATOM     25  C   UNL     1      45.750   2.328   8.428  0.00  0.00    +0.000 A 
ATOM     26  C   UNL     1      45.761   3.440   7.585  0.00  0.00    +0.000 A 
ATOM     27  C   UNL     1      46.486   3.414   6.394  0.00  0.00    +0.000 A 
ATOM     28  C   UNL     1      47.208   2.277   6.034  0.00  0.00    +0.000 A 
ATOM     29  C   UNL     1      47.201   1.162   6.873  0.00  0.00    +0.000 A 
ATOM     30  C   UNL     1      46.474   1.188   8.064  0.00  0.00    +0.000 A 
ENDBRANCH  24  25
ENDBRANCH  23  24
ENDBRANCH  20  23
ENDBRANCH  16  17
ENDBRANCH   2  16
TORSDOF 6
ENDMDL
MODEL 6
REMARK VINA RESULT:    -6.901      3.533      8.410
REMARK INTER + INTRA:         -10.736
REMARK INTER:                  -9.548
REMARK INTRA:                  -1.188
REMARK UNBOUND:                -1.415
REMARK  Name = 
REMARK  7 active torsions:
REMARK  status: ('A' for Active; 'I' for Inactive)
REMARK    1  A    between atoms: C_1  and  N_2
REMARK    2  A    between atoms: N_2  and  C_3
REMARK    3  A    between atoms: C_3  and  C_4
REMARK    4  A    between atoms: C_7  and  C_8
REMARK    5  A    between atoms: C_8  and  O_9
REMARK    6  A    between atoms: O_9  and  C_10
REMARK    7  A    between atoms: C_18  and  C_20
REMARK                            x       y       z     vdW  Elec       q    Type
REMARK                         _______ _______ _______ _____ _____    ______ ____
ROOT
ATOM      1  C   UNL     1      47.548   9.051  14.412  0.00  0.00    +0.000 C 
ATOM      2  N   UNL     1      48.643   8.107  14.606  0.00  0.00    +0.000 N 
ATOM      3  C   UNL     1      49.289   8.169  15.855  0.00  0.00    +0.000 C 
ATOM      4  O   UNL     1      48.934   8.979  16.710  0.00  0.00    +0.000 OA
ENDROOT
BRANCH   3   5
ATOM      5  C   UNL     1      50.428   7.280  16.132  0.00  0.00    +0.000 A 
ATOM      6  C   UNL     1      51.761   7.633  15.978  0.00  0.00    +0.000 A 
ATOM      7  S   UNL     1      52.853   6.408  16.447  0.00  0.00    +0.000 S 
ATOM      8  C   UNL     1      51.587   5.427  17.020  0.00  0.00    +0.000 A 
ATOM      9  N   UNL     1      51.844   4.260  17.663  0.00  0.00    +0.000 NA
ATOM     10  C   UNL     1      50.789   3.660  18.108  0.00  0.00    +0.000 A 
ATOM     11  N   UNL     1      49.504   4.102  17.932  0.00  0.00    +0.000 N 
ATOM     12  C   UNL     1      49.191   5.205  17.162  0.00  0.00    +0.000 A 
ATOM     13  O   UNL     1      48.036   5.422  16.816  0.00  0.00    +0.000 OA
ATOM     14  C   UNL     1      50.347   5.979  16.756  0.00  0.00    +0.000 A 
ATOM     15  H   UNL     1      48.719   3.548  18.241  0.00  0.00    +0.000 HD
ENDBRANCH   3   5
BRANCH   2  16
ATOM     16  C   UNL     1      48.939   7.088  13.600  0.00  0.00    +0.000 C 
BRANCH  16  17
ATOM     17  C   UNL     1      47.792   6.355  12.960  0.00  0.00    +0.000 A 
ATOM     18  C   UNL     1      47.239   5.226  13.586  0.00  0.00    +0.000 A 
ATOM     19  C   UNL     1      46.127   4.589  13.036  0.00  0.00    +0.000 A 
ATOM     20  C   UNL     1      45.560   5.064  11.848  0.00  0.00    +0.000 A 
ATOM     21  C   UNL     1      46.121   6.183  11.218  0.00  0.00    +0.000 A 
ATOM     22  C   UNL     1      47.235   6.817  11.762  0.00  0.00    +0.000 A 
BRANCH  20  23
ATOM     23  C   UNL     1      44.335   4.404  11.277  0.00  0.00    +0.000 C 
BRANCH  23  24
ATOM     24  O   UNL     1      44.321   4.618   9.867  0.00  0.00    +0.000 OA
BRANCH  24  25
ATOM     25  C   UNL     1      45.058   3.741   9.117  0.00  0.00    +0.000 A 
ATOM     26  C   UNL     1      45.095   2.356   9.283  0.00  0.00    +0.000 A 
ATOM     27  C   UNL     1      45.890   1.569   8.450  0.00  0.00    +0.000 A 
ATOM     28  C   UNL     1      46.655   2.158   7.443  0.00  0.00    +0.000 A 
ATOM     29  C   UNL     1      46.621   3.542   7.274  0.00  0.00    +0.000 A 
ATOM     30  C   UNL     1      45.826   4.329   8.108  0.00  0.00    +0.000 A 
ENDBRANCH  24  25
ENDBRANCH  23  24
ENDBRANCH  20  23
ENDBRANCH  16  17
ENDBRANCH   2  16
TORSDOF 6
ENDMDL
MODEL 7
REMARK VINA RESULT:    -6.888      3.301      8.335
REMARK INTER + INTRA:         -10.719
REMARK INTER:                  -9.551
REMARK INTRA:                  -1.168
REMARK UNBOUND:                -1.415
REMARK  Name = 
REMARK  7 active torsions:
REMARK  status: ('A' for Active; 'I' for Inactive)
REMARK    1  A    between atoms: C_1  and  N_2
REMARK    2  A    between atoms: N_2  and  C_3
REMARK    3  A    between atoms: C_3  and  C_4
REMARK    4  A    between atoms: C_7  and  C_8
REMARK    5  A    between atoms: C_8  and  O_9
REMARK    6  A    between atoms: O_9  and  C_10
REMARK    7  A    between atoms: C_18  and  C_20
REMARK                            x       y       z     vdW  Elec       q    Type
REMARK                         _______ _______ _______ _____ _____    ______ ____
ROOT
ATOM      1  C   UNL     1      48.271   8.868  14.891  0.00  0.00    +0.000 C 
ATOM      2  N   UNL     1      48.537   7.480  15.248  0.00  0.00    +0.000 N 
ATOM      3  C   UNL     1      48.516   7.188  16.625  0.00  0.00    +0.000 C 
ATOM      4  O   UNL     1      48.289   8.069  17.453  0.00  0.00    +0.000 OA
ENDROOT
BRANCH   3   5
ATOM      5  C   UNL     1      48.807   5.822  17.086  0.00  0.00    +0.000 A 
ATOM      6  C   UNL     1      47.867   4.810  17.203  0.00  0.00    +0.000 A 
ATOM      7  S   UNL     1      48.524   3.315  17.697  0.00  0.00    +0.000 S 
ATOM      8  C   UNL     1      50.110   3.928  17.619  0.00  0.00    +0.000 A 
ATOM      9  N   UNL     1      51.181   3.119  17.817  0.00  0.00    +0.000 NA
ATOM     10  C   UNL     1      52.321   3.706  17.652  0.00  0.00    +0.000 A 
ATOM     11  N   UNL     1      52.482   5.033  17.347  0.00  0.00    +0.000 N 
ATOM     12  C   UNL     1      51.425   5.918  17.279  0.00  0.00    +0.000 A 
ATOM     13  O   UNL     1      51.619   7.128  17.260  0.00  0.00    +0.000 OA
ATOM     14  C   UNL     1      50.125   5.279  17.327  0.00  0.00    +0.000 A 
ATOM     15  H   UNL     1      53.403   5.446  17.304  0.00  0.00    +0.000 HD
ENDBRANCH   3   5
BRANCH   2  16
ATOM     16  C   UNL     1      48.680   6.455  14.214  0.00  0.00    +0.000 C 
BRANCH  16  17
ATOM     17  C   UNL     1      47.489   6.130  13.355  0.00  0.00    +0.000 A 
ATOM     18  C   UNL     1      47.242   6.865  12.184  0.00  0.00    +0.000 A 
ATOM     19  C   UNL     1      46.184   6.519  11.345  0.00  0.00    +0.000 A 
ATOM     20  C   UNL     1      45.352   5.441  11.669  0.00  0.00    +0.000 A 
ATOM     21  C   UNL     1      45.593   4.716  12.845  0.00  0.00    +0.000 A 
ATOM     22  C   UNL     1      46.646   5.064  13.688  0.00  0.00    +0.000 A 
BRANCH  20  23
ATOM     23  C   UNL     1      44.237   5.039  10.742  0.00  0.00    +0.000 C 
BRANCH  23  24
ATOM     24  O   UNL     1      44.384   3.655  10.432  0.00  0.00    +0.000 OA
BRANCH  24  25
ATOM     25  C   UNL     1      45.138   3.361   9.328  0.00  0.00    +0.000 A 
ATOM     26  C   UNL     1      45.625   4.286   8.402  0.00  0.00    +0.000 A 
ATOM     27  C   UNL     1      46.385   3.859   7.314  0.00  0.00    +0.000 A 
ATOM     28  C   UNL     1      46.667   2.504   7.140  0.00  0.00    +0.000 A 
ATOM     29  C   UNL     1      46.183   1.576   8.062  0.00  0.00    +0.000 A 
ATOM     30  C   UNL     1      45.421   2.004   9.150  0.00  0.00    +0.000 A 
ENDBRANCH  24  25
ENDBRANCH  23  24
ENDBRANCH  20  23
ENDBRANCH  16  17
ENDBRANCH   2  16
TORSDOF 6
ENDMDL
MODEL 8
REMARK VINA RESULT:    -6.641      3.925      8.743
REMARK INTER + INTRA:         -10.385
REMARK INTER:                  -9.658
REMARK INTRA:                  -0.727
REMARK UNBOUND:                -1.415
REMARK  Name = 
REMARK  7 active torsions:
REMARK  status: ('A' for Active; 'I' for Inactive)
REMARK    1  A    between atoms: C_1  and  N_2
REMARK    2  A    between atoms: N_2  and  C_3
REMARK    3  A    between atoms: C_3  and  C_4
REMARK    4  A    between atoms: C_7  and  C_8
REMARK    5  A    between atoms: C_8  and  O_9
REMARK    6  A    between atoms: O_9  and  C_10
REMARK    7  A    between atoms: C_18  and  C_20
REMARK                            x       y       z     vdW  Elec       q    Type
REMARK                         _______ _______ _______ _____ _____    ______ ____
ROOT
ATOM      1  C   UNL     1      47.221   4.265  16.489  0.00  0.00    +0.000 C 
ATOM      2  N   UNL     1      47.935   5.409  15.933  0.00  0.00    +0.000 N 
ATOM      3  C   UNL     1      48.897   5.997  16.776  0.00  0.00    +0.000 C 
ATOM      4  O   UNL     1      49.100   5.556  17.907  0.00  0.00    +0.000 OA
ENDROOT
BRANCH   3   5
ATOM      5  C   UNL     1      49.644   7.179  16.317  0.00  0.00    +0.000 A 
ATOM      6  C   UNL     1      50.737   7.140  15.465  0.00  0.00    +0.000 A 
ATOM      7  S   UNL     1      51.347   8.683  15.060  0.00  0.00    +0.000 S 
ATOM      8  C   UNL     1      50.073   9.457  15.881  0.00  0.00    +0.000 A 
ATOM      9  N   UNL     1      49.930  10.806  15.832  0.00  0.00    +0.000 NA
ATOM     10  C   UNL     1      48.877  11.246  16.438  0.00  0.00    +0.000 A 
ATOM     11  N   UNL     1      47.982  10.463  17.121  0.00  0.00    +0.000 N 
ATOM     12  C   UNL     1      48.169   9.109  17.315  0.00  0.00    +0.000 A 
ATOM     13  O   UNL     1      47.496   8.494  18.134  0.00  0.00    +0.000 OA
ATOM     14  C   UNL     1      49.263   8.555  16.543  0.00  0.00    +0.000 A 
ATOM     15  H   UNL     1      47.219  10.878  17.636  0.00  0.00    +0.000 HD
ENDBRANCH   3   5
BRANCH   2  16
ATOM     16  C   UNL     1      47.737   5.811  14.541  0.00  0.00    +0.000 C 
BRANCH  16  17
ATOM     17  C   UNL     1      46.667   5.122  13.739  0.00  0.00    +0.000 A 
ATOM     18  C   UNL     1      45.571   5.852  13.251  0.00  0.00    +0.000 A 
ATOM     19  C   UNL     1      44.616   5.235  12.444  0.00  0.00    +0.000 A 
ATOM     20  C   UNL     1      44.737   3.878  12.123  0.00  0.00    +0.000 A 
ATOM     21  C   UNL     1      45.825   3.148  12.621  0.00  0.00    +0.000 A 
ATOM     22  C   UNL     1      46.776   3.761  13.433  0.00  0.00    +0.000 A 
BRANCH  20  23
ATOM     23  C   UNL     1      43.731   3.221  11.216  0.00  0.00    +0.000 C 
BRANCH  23  24
ATOM     24  O   UNL     1      43.843   3.803   9.920  0.00  0.00    +0.000 OA
BRANCH  24  25
ATOM     25  C   UNL     1      44.809   3.277   9.104  0.00  0.00    +0.000 A 
ATOM     26  C   UNL     1      45.158   1.929   9.017  0.00  0.00    +0.000 A 
ATOM     27  C   UNL     1      46.164   1.517   8.143  0.00  0.00    +0.000 A 
ATOM     28  C   UNL     1      46.831   2.449   7.348  0.00  0.00    +0.000 A 
ATOM     29  C   UNL     1      46.486   3.798   7.431  0.00  0.00    +0.000 A 
ATOM     30  C   UNL     1      45.479   4.209   8.306  0.00  0.00    +0.000 A 
ENDBRANCH  24  25
ENDBRANCH  23  24
ENDBRANCH  20  23
ENDBRANCH  16  17
ENDBRANCH   2  16
TORSDOF 6
ENDMDL
MODEL 9
REMARK VINA RESULT:    -6.600      4.725      8.393
REMARK INTER + INTRA:         -10.330
REMARK INTER:                  -9.144
REMARK INTRA:                  -1.186
REMARK UNBOUND:                -1.415
REMARK  Name = 
REMARK  7 active torsions:
REMARK  status: ('A' for Active; 'I' for Inactive)
REMARK    1  A    between atoms: C_1  and  N_2
REMARK    2  A    between atoms: N_2  and  C_3
REMARK    3  A    between atoms: C_3  and  C_4
REMARK    4  A    between atoms: C_7  and  C_8
REMARK    5  A    between atoms: C_8  and  O_9
REMARK    6  A    between atoms: O_9  and  C_10
REMARK    7  A    between atoms: C_18  and  C_20
REMARK                            x       y       z     vdW  Elec       q    Type
REMARK                         _______ _______ _______ _____ _____    ______ ____
ROOT
ATOM      1  C   UNL     1      44.975   9.138  12.771  0.00  0.00    +0.000 C 
ATOM      2  N   UNL     1      46.314   8.559  12.775  0.00  0.00    +0.000 N 
ATOM      3  C   UNL     1      47.364   9.447  12.472  0.00  0.00    +0.000 C 
ATOM      4  O   UNL     1      47.138  10.630  12.221  0.00  0.00    +0.000 OA
ENDROOT
BRANCH   3   5
ATOM      5  C   UNL     1      48.748   8.949  12.418  0.00  0.00    +0.000 A 
ATOM      6  C   UNL     1      49.398   8.549  11.260  0.00  0.00    +0.000 A 
ATOM      7  S   UNL     1      51.022   8.087  11.511  0.00  0.00    +0.000 S 
ATOM      8  C   UNL     1      50.958   8.558  13.145  0.00  0.00    +0.000 A 
ATOM      9  N   UNL     1      52.069   8.530  13.923  0.00  0.00    +0.000 NA
ATOM     10  C   UNL     1      51.885   8.986  15.119  0.00  0.00    +0.000 A 
ATOM     11  N   UNL     1      50.685   9.426  15.613  0.00  0.00    +0.000 N 
ATOM     12  C   UNL     1      49.505   9.336  14.903  0.00  0.00    +0.000 A 
ATOM     13  O   UNL     1      48.424   9.496  15.457  0.00  0.00    +0.000 OA
ATOM     14  C   UNL     1      49.687   8.956  13.516  0.00  0.00    +0.000 A 
ATOM     15  H   UNL     1      50.594   9.701  16.581  0.00  0.00    +0.000 HD
ENDBRANCH   3   5
BRANCH   2  16
ATOM     16  C   UNL     1      46.531   7.177  13.200  0.00  0.00    +0.000 C 
BRANCH  16  17
ATOM     17  C   UNL     1      45.955   6.068  12.362  0.00  0.00    +0.000 A 
ATOM     18  C   UNL     1      45.797   6.240  10.977  0.00  0.00    +0.000 A 
ATOM     19  C   UNL     1      45.336   5.190  10.185  0.00  0.00    +0.000 A 
ATOM     20  C   UNL     1      45.015   3.958  10.767  0.00  0.00    +0.000 A 
ATOM     21  C   UNL     1      45.161   3.792  12.151  0.00  0.00    +0.000 A 
ATOM     22  C   UNL     1      45.616   4.843  12.945  0.00  0.00    +0.000 A 
BRANCH  20  23
ATOM     23  C   UNL     1      44.558   2.810   9.908  0.00  0.00    +0.000 C 
BRANCH  23  24
ATOM     24  O   UNL     1      44.648   3.204   8.541  0.00  0.00    +0.000 OA
BRANCH  24  25
ATOM     25  C   UNL     1      45.637   2.608   7.805  0.00  0.00    +0.000 A 
ATOM     26  C   UNL     1      46.247   1.388   8.097  0.00  0.00    +0.000 A 
ATOM     27  C   UNL     1      47.247   0.885   7.265  0.00  0.00    +0.000 A 
ATOM     28  C   UNL     1      47.646   1.596   6.133  0.00  0.00    +0.000 A 
ATOM     29  C   UNL     1      47.039   2.816   5.838  0.00  0.00    +0.000 A 
ATOM     30  C   UNL     1      46.039   3.320   6.671  0.00  0.00    +0.000 A 
ENDBRANCH  24  25
ENDBRANCH  23  24
ENDBRANCH  20  23
ENDBRANCH  16  17
ENDBRANCH   2  16
TORSDOF 6
ENDMDL
