MODEL 1
REMARK VINA RESULT:    -8.410      0.000      0.000
REMARK INTER + INTRA:         -12.931
REMARK INTER:                 -11.851
REMARK INTRA:                  -1.080
REMARK UNBOUND:                -1.080
REMARK  Name = 
REMARK  8 active torsions:
REMARK  status: ('A' for Active; 'I' for Inactive)
REMARK    1  A    between atoms: C_1  and  C_2
REMARK    2  A    between atoms: C_2  and  N_3
REMARK    3  A    between atoms: C_2  and  C_11
REMARK    4  A    between atoms: N_3  and  C_4
REMARK    5  A    between atoms: C_4  and  C_5
REMARK    6  A    between atoms: C_14  and  C_15
REMARK    7  A    between atoms: C_15  and  N_16
REMARK    8  A    between atoms: C_17  and  C_19
REMARK                            x       y       z     vdW  Elec       q    Type
REMARK                         _______ _______ _______ _____ _____    ______ ____
ROOT
ATOM      1  C   UNL     1      44.988   4.845  11.982  0.00  0.00    +0.000 A 
ATOM      2  C   UNL     1      45.672   5.899  11.351  0.00  0.00    +0.000 A 
ATOM      3  C   UNL     1      46.784   6.496  11.952  0.00  0.00    +0.000 A 
ATOM      4  C   UNL     1      47.258   6.027  13.181  0.00  0.00    +0.000 A 
ATOM      5  C   UNL     1      46.589   4.970  13.807  0.00  0.00    +0.000 A 
ATOM      6  C   UNL     1      45.465   4.392  13.220  0.00  0.00    +0.000 A 
ENDROOT
BRANCH   1   8
ATOM      7  C   UNL     1      42.546   5.288  11.439  0.00  0.00    +0.000 C 
ATOM      8  C   UNL     1      43.713   4.290  11.360  0.00  0.00    +0.000 C 
BRANCH   8   9
ATOM      9  N   UNL     1      43.891   3.924   9.945  0.00  0.00    +0.000 NA
ATOM     10  H   UNL     1      44.553   4.573   9.519  0.00  0.00    +0.000 HD
BRANCH   9  11
ATOM     11  C   UNL     1      44.421   2.565   9.760  0.00  0.00    +0.000 C 
BRANCH  11  12
ATOM     12  C   UNL     1      45.458   2.501   8.654  0.00  0.00    +0.000 A 
ATOM     13  C   UNL     1      45.766   3.644   7.918  0.00  0.00    +0.000 A 
ATOM     14  C   UNL     1      46.732   3.563   6.920  0.00  0.00    +0.000 A 
ATOM     15  C   UNL     1      47.361   2.347   6.680  0.00  0.00    +0.000 A 
ATOM     16  C   UNL     1      46.995   1.258   7.450  0.00  0.00    +0.000 A 
ATOM     17  N   UNL     1      46.066   1.305   8.430  0.00  0.00    +0.000 NA
ENDBRANCH  11  12
ENDBRANCH   9  11
ENDBRANCH   8   9
ENDBRANCH   1   8
BRANCH   4  18
ATOM     18  C   UNL     1      48.406   6.693  13.886  0.00  0.00    +0.000 C 
BRANCH  18  19
ATOM     19  N   UNL     1      48.129   6.814  15.296  0.00  0.00    +0.000 N 
ATOM     20  C   UNL     1      49.067   6.519  16.248  0.00  0.00    +0.000 C 
ATOM     21  O   UNL     1      50.179   6.094  15.951  0.00  0.00    +0.000 OA
ATOM     22  H   UNL     1      47.184   7.072  15.564  0.00  0.00    +0.000 HD
BRANCH  20  23
ATOM     23  C   UNL     1      48.698   6.787  17.646  0.00  0.00    +0.000 A 
ATOM     24  C   UNL     1      48.375   8.083  18.026  0.00  0.00    +0.000 A 
ATOM     25  S   UNL     1      47.933   8.229  19.665  0.00  0.00    +0.000 S 
ATOM     26  C   UNL     1      48.201   6.571  19.940  0.00  0.00    +0.000 A 
ATOM     27  N   UNL     1      48.022   6.031  21.175  0.00  0.00    +0.000 NA
ATOM     28  C   UNL     1      48.280   4.768  21.248  0.00  0.00    +0.000 A 
ATOM     29  N   UNL     1      48.696   3.994  20.195  0.00  0.00    +0.000 N 
ATOM     30  C   UNL     1      48.861   4.490  18.925  0.00  0.00    +0.000 A 
ATOM     31  O   UNL     1      49.178   3.760  17.993  0.00  0.00    +0.000 OA
ATOM     32  C   UNL     1      48.600   5.912  18.791  0.00  0.00    +0.000 A 
ATOM     33  H   UNL     1      48.869   3.006  20.309  0.00  0.00    +0.000 HD
ENDBRANCH  20  23
ENDBRANCH  18  19
ENDBRANCH   4  18
TORSDOF 7
ENDMDL
MODEL 2
REMARK VINA RESULT:    -7.908      1.430      2.086
REMARK INTER + INTRA:         -12.224
REMARK INTER:                 -11.139
REMARK INTRA:                  -1.085
REMARK UNBOUND:                -1.080
REMARK  Name = 
REMARK  8 active torsions:
REMARK  status: ('A' for Active; 'I' for Inactive)
REMARK    1  A    between atoms: C_1  and  C_2
REMARK    2  A    between atoms: C_2  and  N_3
REMARK    3  A    between atoms: C_2  and  C_11
REMARK    4  A    between atoms: N_3  and  C_4
REMARK    5  A    between atoms: C_4  and  C_5
REMARK    6  A    between atoms: C_14  and  C_15
REMARK    7  A    between atoms: C_15  and  N_16
REMARK    8  A    between atoms: C_17  and  C_19
REMARK                            x       y       z     vdW  Elec       q    Type
REMARK                         _______ _______ _______ _____ _____    ______ ____
ROOT
ATOM      1  C   UNL     1      45.465   4.502  12.176  0.00  0.00    +0.000 A 
ATOM      2  C   UNL     1      45.893   5.747  11.681  0.00  0.00    +0.000 A 
ATOM      3  C   UNL     1      46.838   6.510  12.373  0.00  0.00    +0.000 A 
ATOM      4  C   UNL     1      47.404   6.026  13.558  0.00  0.00    +0.000 A 
ATOM      5  C   UNL     1      46.991   4.783  14.048  0.00  0.00    +0.000 A 
ATOM      6  C   UNL     1      46.029   4.034  13.370  0.00  0.00    +0.000 A 
ENDROOT
BRANCH   1   8
ATOM      7  C   UNL     1      43.373   4.692  10.746  0.00  0.00    +0.000 C 
ATOM      8  C   UNL     1      44.352   3.746  11.462  0.00  0.00    +0.000 C 
BRANCH   8   9
ATOM      9  N   UNL     1      44.868   2.799  10.460  0.00  0.00    +0.000 NA
ATOM     10  H   UNL     1      44.371   1.914  10.559  0.00  0.00    +0.000 HD
BRANCH   9  11
ATOM     11  C   UNL     1      44.683   3.261   9.076  0.00  0.00    +0.000 C 
BRANCH  11  12
ATOM     12  C   UNL     1      45.677   2.623   8.123  0.00  0.00    +0.000 A 
ATOM     13  C   UNL     1      46.155   3.341   7.029  0.00  0.00    +0.000 A 
ATOM     14  C   UNL     1      47.077   2.739   6.178  0.00  0.00    +0.000 A 
ATOM     15  C   UNL     1      47.494   1.439   6.440  0.00  0.00    +0.000 A 
ATOM     16  C   UNL     1      46.968   0.792   7.543  0.00  0.00    +0.000 A 
ATOM     17  N   UNL     1      46.077   1.350   8.390  0.00  0.00    +0.000 NA
ENDBRANCH  11  12
ENDBRANCH   9  11
ENDBRANCH   8   9
ENDBRANCH   1   8
BRANCH   4  18
ATOM     18  C   UNL     1      48.367   6.852  14.362  0.00  0.00    +0.000 C 
BRANCH  18  19
ATOM     19  N   UNL     1      48.135   6.665  15.772  0.00  0.00    +0.000 N 
ATOM     20  C   UNL     1      49.112   6.208  16.615  0.00  0.00    +0.000 C 
ATOM     21  O   UNL     1      50.225   5.892  16.204  0.00  0.00    +0.000 OA
ATOM     22  H   UNL     1      47.193   6.830  16.116  0.00  0.00    +0.000 HD
BRANCH  20  23
ATOM     23  C   UNL     1      48.785   6.164  18.047  0.00  0.00    +0.000 A 
ATOM     24  C   UNL     1      49.008   4.992  18.759  0.00  0.00    +0.000 A 
ATOM     25  S   UNL     1      48.617   5.106  20.413  0.00  0.00    +0.000 S 
ATOM     26  C   UNL     1      48.090   6.714  20.232  0.00  0.00    +0.000 A 
ATOM     27  N   UNL     1      47.599   7.411  21.291  0.00  0.00    +0.000 NA
ATOM     28  C   UNL     1      47.217   8.612  21.010  0.00  0.00    +0.000 A 
ATOM     29  N   UNL     1      47.288   9.182  19.764  0.00  0.00    +0.000 N 
ATOM     30  C   UNL     1      47.804   8.528  18.673  0.00  0.00    +0.000 A 
ATOM     31  O   UNL     1      47.907   9.085  17.586  0.00  0.00    +0.000 OA
ATOM     32  C   UNL     1      48.234   7.165  18.931  0.00  0.00    +0.000 A 
ATOM     33  H   UNL     1      46.987  10.133  19.607  0.00  0.00    +0.000 HD
ENDBRANCH  20  23
ENDBRANCH  18  19
ENDBRANCH   4  18
TORSDOF 7
ENDMDL
MODEL 3
REMARK VINA RESULT:    -7.278      3.423      8.482
REMARK INTER + INTRA:         -11.337
REMARK INTER:                  -9.760
REMARK INTRA:                  -1.576
REMARK UNBOUND:                -1.080
REMARK  Name = 
REMARK  8 active torsions:
REMARK  status: ('A' for Active; 'I' for Inactive)
REMARK    1  A    between atoms: C_1  and  C_2
REMARK    2  A    between atoms: C_2  and  N_3
REMARK    3  A    between atoms: C_2  and  C_11
REMARK    4  A    between atoms: N_3  and  C_4
REMARK    5  A    between atoms: C_4  and  C_5
REMARK    6  A    between atoms: C_14  and  C_15
REMARK    7  A    between atoms: C_15  and  N_16
REMARK    8  A    between atoms: C_17  and  C_19
REMARK                            x       y       z     vdW  Elec       q    Type
REMARK                         _______ _______ _______ _____ _____    ______ ____
ROOT
ATOM      1  C   UNL     1      48.539   7.954  16.504  0.00  0.00    +0.000 A 
ATOM      2  C   UNL     1      48.856   6.815  15.743  0.00  0.00    +0.000 A 
ATOM      3  C   UNL     1      48.827   6.853  14.346  0.00  0.00    +0.000 A 
ATOM      4  C   UNL     1      48.518   8.043  13.679  0.00  0.00    +0.000 A 
ATOM      5  C   UNL     1      48.214   9.183  14.431  0.00  0.00    +0.000 A 
ATOM      6  C   UNL     1      48.217   9.137  15.824  0.00  0.00    +0.000 A 
ENDROOT
BRANCH   1   8
ATOM      7  C   UNL     1      48.310   9.231  18.689  0.00  0.00    +0.000 C 
ATOM      8  C   UNL     1      48.466   7.854  18.022  0.00  0.00    +0.000 C 
BRANCH   8   9
ATOM      9  N   UNL     1      47.350   7.009  18.476  0.00  0.00    +0.000 NA
ATOM     10  H   UNL     1      46.860   6.645  17.659  0.00  0.00    +0.000 HD
BRANCH   9  11
ATOM     11  C   UNL     1      47.785   5.858  19.282  0.00  0.00    +0.000 C 
BRANCH  11  12
ATOM     12  C   UNL     1      48.164   4.668  18.420  0.00  0.00    +0.000 A 
ATOM     13  C   UNL     1      47.239   4.128  17.528  0.00  0.00    +0.000 A 
ATOM     14  C   UNL     1      47.617   3.047  16.738  0.00  0.00    +0.000 A 
ATOM     15  C   UNL     1      48.902   2.533  16.860  0.00  0.00    +0.000 A 
ATOM     16  C   UNL     1      49.759   3.121  17.772  0.00  0.00    +0.000 A 
ATOM     17  N   UNL     1      49.425   4.174  18.549  0.00  0.00    +0.000 NA
ENDBRANCH  11  12
ENDBRANCH   9  11
ENDBRANCH   8   9
ENDBRANCH   1   8
BRANCH   4  18
ATOM     18  C   UNL     1      48.409   8.099  12.181  0.00  0.00    +0.000 C 
BRANCH  18  19
ATOM     19  N   UNL     1      47.671   6.963  11.687  0.00  0.00    +0.000 N 
ATOM     20  C   UNL     1      46.319   7.011  11.476  0.00  0.00    +0.000 C 
ATOM     21  O   UNL     1      45.659   8.012  11.739  0.00  0.00    +0.000 OA
ATOM     22  H   UNL     1      48.184   6.096  11.554  0.00  0.00    +0.000 HD
BRANCH  20  23
ATOM     23  C   UNL     1      45.701   5.824  10.868  0.00  0.00    +0.000 A 
ATOM     24  C   UNL     1      45.854   5.602   9.506  0.00  0.00    +0.000 A 
ATOM     25  S   UNL     1      45.115   4.169   8.955  0.00  0.00    +0.000 S 
ATOM     26  C   UNL     1      44.523   3.814  10.510  0.00  0.00    +0.000 A 
ATOM     27  N   UNL     1      43.769   2.705  10.733  0.00  0.00    +0.000 NA
ATOM     28  C   UNL     1      43.369   2.567  11.952  0.00  0.00    +0.000 A 
ATOM     29  N   UNL     1      43.660   3.437  12.972  0.00  0.00    +0.000 N 
ATOM     30  C   UNL     1      44.441   4.553  12.801  0.00  0.00    +0.000 A 
ATOM     31  O   UNL     1      44.730   5.279  13.745  0.00  0.00    +0.000 OA
ATOM     32  C   UNL     1      44.905   4.764  11.441  0.00  0.00    +0.000 A 
ATOM     33  H   UNL     1      43.330   3.269  13.912  0.00  0.00    +0.000 HD
ENDBRANCH  20  23
ENDBRANCH  18  19
ENDBRANCH   4  18
TORSDOF 7
ENDMDL
MODEL 4
REMARK VINA RESULT:    -7.183      3.189      9.026
REMARK INTER + INTRA:         -11.202
REMARK INTER:                  -9.556
REMARK INTRA:                  -1.645
REMARK UNBOUND:                -1.080
REMARK  Name = 
REMARK  8 active torsions:
REMARK  status: ('A' for Active; 'I' for Inactive)
REMARK    1  A    between atoms: C_1  and  C_2
REMARK    2  A    between atoms: C_2  and  N_3
REMARK    3  A    between atoms: C_2  and  C_11
REMARK    4  A    between atoms: N_3  and  C_4
REMARK    5  A    between atoms: C_4  and  C_5
REMARK    6  A    between atoms: C_14  and  C_15
REMARK    7  A    between atoms: C_15  and  N_16
REMARK    8  A    between atoms: C_17  and  C_19
REMARK                            x       y       z     vdW  Elec       q    Type
REMARK                         _______ _______ _______ _____ _____    ______ ____
ROOT
ATOM      1  C   UNL     1      48.687   8.072  16.308  0.00  0.00    +0.000 A 
ATOM      2  C   UNL     1      48.932   6.867  15.626  0.00  0.00    +0.000 A 
ATOM      3  C   UNL     1      48.626   6.734  14.268  0.00  0.00    +0.000 A 
ATOM      4  C   UNL     1      48.103   7.817  13.554  0.00  0.00    +0.000 A 
ATOM      5  C   UNL     1      47.869   9.022  14.225  0.00  0.00    +0.000 A 
ATOM      6  C   UNL     1      48.150   9.146  15.584  0.00  0.00    +0.000 A 
ENDROOT
BRANCH   1   8
ATOM      7  C   UNL     1      49.052   9.604  18.302  0.00  0.00    +0.000 C 
ATOM      8  C   UNL     1      48.922   8.152  17.810  0.00  0.00    +0.000 C 
BRANCH   8   9
ATOM      9  N   UNL     1      47.844   7.516  18.583  0.00  0.00    +0.000 NA
ATOM     10  H   UNL     1      47.132   7.176  17.935  0.00  0.00    +0.000 HD
BRANCH   9  11
ATOM     11  C   UNL     1      48.302   6.369  19.381  0.00  0.00    +0.000 C 
BRANCH  11  12
ATOM     12  C   UNL     1      48.330   5.085  18.573  0.00  0.00    +0.000 A 
ATOM     13  C   UNL     1      47.189   4.660  17.895  0.00  0.00    +0.000 A 
ATOM     14  C   UNL     1      47.246   3.488  17.147  0.00  0.00    +0.000 A 
ATOM     15  C   UNL     1      48.435   2.770  17.099  0.00  0.00    +0.000 A 
ATOM     16  C   UNL     1      49.521   3.255  17.805  0.00  0.00    +0.000 A 
ATOM     17  N   UNL     1      49.501   4.392  18.534  0.00  0.00    +0.000 NA
ENDBRANCH  11  12
ENDBRANCH   9  11
ENDBRANCH   8   9
ENDBRANCH   1   8
BRANCH   4  18
ATOM     18  C   UNL     1      47.698   7.685  12.113  0.00  0.00    +0.000 C 
BRANCH  18  19
ATOM     19  N   UNL     1      46.984   6.451  11.902  0.00  0.00    +0.000 N 
ATOM     20  C   UNL     1      45.618   6.381  11.969  0.00  0.00    +0.000 C 
ATOM     21  O   UNL     1      44.934   7.359  12.257  0.00  0.00    +0.000 OA
ATOM     22  H   UNL     1      47.537   5.612  11.756  0.00  0.00    +0.000 HD
BRANCH  20  23
ATOM     23  C   UNL     1      45.003   5.091  11.627  0.00  0.00    +0.000 A 
ATOM     24  C   UNL     1      44.282   4.405  12.595  0.00  0.00    +0.000 A 
ATOM     25  S   UNL     1      43.597   2.947  12.040  0.00  0.00    +0.000 S 
ATOM     26  C   UNL     1      44.278   3.155  10.494  0.00  0.00    +0.000 A 
ATOM     27  N   UNL     1      44.091   2.226   9.519  0.00  0.00    +0.000 NA
ATOM     28  C   UNL     1      44.679   2.498   8.402  0.00  0.00    +0.000 A 
ATOM     29  N   UNL     1      45.434   3.619   8.171  0.00  0.00    +0.000 N 
ATOM     30  C   UNL     1      45.626   4.598   9.115  0.00  0.00    +0.000 A 
ATOM     31  O   UNL     1      46.259   5.615   8.858  0.00  0.00    +0.000 OA
ATOM     32  C   UNL     1      44.998   4.333  10.397  0.00  0.00    +0.000 A 
ATOM     33  H   UNL     1      45.860   3.786   7.270  0.00  0.00    +0.000 HD
ENDBRANCH  20  23
ENDBRANCH  18  19
ENDBRANCH   4  18
TORSDOF 7
ENDMDL
MODEL 5
REMARK VINA RESULT:    -7.174      4.850      9.688
REMARK INTER + INTRA:         -11.189
REMARK INTER:                 -10.214
REMARK INTRA:                  -0.975
REMARK UNBOUND:                -1.080
REMARK  Name = 
REMARK  8 active torsions:
REMARK  status: ('A' for Active; 'I' for Inactive)
REMARK    1  A    between atoms: C_1  and  C_2
REMARK    2  A    between atoms: C_2  and  N_3
REMARK    3  A    between atoms: C_2  and  C_11
REMARK    4  A    between atoms: N_3  and  C_4
REMARK    5  A    between atoms: C_4  and  C_5
REMARK    6  A    between atoms: C_14  and  C_15
REMARK    7  A    between atoms: C_15  and  N_16
REMARK    8  A    between atoms: C_17  and  C_19
REMARK                            x       y       z     vdW  Elec       q    Type
REMARK                         _______ _______ _______ _____ _____    ______ ____
ROOT
ATOM      1  C   UNL     1      51.416   3.202  17.803  0.00  0.00    +0.000 A 
ATOM      2  C   UNL     1      50.668   4.353  18.109  0.00  0.00    +0.000 A 
ATOM      3  C   UNL     1      49.295   4.406  17.854  0.00  0.00    +0.000 A 
ATOM      4  C   UNL     1      48.632   3.296  17.323  0.00  0.00    +0.000 A 
ATOM      5  C   UNL     1      49.369   2.143  17.028  0.00  0.00    +0.000 A 
ATOM      6  C   UNL     1      50.743   2.100  17.258  0.00  0.00    +0.000 A 
ENDROOT
BRANCH   1   8
ATOM      7  C   UNL     1      53.480   4.634  18.183  0.00  0.00    +0.000 C 
ATOM      8  C   UNL     1      52.928   3.212  17.984  0.00  0.00    +0.000 C 
BRANCH   8   9
ATOM      9  N   UNL     1      53.363   2.401  19.133  0.00  0.00    +0.000 NA
ATOM     10  H   UNL     1      52.743   1.595  19.218  0.00  0.00    +0.000 HD
BRANCH   9  11
ATOM     11  C   UNL     1      54.736   1.893  18.997  0.00  0.00    +0.000 C 
BRANCH  11  12
ATOM     12  C   UNL     1      54.769   0.467  18.479  0.00  0.00    +0.000 A 
ATOM     13  C   UNL     1      55.089   0.215  17.146  0.00  0.00    +0.000 A 
ATOM     14  C   UNL     1      55.128  -1.102  16.700  0.00  0.00    +0.000 A 
ATOM     15  C   UNL     1      54.844  -2.130  17.591  0.00  0.00    +0.000 A 
ATOM     16  C   UNL     1      54.530  -1.797  18.896  0.00  0.00    +0.000 A 
ATOM     17  N   UNL     1      54.490  -0.530  19.362  0.00  0.00    +0.000 NA
ENDBRANCH  11  12
ENDBRANCH   9  11
ENDBRANCH   8   9
ENDBRANCH   1   8
BRANCH   4  18
ATOM     18  C   UNL     1      47.172   3.346  16.971  0.00  0.00    +0.000 C 
BRANCH  18  19
ATOM     19  N   UNL     1      46.924   4.378  15.996  0.00  0.00    +0.000 N 
ATOM     20  C   UNL     1      46.997   4.137  14.650  0.00  0.00    +0.000 C 
ATOM     21  O   UNL     1      47.321   3.040  14.205  0.00  0.00    +0.000 OA
ATOM     22  H   UNL     1      46.748   5.315  16.344  0.00  0.00    +0.000 HD
BRANCH  20  23
ATOM     23  C   UNL     1      46.616   5.242  13.758  0.00  0.00    +0.000 A 
ATOM     24  C   UNL     1      47.503   6.292  13.561  0.00  0.00    +0.000 A 
ATOM     25  S   UNL     1      46.938   7.476  12.473  0.00  0.00    +0.000 S 
ATOM     26  C   UNL     1      45.465   6.651  12.259  0.00  0.00    +0.000 A 
ATOM     27  N   UNL     1      44.498   7.152  11.446  0.00  0.00    +0.000 NA
ATOM     28  C   UNL     1      43.425   6.437  11.389  0.00  0.00    +0.000 A 
ATOM     29  N   UNL     1      43.233   5.261  12.069  0.00  0.00    +0.000 N 
ATOM     30  C   UNL     1      44.192   4.703  12.878  0.00  0.00    +0.000 A 
ATOM     31  O   UNL     1      44.012   3.622  13.426  0.00  0.00    +0.000 OA
ATOM     32  C   UNL     1      45.416   5.477  12.989  0.00  0.00    +0.000 A 
ATOM     33  H   UNL     1      42.375   4.736  11.975  0.00  0.00    +0.000 HD
ENDBRANCH  20  23
ENDBRANCH  18  19
ENDBRANCH   4  18
TORSDOF 7
ENDMDL
MODEL 6
REMARK VINA RESULT:    -7.099      3.684      5.677
REMARK INTER + INTRA:         -11.083
REMARK INTER:                  -9.865
REMARK INTRA:                  -1.219
REMARK UNBOUND:                -1.080
REMARK  Name = 
REMARK  8 active torsions:
REMARK  status: ('A' for Active; 'I' for Inactive)
REMARK    1  A    between atoms: C_1  and  C_2
REMARK    2  A    between atoms: C_2  and  N_3
REMARK    3  A    between atoms: C_2  and  C_11
REMARK    4  A    between atoms: N_3  and  C_4
REMARK    5  A    between atoms: C_4  and  C_5
REMARK    6  A    between atoms: C_14  and  C_15
REMARK    7  A    between atoms: C_15  and  N_16
REMARK    8  A    between atoms: C_17  and  C_19
REMARK                            x       y       z     vdW  Elec       q    Type
REMARK                         _______ _______ _______ _____ _____    ______ ____
ROOT
ATOM      1  C   UNL     1      44.717   4.563  12.368  0.00  0.00    +0.000 A 
ATOM      2  C   UNL     1      44.924   5.951  12.459  0.00  0.00    +0.000 A 
ATOM      3  C   UNL     1      46.056   6.470  13.095  0.00  0.00    +0.000 A 
ATOM      4  C   UNL     1      47.025   5.610  13.621  0.00  0.00    +0.000 A 
ATOM      5  C   UNL     1      46.830   4.228  13.522  0.00  0.00    +0.000 A 
ATOM      6  C   UNL     1      45.689   3.712  12.911  0.00  0.00    +0.000 A 
ENDROOT
BRANCH   1   8
ATOM      7  C   UNL     1      42.402   5.148  11.500  0.00  0.00    +0.000 C 
ATOM      8  C   UNL     1      43.422   4.029  11.772  0.00  0.00    +0.000 C 
BRANCH   8   9
ATOM      9  N   UNL     1      43.639   3.307  10.508  0.00  0.00    +0.000 NA
ATOM     10  H   UNL     1      42.744   2.947  10.178  0.00  0.00    +0.000 HD
BRANCH   9  11
ATOM     11  C   UNL     1      44.196   4.156   9.444  0.00  0.00    +0.000 C 
BRANCH  11  12
ATOM     12  C   UNL     1      45.228   3.421   8.609  0.00  0.00    +0.000 A 
ATOM     13  C   UNL     1      45.460   2.063   8.819  0.00  0.00    +0.000 A 
ATOM     14  C   UNL     1      46.400   1.410   8.029  0.00  0.00    +0.000 A 
ATOM     15  C   UNL     1      47.085   2.126   7.055  0.00  0.00    +0.000 A 
ATOM     16  C   UNL     1      46.802   3.472   6.913  0.00  0.00    +0.000 A 
ATOM     17  N   UNL     1      45.892   4.135   7.659  0.00  0.00    +0.000 NA
ENDBRANCH  11  12
ENDBRANCH   9  11
ENDBRANCH   8   9
ENDBRANCH   1   8
BRANCH   4  18
ATOM     18  C   UNL     1      48.216   6.134  14.373  0.00  0.00    +0.000 C 
BRANCH  18  19
ATOM     19  N   UNL     1      48.939   7.086  13.568  0.00  0.00    +0.000 N 
ATOM     20  C   UNL     1      49.923   7.881  14.092  0.00  0.00    +0.000 C 
ATOM     21  O   UNL     1      50.209   7.854  15.286  0.00  0.00    +0.000 OA
ATOM     22  H   UNL     1      48.653   7.191  12.599  0.00  0.00    +0.000 HD
BRANCH  20  23
ATOM     23  C   UNL     1      50.661   8.732  13.148  0.00  0.00    +0.000 A 
ATOM     24  C   UNL     1      52.049   8.718  13.163  0.00  0.00    +0.000 A 
ATOM     25  S   UNL     1      52.761   9.725  11.988  0.00  0.00    +0.000 S 
ATOM     26  C   UNL     1      51.239  10.254  11.442  0.00  0.00    +0.000 A 
ATOM     27  N   UNL     1      51.135  11.164  10.438  0.00  0.00    +0.000 NA
ATOM     28  C   UNL     1      49.923  11.492  10.137  0.00  0.00    +0.000 A 
ATOM     29  N   UNL     1      48.803  10.986  10.747  0.00  0.00    +0.000 N 
ATOM     30  C   UNL     1      48.859  10.043  11.744  0.00  0.00    +0.000 A 
ATOM     31  O   UNL     1      47.838   9.569  12.228  0.00  0.00    +0.000 OA
ATOM     32  C   UNL     1      50.201   9.651  12.132  0.00  0.00    +0.000 A 
ATOM     33  H   UNL     1      47.878  11.270  10.458  0.00  0.00    +0.000 HD
ENDBRANCH  20  23
ENDBRANCH  18  19
ENDBRANCH   4  18
TORSDOF 7
ENDMDL
MODEL 7
REMARK VINA RESULT:    -7.060      4.206      6.444
REMARK INTER + INTRA:         -11.029
REMARK INTER:                  -9.808
REMARK INTRA:                  -1.220
REMARK UNBOUND:                -1.080
REMARK  Name = 
REMARK  8 active torsions:
REMARK  status: ('A' for Active; 'I' for Inactive)
REMARK    1  A    between atoms: C_1  and  C_2
REMARK    2  A    between atoms: C_2  and  N_3
REMARK    3  A    between atoms: C_2  and  C_11
REMARK    4  A    between atoms: N_3  and  C_4
REMARK    5  A    between atoms: C_4  and  C_5
REMARK    6  A    between atoms: C_14  and  C_15
REMARK    7  A    between atoms: C_15  and  N_16
REMARK    8  A    between atoms: C_17  and  C_19
REMARK                            x       y       z     vdW  Elec       q    Type
REMARK                         _______ _______ _______ _____ _____    ______ ____
ROOT
ATOM      1  C   UNL     1      45.579   4.793  12.565  0.00  0.00    +0.000 A 
ATOM      2  C   UNL     1      46.202   4.577  13.807  0.00  0.00    +0.000 A 
ATOM      3  C   UNL     1      47.312   5.333  14.196  0.00  0.00    +0.000 A 
ATOM      4  C   UNL     1      47.800   6.348  13.367  0.00  0.00    +0.000 A 
ATOM      5  C   UNL     1      47.176   6.575  12.135  0.00  0.00    +0.000 A 
ATOM      6  C   UNL     1      46.086   5.803  11.736  0.00  0.00    +0.000 A 
ENDROOT
BRANCH   1   8
ATOM      7  C   UNL     1      43.348   4.643  11.360  0.00  0.00    +0.000 C 
ATOM      8  C   UNL     1      44.446   3.879  12.118  0.00  0.00    +0.000 C 
BRANCH   8   9
ATOM      9  N   UNL     1      44.913   2.789  11.246  0.00  0.00    +0.000 NA
ATOM     10  H   UNL     1      44.684   1.897  11.686  0.00  0.00    +0.000 HD
BRANCH   9  11
ATOM     11  C   UNL     1      44.286   2.802   9.916  0.00  0.00    +0.000 C 
BRANCH  11  12
ATOM     12  C   UNL     1      45.307   2.663   8.802  0.00  0.00    +0.000 A 
ATOM     13  C   UNL     1      45.657   3.772   8.034  0.00  0.00    +0.000 A 
ATOM     14  C   UNL     1      46.608   3.622   7.028  0.00  0.00    +0.000 A 
ATOM     15  C   UNL     1      47.178   2.373   6.814  0.00  0.00    +0.000 A 
ATOM     16  C   UNL     1      46.772   1.321   7.615  0.00  0.00    +0.000 A 
ATOM     17  N   UNL     1      45.858   1.435   8.602  0.00  0.00    +0.000 NA
ENDBRANCH  11  12
ENDBRANCH   9  11
ENDBRANCH   8   9
ENDBRANCH   1   8
BRANCH   4  18
ATOM     18  C   UNL     1      49.033   7.129  13.723  0.00  0.00    +0.000 C 
BRANCH  18  19
ATOM     19  N   UNL     1      49.314   8.115  12.711  0.00  0.00    +0.000 N 
ATOM     20  C   UNL     1      49.913   9.310  13.006  0.00  0.00    +0.000 C 
ATOM     21  O   UNL     1      50.202   9.621  14.159  0.00  0.00    +0.000 OA
ATOM     22  H   UNL     1      48.996   7.917  11.766  0.00  0.00    +0.000 HD
BRANCH  20  23
ATOM     23  C   UNL     1      50.246  10.184  11.872  0.00  0.00    +0.000 A 
ATOM     24  C   UNL     1      49.599  11.406  11.745  0.00  0.00    +0.000 A 
ATOM     25  S   UNL     1      50.117  12.322  10.405  0.00  0.00    +0.000 S 
ATOM     26  C   UNL     1      51.194  11.098   9.917  0.00  0.00    +0.000 A 
ATOM     27  N   UNL     1      51.952  11.242   8.798  0.00  0.00    +0.000 NA
ATOM     28  C   UNL     1      52.710  10.231   8.533  0.00  0.00    +0.000 A 
ATOM     29  N   UNL     1      52.782   9.089   9.290  0.00  0.00    +0.000 N 
ATOM     30  C   UNL     1      52.058   8.913  10.443  0.00  0.00    +0.000 A 
ATOM     31  O   UNL     1      52.188   7.905  11.128  0.00  0.00    +0.000 OA
ATOM     32  C   UNL     1      51.175  10.016  10.779  0.00  0.00    +0.000 A 
ATOM     33  H   UNL     1      53.406   8.335   9.040  0.00  0.00    +0.000 HD
ENDBRANCH  20  23
ENDBRANCH  18  19
ENDBRANCH   4  18
TORSDOF 7
ENDMDL
MODEL 8
REMARK VINA RESULT:    -6.818      2.146      2.920
REMARK INTER + INTRA:         -10.688
REMARK INTER:                  -9.339
REMARK INTRA:                  -1.349
REMARK UNBOUND:                -1.080
REMARK  Name = 
REMARK  8 active torsions:
REMARK  status: ('A' for Active; 'I' for Inactive)
REMARK    1  A    between atoms: C_1  and  C_2
REMARK    2  A    between atoms: C_2  and  N_3
REMARK    3  A    between atoms: C_2  and  C_11
REMARK    4  A    between atoms: N_3  and  C_4
REMARK    5  A    between atoms: C_4  and  C_5
REMARK    6  A    between atoms: C_14  and  C_15
REMARK    7  A    between atoms: C_15  and  N_16
REMARK    8  A    between atoms: C_17  and  C_19
REMARK                            x       y       z     vdW  Elec       q    Type
REMARK                         _______ _______ _______ _____ _____    ______ ____
ROOT
ATOM      1  C   UNL     1      45.999   7.816  12.069  0.00  0.00    +0.000 A 
ATOM      2  C   UNL     1      46.375   8.875  12.913  0.00  0.00    +0.000 A 
ATOM      3  C   UNL     1      47.656   8.930  13.471  0.00  0.00    +0.000 A 
ATOM      4  C   UNL     1      48.601   7.945  13.166  0.00  0.00    +0.000 A 
ATOM      5  C   UNL     1      48.235   6.895  12.317  0.00  0.00    +0.000 A 
ATOM      6  C   UNL     1      46.950   6.827  11.782  0.00  0.00    +0.000 A 
ENDROOT
BRANCH   1   8
ATOM      7  C   UNL     1      44.026   9.078  11.085  0.00  0.00    +0.000 C 
ATOM      8  C   UNL     1      44.564   7.721  11.569  0.00  0.00    +0.000 C 
BRANCH   8   9
ATOM      9  N   UNL     1      44.416   6.763  10.461  0.00  0.00    +0.000 NA
ATOM     10  H   UNL     1      45.310   6.683   9.976  0.00  0.00    +0.000 HD
BRANCH   9  11
ATOM     11  C   UNL     1      44.031   5.415  10.907  0.00  0.00    +0.000 C 
BRANCH  11  12
ATOM     12  C   UNL     1      44.556   4.335   9.979  0.00  0.00    +0.000 A 
ATOM     13  C   UNL     1      45.395   4.671   8.919  0.00  0.00    +0.000 A 
ATOM     14  C   UNL     1      45.875   3.660   8.092  0.00  0.00    +0.000 A 
ATOM     15  C   UNL     1      45.503   2.345   8.342  0.00  0.00    +0.000 A 
ATOM     16  C   UNL     1      44.662   2.094   9.411  0.00  0.00    +0.000 A 
ATOM     17  N   UNL     1      44.185   3.051  10.236  0.00  0.00    +0.000 NA
ENDBRANCH  11  12
ENDBRANCH   9  11
ENDBRANCH   8   9
ENDBRANCH   1   8
BRANCH   4  18
ATOM     18  C   UNL     1      49.961   7.936  13.805  0.00  0.00    +0.000 C 
BRANCH  18  19
ATOM     19  N   UNL     1      50.000   6.991  14.893  0.00  0.00    +0.000 N 
ATOM     20  C   UNL     1      49.676   7.346  16.175  0.00  0.00    +0.000 C 
ATOM     21  O   UNL     1      49.377   8.499  16.471  0.00  0.00    +0.000 OA
ATOM     22  H   UNL     1      50.337   6.056  14.686  0.00  0.00    +0.000 HD
BRANCH  20  23
ATOM     23  C   UNL     1      49.649   6.268  17.173  0.00  0.00    +0.000 A 
ATOM     24  C   UNL     1      50.464   6.360  18.293  0.00  0.00    +0.000 A 
ATOM     25  S   UNL     1      50.295   5.057  19.378  0.00  0.00    +0.000 S 
ATOM     26  C   UNL     1      49.156   4.296  18.368  0.00  0.00    +0.000 A 
ATOM     27  N   UNL     1      48.612   3.098  18.709  0.00  0.00    +0.000 NA
ATOM     28  C   UNL     1      47.778   2.625  17.844  0.00  0.00    +0.000 A 
ATOM     29  N   UNL     1      47.434   3.245  16.670  0.00  0.00    +0.000 N 
ATOM     30  C   UNL     1      47.935   4.469  16.299  0.00  0.00    +0.000 A 
ATOM     31  O   UNL     1      47.563   5.023  15.271  0.00  0.00    +0.000 OA
ATOM     32  C   UNL     1      48.892   5.039  17.230  0.00  0.00    +0.000 A 
ATOM     33  H   UNL     1      46.763   2.832  16.038  0.00  0.00    +0.000 HD
ENDBRANCH  20  23
ENDBRANCH  18  19
ENDBRANCH   4  18
TORSDOF 7
ENDMDL
MODEL 9
REMARK VINA RESULT:    -6.576      3.417      8.360
REMARK INTER + INTRA:         -10.346
REMARK INTER:                  -8.292
REMARK INTRA:                  -2.054
REMARK UNBOUND:                -1.080
REMARK  Name = 
REMARK  8 active torsions:
REMARK  status: ('A' for Active; 'I' for Inactive)
REMARK    1  A    between atoms: C_1  and  C_2
REMARK    2  A    between atoms: C_2  and  N_3
REMARK    3  A    between atoms: C_2  and  C_11
REMARK    4  A    between atoms: N_3  and  C_4
REMARK    5  A    between atoms: C_4  and  C_5
REMARK    6  A    between atoms: C_14  and  C_15
REMARK    7  A    between atoms: C_15  and  N_16
REMARK    8  A    between atoms: C_17  and  C_19
REMARK                            x       y       z     vdW  Elec       q    Type
REMARK                         _______ _______ _______ _____ _____    ______ ____
ROOT
ATOM      1  C   UNL     1      49.652   7.404  18.226  0.00  0.00    +0.000 A 
ATOM      2  C   UNL     1      50.039   6.869  16.984  0.00  0.00    +0.000 A 
ATOM      3  C   UNL     1      49.565   7.414  15.788  0.00  0.00    +0.000 A 
ATOM      4  C   UNL     1      48.722   8.530  15.806  0.00  0.00    +0.000 A 
ATOM      5  C   UNL     1      48.344   9.073  17.039  0.00  0.00    +0.000 A 
ATOM      6  C   UNL     1      48.796   8.514  18.232  0.00  0.00    +0.000 A 
ENDROOT
BRANCH   1   8
ATOM      7  C   UNL     1      50.774   7.697  20.487  0.00  0.00    +0.000 C 
ATOM      8  C   UNL     1      50.092   6.720  19.514  0.00  0.00    +0.000 C 
BRANCH   8   9
ATOM      9  N   UNL     1      48.970   6.091  20.229  0.00  0.00    +0.000 NA
ATOM     10  H   UNL     1      48.096   6.381  19.788  0.00  0.00    +0.000 HD
BRANCH   9  11
ATOM     11  C   UNL     1      49.015   4.622  20.200  0.00  0.00    +0.000 C 
BRANCH  11  12
ATOM     12  C   UNL     1      48.623   4.064  18.844  0.00  0.00    +0.000 A 
ATOM     13  C   UNL     1      47.463   4.510  18.214  0.00  0.00    +0.000 A 
ATOM     14  C   UNL     1      47.134   3.994  16.964  0.00  0.00    +0.000 A 
ATOM     15  C   UNL     1      47.966   3.048  16.380  0.00  0.00    +0.000 A 
ATOM     16  C   UNL     1      49.096   2.653  17.072  0.00  0.00    +0.000 A 
ATOM     17  N   UNL     1      49.447   3.138  18.283  0.00  0.00    +0.000 NA
ENDBRANCH  11  12
ENDBRANCH   9  11
ENDBRANCH   8   9
ENDBRANCH   1   8
BRANCH   4  18
ATOM     18  C   UNL     1      48.138   9.094  14.542  0.00  0.00    +0.000 C 
BRANCH  18  19
ATOM     19  N   UNL     1      47.091   8.238  14.044  0.00  0.00    +0.000 N 
ATOM     20  C   UNL     1      46.788   8.159  12.712  0.00  0.00    +0.000 C 
ATOM     21  O   UNL     1      47.365   8.849  11.876  0.00  0.00    +0.000 OA
ATOM     22  H   UNL     1      46.539   7.731  14.730  0.00  0.00    +0.000 HD
BRANCH  20  23
ATOM     23  C   UNL     1      45.775   7.169  12.320  0.00  0.00    +0.000 A 
ATOM     24  C   UNL     1      44.638   7.592  11.644  0.00  0.00    +0.000 A 
ATOM     25  S   UNL     1      43.577   6.328  11.223  0.00  0.00    +0.000 S 
ATOM     26  C   UNL     1      44.576   5.170  11.969  0.00  0.00    +0.000 A 
ATOM     27  N   UNL     1      44.227   3.856  11.988  0.00  0.00    +0.000 NA
ATOM     28  C   UNL     1      45.065   3.090  12.602  0.00  0.00    +0.000 A 
ATOM     29  N   UNL     1      46.224   3.518  13.197  0.00  0.00    +0.000 N 
ATOM     30  C   UNL     1      46.632   4.830  13.177  0.00  0.00    +0.000 A 
ATOM     31  O   UNL     1      47.702   5.171  13.667  0.00  0.00    +0.000 OA
ATOM     32  C   UNL     1      45.716   5.738  12.510  0.00  0.00    +0.000 A 
ATOM     33  H   UNL     1      46.849   2.868  13.652  0.00  0.00    +0.000 HD
ENDBRANCH  20  23
ENDBRANCH  18  19
ENDBRANCH   4  18
TORSDOF 7
ENDMDL
