MODEL 1
REMARK VINA RESULT:    -8.666      0.000      0.000
REMARK INTER + INTRA:         -14.556
REMARK INTER:                 -13.225
REMARK INTRA:                  -1.331
REMARK UNBOUND:                -1.331
REMARK  Name = 
REMARK  13 active torsions:
REMARK  status: ('A' for Active; 'I' for Inactive)
REMARK    1  A    between atoms: C_1  and  C_2
REMARK    2  A    between atoms: C_4  and  C_5
REMARK    3  A    between atoms: C_5  and  C_6
REMARK    4  A    between atoms: C_5  and  C_7
REMARK    5  A    between atoms: C_7  and  O_8
REMARK    6  A    between atoms: O_8  and  C_9
REMARK    7  A    between atoms: C_13  and  C_14
REMARK    8  A    between atoms: C_14  and  C_15
REMARK    9  A    between atoms: C_14  and  C_16
REMARK   10  A    between atoms: C_16  and  O_17
REMARK   11  A    between atoms: O_17  and  C_18
REMARK   12  A    between atoms: C_22  and  C_23
REMARK   13  A    between atoms: N_29  and  C_30
REMARK                            x       y       z     vdW  Elec       q    Type
REMARK                         _______ _______ _______ _____ _____    ______ ____
ROOT
ATOM      1  C   UNL     1      47.190   5.440  14.010  0.00  0.00    +0.000 A 
ATOM      2  C   UNL     1      47.361   6.587  13.258  0.00  0.00    +0.000 A 
ATOM      3  C   UNL     1      46.391   7.012  12.382  0.00  0.00    +0.000 A 
ATOM      4  C   UNL     1      45.206   6.269  12.220  0.00  0.00    +0.000 A 
ATOM      5  C   UNL     1      45.018   5.078  12.939  0.00  0.00    +0.000 A 
ATOM      6  C   UNL     1      46.008   4.702  13.859  0.00  0.00    +0.000 A 
ENDROOT
BRANCH   5   7
ATOM      7  C   UNL     1      43.780   4.207  12.705  0.00  0.00    +0.000 C 
ATOM      8  C   UNL     1      42.661   4.989  11.998  0.00  0.00    +0.000 C 
BRANCH   7   9
ATOM      9  C   UNL     1      44.096   2.924  11.908  0.00  0.00    +0.000 C 
BRANCH   9  10
ATOM     10  O   UNL     1      43.544   3.004  10.591  0.00  0.00    +0.000 OA
BRANCH  10  11
ATOM     11  C   UNL     1      44.452   3.220   9.591  0.00  0.00    +0.000 A 
ATOM     12  C   UNL     1      44.804   4.477   9.094  0.00  0.00    +0.000 A 
ATOM     13  C   UNL     1      45.769   4.589   8.101  0.00  0.00    +0.000 A 
ATOM     14  C   UNL     1      46.416   3.445   7.628  0.00  0.00    +0.000 A 
ATOM     15  C   UNL     1      46.090   2.183   8.139  0.00  0.00    +0.000 A 
ATOM     16  C   UNL     1      45.079   2.069   9.096  0.00  0.00    +0.000 A 
BRANCH  15  17
ATOM     17  C   UNL     1      46.880   1.011   7.676  0.00  0.00    +0.000 C 
ATOM     18  N   UNL     1      48.003   1.236   6.935  0.00  0.00    +0.000 N 
ATOM     19  O   UNL     1      46.502  -0.138   7.898  0.00  0.00    +0.000 OA
ATOM     20  H   UNL     1      48.311   2.147   6.622  0.00  0.00    +0.000 HD
ATOM     21  H   UNL     1      48.454   0.421   6.535  0.00  0.00    +0.000 HD
ENDBRANCH  15  17
ENDBRANCH  10  11
ENDBRANCH   9  10
ENDBRANCH   7   9
ENDBRANCH   5   7
BRANCH   1  22
ATOM     22  O   UNL     1      48.102   4.919  14.888  0.00  0.00    +0.000 OA
BRANCH  22  23
ATOM     23  C   UNL     1      47.599   4.677  16.212  0.00  0.00    +0.000 C 
BRANCH  23  24
ATOM     24  C   UNL     1      47.927   3.242  16.639  0.00  0.00    +0.000 C 
ATOM     25  C   UNL     1      47.029   2.795  17.796  0.00  0.00    +0.000 C 
BRANCH  24  29
ATOM     26  C   UNL     1      52.563   1.327  17.674  0.00  0.00    +0.000 C 
ATOM     27  C   UNL     1      51.377   2.176  17.411  0.00  0.00    +0.000 A 
ATOM     28  C   UNL     1      50.099   1.838  17.020  0.00  0.00    +0.000 A 
ATOM     29  C   UNL     1      49.384   3.060  16.970  0.00  0.00    +0.000 A 
ATOM     30  N   UNL     1      50.169   4.095  17.287  0.00  0.00    +0.000 NA
ATOM     31  N   UNL     1      51.369   3.540  17.546  0.00  0.00    +0.000 N 
ATOM     32  C   UNL     1      52.472   4.384  17.942  0.00  0.00    +0.000 C 
ENDBRANCH  24  29
ENDBRANCH  23  24
ENDBRANCH  22  23
ENDBRANCH   1  22
TORSDOF 9
ENDMDL
MODEL 2
REMARK VINA RESULT:    -7.958      1.414      1.885
REMARK INTER + INTRA:         -13.476
REMARK INTER:                 -12.231
REMARK INTRA:                  -1.245
REMARK UNBOUND:                -1.331
REMARK  Name = 
REMARK  13 active torsions:
REMARK  status: ('A' for Active; 'I' for Inactive)
REMARK    1  A    between atoms: C_1  and  C_2
REMARK    2  A    between atoms: C_4  and  C_5
REMARK    3  A    between atoms: C_5  and  C_6
REMARK    4  A    between atoms: C_5  and  C_7
REMARK    5  A    between atoms: C_7  and  O_8
REMARK    6  A    between atoms: O_8  and  C_9
REMARK    7  A    between atoms: C_13  and  C_14
REMARK    8  A    between atoms: C_14  and  C_15
REMARK    9  A    between atoms: C_14  and  C_16
REMARK   10  A    between atoms: C_16  and  O_17
REMARK   11  A    between atoms: O_17  and  C_18
REMARK   12  A    between atoms: C_22  and  C_23
REMARK   13  A    between atoms: N_29  and  C_30
REMARK                            x       y       z     vdW  Elec       q    Type
REMARK                         _______ _______ _______ _____ _____    ______ ____
ROOT
ATOM      1  C   UNL     1      47.318   5.497  13.973  0.00  0.00    +0.000 A 
ATOM      2  C   UNL     1      47.702   6.342  12.947  0.00  0.00    +0.000 A 
ATOM      3  C   UNL     1      46.891   6.546  11.856  0.00  0.00    +0.000 A 
ATOM      4  C   UNL     1      45.656   5.880  11.755  0.00  0.00    +0.000 A 
ATOM      5  C   UNL     1      45.253   4.985  12.760  0.00  0.00    +0.000 A 
ATOM      6  C   UNL     1      46.085   4.839  13.881  0.00  0.00    +0.000 A 
ENDROOT
BRANCH   5   7
ATOM      7  C   UNL     1      43.959   4.178  12.621  0.00  0.00    +0.000 C 
ATOM      8  C   UNL     1      42.836   5.011  11.982  0.00  0.00    +0.000 C 
BRANCH   7   9
ATOM      9  C   UNL     1      44.154   2.873  11.820  0.00  0.00    +0.000 C 
BRANCH   9  10
ATOM     10  O   UNL     1      43.598   3.004  10.508  0.00  0.00    +0.000 OA
BRANCH  10  11
ATOM     11  C   UNL     1      44.512   3.187   9.505  0.00  0.00    +0.000 A 
ATOM     12  C   UNL     1      44.886   4.430   8.987  0.00  0.00    +0.000 A 
ATOM     13  C   UNL     1      45.853   4.507   7.993  0.00  0.00    +0.000 A 
ATOM     14  C   UNL     1      46.482   3.345   7.541  0.00  0.00    +0.000 A 
ATOM     15  C   UNL     1      46.133   2.098   8.074  0.00  0.00    +0.000 A 
ATOM     16  C   UNL     1      45.119   2.018   9.031  0.00  0.00    +0.000 A 
BRANCH  15  17
ATOM     17  C   UNL     1      46.904   0.904   7.632  0.00  0.00    +0.000 C 
ATOM     18  N   UNL     1      47.916   1.080   6.735  0.00  0.00    +0.000 N 
ATOM     19  O   UNL     1      46.600  -0.225   8.014  0.00  0.00    +0.000 OA
ATOM     20  H   UNL     1      48.147   1.961   6.296  0.00  0.00    +0.000 HD
ATOM     21  H   UNL     1      48.344   0.239   6.364  0.00  0.00    +0.000 HD
ENDBRANCH  15  17
ENDBRANCH  10  11
ENDBRANCH   9  10
ENDBRANCH   7   9
ENDBRANCH   5   7
BRANCH   1  22
ATOM     22  O   UNL     1      48.060   5.206  15.085  0.00  0.00    +0.000 OA
BRANCH  22  23
ATOM     23  C   UNL     1      47.433   4.308  16.015  0.00  0.00    +0.000 C 
BRANCH  23  24
ATOM     24  C   UNL     1      48.484   3.731  16.970  0.00  0.00    +0.000 C 
ATOM     25  C   UNL     1      47.844   2.768  17.974  0.00  0.00    +0.000 C 
BRANCH  24  29
ATOM     26  C   UNL     1      52.219   6.679  18.865  0.00  0.00    +0.000 C 
ATOM     27  C   UNL     1      50.938   6.052  18.464  0.00  0.00    +0.000 A 
ATOM     28  C   UNL     1      50.684   4.970  17.646  0.00  0.00    +0.000 A 
ATOM     29  C   UNL     1      49.278   4.805  17.666  0.00  0.00    +0.000 A 
ATOM     30  N   UNL     1      48.690   5.735  18.426  0.00  0.00    +0.000 NA
ATOM     31  N   UNL     1      49.710   6.480  18.895  0.00  0.00    +0.000 N 
ATOM     32  C   UNL     1      49.432   7.588  19.779  0.00  0.00    +0.000 C 
ENDBRANCH  24  29
ENDBRANCH  23  24
ENDBRANCH  22  23
ENDBRANCH   1  22
TORSDOF 9
ENDMDL
MODEL 3
REMARK VINA RESULT:    -7.688      1.648      2.592
REMARK INTER + INTRA:         -13.065
REMARK INTER:                 -11.710
REMARK INTRA:                  -1.355
REMARK UNBOUND:                -1.331
REMARK  Name = 
REMARK  13 active torsions:
REMARK  status: ('A' for Active; 'I' for Inactive)
REMARK    1  A    between atoms: C_1  and  C_2
REMARK    2  A    between atoms: C_4  and  C_5
REMARK    3  A    between atoms: C_5  and  C_6
REMARK    4  A    between atoms: C_5  and  C_7
REMARK    5  A    between atoms: C_7  and  O_8
REMARK    6  A    between atoms: O_8  and  C_9
REMARK    7  A    between atoms: C_13  and  C_14
REMARK    8  A    between atoms: C_14  and  C_15
REMARK    9  A    between atoms: C_14  and  C_16
REMARK   10  A    between atoms: C_16  and  O_17
REMARK   11  A    between atoms: O_17  and  C_18
REMARK   12  A    between atoms: C_22  and  C_23
REMARK   13  A    between atoms: N_29  and  C_30
REMARK                            x       y       z     vdW  Elec       q    Type
REMARK                         _______ _______ _______ _____ _____    ______ ____
ROOT
ATOM      1  C   UNL     1      47.739   6.821  12.836  0.00  0.00    +0.000 A 
ATOM      2  C   UNL     1      47.240   8.026  12.375  0.00  0.00    +0.000 A 
ATOM      3  C   UNL     1      45.900   8.187  12.118  0.00  0.00    +0.000 A 
ATOM      4  C   UNL     1      45.008   7.114  12.302  0.00  0.00    +0.000 A 
ATOM      5  C   UNL     1      45.487   5.865  12.730  0.00  0.00    +0.000 A 
ATOM      6  C   UNL     1      46.853   5.753  13.029  0.00  0.00    +0.000 A 
ENDROOT
BRANCH   5   7
ATOM      7  C   UNL     1      44.549   4.660  12.843  0.00  0.00    +0.000 C 
ATOM      8  C   UNL     1      43.142   4.985  12.314  0.00  0.00    +0.000 C 
BRANCH   7   9
ATOM      9  C   UNL     1      45.095   3.409  12.122  0.00  0.00    +0.000 C 
BRANCH   9  10
ATOM     10  O   UNL     1      44.341   3.145  10.936  0.00  0.00    +0.000 OA
BRANCH  10  11
ATOM     11  C   UNL     1      45.026   3.307   9.762  0.00  0.00    +0.000 A 
ATOM     12  C   UNL     1      45.313   4.540   9.173  0.00  0.00    +0.000 A 
ATOM     13  C   UNL     1      46.050   4.595   7.997  0.00  0.00    +0.000 A 
ATOM     14  C   UNL     1      46.539   3.417   7.426  0.00  0.00    +0.000 A 
ATOM     15  C   UNL     1      46.280   2.179   8.025  0.00  0.00    +0.000 A 
ATOM     16  C   UNL     1      45.489   2.123   9.175  0.00  0.00    +0.000 A 
BRANCH  15  17
ATOM     17  C   UNL     1      46.909   0.967   7.435  0.00  0.00    +0.000 C 
ATOM     18  N   UNL     1      47.790   1.128   6.406  0.00  0.00    +0.000 N 
ATOM     19  O   UNL     1      46.599  -0.160   7.818  0.00  0.00    +0.000 OA
ATOM     20  H   UNL     1      48.005   2.013   5.968  0.00  0.00    +0.000 HD
ATOM     21  H   UNL     1      48.111   0.283   5.947  0.00  0.00    +0.000 HD
ENDBRANCH  15  17
ENDBRANCH  10  11
ENDBRANCH   9  10
ENDBRANCH   7   9
ENDBRANCH   5   7
BRANCH   1  22
ATOM     22  O   UNL     1      49.055   6.551  13.096  0.00  0.00    +0.000 OA
BRANCH  22  23
ATOM     23  C   UNL     1      49.614   7.271  14.207  0.00  0.00    +0.000 C 
BRANCH  23  24
ATOM     24  C   UNL     1      48.576   7.381  15.329  0.00  0.00    +0.000 C 
ATOM     25  C   UNL     1      48.436   8.829  15.807  0.00  0.00    +0.000 C 
BRANCH  24  29
ATOM     26  C   UNL     1      49.002   5.188  19.938  0.00  0.00    +0.000 C 
ATOM     27  C   UNL     1      49.025   5.540  18.499  0.00  0.00    +0.000 A 
ATOM     28  C   UNL     1      48.494   6.622  17.830  0.00  0.00    +0.000 A 
ATOM     29  C   UNL     1      48.867   6.449  16.474  0.00  0.00    +0.000 A 
ATOM     30  N   UNL     1      49.565   5.320  16.304  0.00  0.00    +0.000 NA
ATOM     31  N   UNL     1      49.646   4.785  17.538  0.00  0.00    +0.000 N 
ATOM     32  C   UNL     1      50.358   3.544  17.728  0.00  0.00    +0.000 C 
ENDBRANCH  24  29
ENDBRANCH  23  24
ENDBRANCH  22  23
ENDBRANCH   1  22
TORSDOF 9
ENDMDL
MODEL 4
REMARK VINA RESULT:    -7.579      4.108      7.030
REMARK INTER + INTRA:         -12.898
REMARK INTER:                 -11.476
REMARK INTRA:                  -1.422
REMARK UNBOUND:                -1.331
REMARK  Name = 
REMARK  13 active torsions:
REMARK  status: ('A' for Active; 'I' for Inactive)
REMARK    1  A    between atoms: C_1  and  C_2
REMARK    2  A    between atoms: C_4  and  C_5
REMARK    3  A    between atoms: C_5  and  C_6
REMARK    4  A    between atoms: C_5  and  C_7
REMARK    5  A    between atoms: C_7  and  O_8
REMARK    6  A    between atoms: O_8  and  C_9
REMARK    7  A    between atoms: C_13  and  C_14
REMARK    8  A    between atoms: C_14  and  C_15
REMARK    9  A    between atoms: C_14  and  C_16
REMARK   10  A    between atoms: C_16  and  O_17
REMARK   11  A    between atoms: O_17  and  C_18
REMARK   12  A    between atoms: C_22  and  C_23
REMARK   13  A    between atoms: N_29  and  C_30
REMARK                            x       y       z     vdW  Elec       q    Type
REMARK                         _______ _______ _______ _____ _____    ______ ____
ROOT
ATOM      1  C   UNL     1      46.926   6.952  12.650  0.00  0.00    +0.000 A 
ATOM      2  C   UNL     1      47.650   6.432  13.708  0.00  0.00    +0.000 A 
ATOM      3  C   UNL     1      47.286   5.247  14.301  0.00  0.00    +0.000 A 
ATOM      4  C   UNL     1      46.150   4.548  13.853  0.00  0.00    +0.000 A 
ATOM      5  C   UNL     1      45.370   5.068  12.807  0.00  0.00    +0.000 A 
ATOM      6  C   UNL     1      45.800   6.254  12.194  0.00  0.00    +0.000 A 
ENDROOT
BRANCH   5   7
ATOM      7  C   UNL     1      44.078   4.372  12.370  0.00  0.00    +0.000 C 
ATOM      8  C   UNL     1      43.169   5.315  11.564  0.00  0.00    +0.000 C 
BRANCH   7   9
ATOM      9  C   UNL     1      44.339   3.086  11.557  0.00  0.00    +0.000 C 
BRANCH   9  10
ATOM     10  O   UNL     1      43.851   3.232  10.220  0.00  0.00    +0.000 OA
BRANCH  10  11
ATOM     11  C   UNL     1      44.816   3.328   9.255  0.00  0.00    +0.000 A 
ATOM     12  C   UNL     1      45.385   4.525   8.815  0.00  0.00    +0.000 A 
ATOM     13  C   UNL     1      46.389   4.508   7.855  0.00  0.00    +0.000 A 
ATOM     14  C   UNL     1      46.857   3.289   7.359  0.00  0.00    +0.000 A 
ATOM     15  C   UNL     1      46.312   2.082   7.814  0.00  0.00    +0.000 A 
ATOM     16  C   UNL     1      45.263   2.106   8.737  0.00  0.00    +0.000 A 
BRANCH  15  17
ATOM     17  C   UNL     1      46.916   0.811   7.331  0.00  0.00    +0.000 C 
ATOM     18  N   UNL     1      47.652   0.837   6.183  0.00  0.00    +0.000 N 
ATOM     19  O   UNL     1      46.708  -0.252   7.913  0.00  0.00    +0.000 OA
ATOM     20  H   UNL     1      47.771   1.651   5.595  0.00  0.00    +0.000 HD
ATOM     21  H   UNL     1      47.950  -0.059   5.816  0.00  0.00    +0.000 HD
ENDBRANCH  15  17
ENDBRANCH  10  11
ENDBRANCH   9  10
ENDBRANCH   7   9
ENDBRANCH   5   7
BRANCH   1  22
ATOM     22  O   UNL     1      47.189   8.132  12.009  0.00  0.00    +0.000 OA
BRANCH  22  23
ATOM     23  C   UNL     1      46.618   9.297  12.625  0.00  0.00    +0.000 C 
BRANCH  23  24
ATOM     24  C   UNL     1      46.340  10.365  11.561  0.00  0.00    +0.000 C 
ATOM     25  C   UNL     1      47.158  11.632  11.828  0.00  0.00    +0.000 C 
BRANCH  24  29
ATOM     26  C   UNL     1      41.328  10.219  10.515  0.00  0.00    +0.000 C 
ATOM     27  C   UNL     1      42.703  10.559  10.952  0.00  0.00    +0.000 A 
ATOM     28  C   UNL     1      43.866   9.819  10.919  0.00  0.00    +0.000 A 
ATOM     29  C   UNL     1      44.873  10.675  11.428  0.00  0.00    +0.000 A 
ATOM     30  N   UNL     1      44.368  11.863  11.778  0.00  0.00    +0.000 NA
ATOM     31  N   UNL     1      43.056  11.771  11.485  0.00  0.00    +0.000 N 
ATOM     32  C   UNL     1      42.194  12.903  11.728  0.00  0.00    +0.000 C 
ENDBRANCH  24  29
ENDBRANCH  23  24
ENDBRANCH  22  23
ENDBRANCH   1  22
TORSDOF 9
ENDMDL
MODEL 5
REMARK VINA RESULT:    -7.532      2.392      8.497
REMARK INTER + INTRA:         -12.825
REMARK INTER:                 -11.301
REMARK INTRA:                  -1.524
REMARK UNBOUND:                -1.331
REMARK  Name = 
REMARK  13 active torsions:
REMARK  status: ('A' for Active; 'I' for Inactive)
REMARK    1  A    between atoms: C_1  and  C_2
REMARK    2  A    between atoms: C_4  and  C_5
REMARK    3  A    between atoms: C_5  and  C_6
REMARK    4  A    between atoms: C_5  and  C_7
REMARK    5  A    between atoms: C_7  and  O_8
REMARK    6  A    between atoms: O_8  and  C_9
REMARK    7  A    between atoms: C_13  and  C_14
REMARK    8  A    between atoms: C_14  and  C_15
REMARK    9  A    between atoms: C_14  and  C_16
REMARK   10  A    between atoms: C_16  and  O_17
REMARK   11  A    between atoms: O_17  and  C_18
REMARK   12  A    between atoms: C_22  and  C_23
REMARK   13  A    between atoms: N_29  and  C_30
REMARK                            x       y       z     vdW  Elec       q    Type
REMARK                         _______ _______ _______ _____ _____    ______ ____
ROOT
ATOM      1  C   UNL     1      45.495   6.698  12.204  0.00  0.00    +0.000 A 
ATOM      2  C   UNL     1      45.041   8.001  12.101  0.00  0.00    +0.000 A 
ATOM      3  C   UNL     1      45.911   9.062  12.174  0.00  0.00    +0.000 A 
ATOM      4  C   UNL     1      47.286   8.840  12.376  0.00  0.00    +0.000 A 
ATOM      5  C   UNL     1      47.775   7.532  12.524  0.00  0.00    +0.000 A 
ATOM      6  C   UNL     1      46.864   6.472  12.395  0.00  0.00    +0.000 A 
ENDROOT
BRANCH   5   7
ATOM      7  C   UNL     1      49.251   7.276  12.840  0.00  0.00    +0.000 C 
ATOM      8  C   UNL     1      50.151   7.577  11.631  0.00  0.00    +0.000 C 
BRANCH   7   9
ATOM      9  C   UNL     1      49.745   8.076  14.064  0.00  0.00    +0.000 C 
BRANCH   9  10
ATOM     10  O   UNL     1      48.947   7.778  15.213  0.00  0.00    +0.000 OA
BRANCH  10  11
ATOM     11  C   UNL     1      49.350   6.687  15.934  0.00  0.00    +0.000 A 
ATOM     12  C   UNL     1      50.646   6.484  16.412  0.00  0.00    +0.000 A 
ATOM     13  C   UNL     1      50.942   5.357  17.169  0.00  0.00    +0.000 A 
ATOM     14  C   UNL     1      49.931   4.447  17.487  0.00  0.00    +0.000 A 
ATOM     15  C   UNL     1      48.622   4.656  17.035  0.00  0.00    +0.000 A 
ATOM     16  C   UNL     1      48.341   5.760  16.226  0.00  0.00    +0.000 A 
BRANCH  15  17
ATOM     17  C   UNL     1      47.563   3.714  17.487  0.00  0.00    +0.000 C 
ATOM     18  N   UNL     1      47.725   3.080  18.684  0.00  0.00    +0.000 N 
ATOM     19  O   UNL     1      46.594   3.459  16.774  0.00  0.00    +0.000 OA
ATOM     20  H   UNL     1      48.547   3.157  19.268  0.00  0.00    +0.000 HD
ATOM     21  H   UNL     1      47.050   2.358  18.910  0.00  0.00    +0.000 HD
ENDBRANCH  15  17
ENDBRANCH  10  11
ENDBRANCH   9  10
ENDBRANCH   7   9
ENDBRANCH   5   7
BRANCH   1  22
ATOM     22  O   UNL     1      44.711   5.576  12.170  0.00  0.00    +0.000 OA
BRANCH  22  23
ATOM     23  C   UNL     1      43.864   5.463  11.015  0.00  0.00    +0.000 C 
BRANCH  23  24
ATOM     24  C   UNL     1      43.645   3.985  10.675  0.00  0.00    +0.000 C 
ATOM     25  C   UNL     1      43.734   3.113  11.930  0.00  0.00    +0.000 C 
BRANCH  24  29
ATOM     26  C   UNL     1      46.690   3.589   6.576  0.00  0.00    +0.000 C 
ATOM     27  C   UNL     1      45.893   3.382   7.808  0.00  0.00    +0.000 A 
ATOM     28  C   UNL     1      45.160   4.272   8.564  0.00  0.00    +0.000 A 
ATOM     29  C   UNL     1      44.579   3.499   9.599  0.00  0.00    +0.000 A 
ATOM     30  N   UNL     1      44.943   2.215   9.509  0.00  0.00    +0.000 NA
ATOM     31  N   UNL     1      45.739   2.167   8.423  0.00  0.00    +0.000 N 
ATOM     32  C   UNL     1      46.309   0.904   8.016  0.00  0.00    +0.000 C 
ENDBRANCH  24  29
ENDBRANCH  23  24
ENDBRANCH  22  23
ENDBRANCH   1  22
TORSDOF 9
ENDMDL
MODEL 6
REMARK VINA RESULT:    -7.407      3.970      6.330
REMARK INTER + INTRA:         -12.634
REMARK INTER:                 -11.299
REMARK INTRA:                  -1.335
REMARK UNBOUND:                -1.331
REMARK  Name = 
REMARK  13 active torsions:
REMARK  status: ('A' for Active; 'I' for Inactive)
REMARK    1  A    between atoms: C_1  and  C_2
REMARK    2  A    between atoms: C_4  and  C_5
REMARK    3  A    between atoms: C_5  and  C_6
REMARK    4  A    between atoms: C_5  and  C_7
REMARK    5  A    between atoms: C_7  and  O_8
REMARK    6  A    between atoms: O_8  and  C_9
REMARK    7  A    between atoms: C_13  and  C_14
REMARK    8  A    between atoms: C_14  and  C_15
REMARK    9  A    between atoms: C_14  and  C_16
REMARK   10  A    between atoms: C_16  and  O_17
REMARK   11  A    between atoms: O_17  and  C_18
REMARK   12  A    between atoms: C_22  and  C_23
REMARK   13  A    between atoms: N_29  and  C_30
REMARK                            x       y       z     vdW  Elec       q    Type
REMARK                         _______ _______ _______ _____ _____    ______ ____
ROOT
ATOM      1  C   UNL     1      45.954   7.353  12.997  0.00  0.00    +0.000 A 
ATOM      2  C   UNL     1      47.161   6.751  13.303  0.00  0.00    +0.000 A 
ATOM      3  C   UNL     1      47.296   5.384  13.282  0.00  0.00    +0.000 A 
ATOM      4  C   UNL     1      46.195   4.566  12.965  0.00  0.00    +0.000 A 
ATOM      5  C   UNL     1      44.945   5.144  12.688  0.00  0.00    +0.000 A 
ATOM      6  C   UNL     1      44.858   6.544  12.672  0.00  0.00    +0.000 A 
ENDROOT
BRANCH   5   7
ATOM      7  C   UNL     1      43.714   4.268  12.437  0.00  0.00    +0.000 C 
ATOM      8  C   UNL     1      42.613   5.039  11.691  0.00  0.00    +0.000 C 
BRANCH   7   9
ATOM      9  C   UNL     1      44.051   2.974  11.667  0.00  0.00    +0.000 C 
BRANCH   9  10
ATOM     10  O   UNL     1      43.603   3.067  10.311  0.00  0.00    +0.000 OA
BRANCH  10  11
ATOM     11  C   UNL     1      44.592   3.254   9.384  0.00  0.00    +0.000 A 
ATOM     12  C   UNL     1      45.094   4.499   8.996  0.00  0.00    +0.000 A 
ATOM     13  C   UNL     1      46.129   4.575   8.072  0.00  0.00    +0.000 A 
ATOM     14  C   UNL     1      46.694   3.405   7.561  0.00  0.00    +0.000 A 
ATOM     15  C   UNL     1      46.216   2.152   7.964  0.00  0.00    +0.000 A 
ATOM     16  C   UNL     1      45.137   2.080   8.849  0.00  0.00    +0.000 A 
BRANCH  15  17
ATOM     17  C   UNL     1      46.919   0.938   7.470  0.00  0.00    +0.000 C 
ATOM     18  N   UNL     1      47.789   1.071   6.427  0.00  0.00    +0.000 N 
ATOM     19  O   UNL     1      46.680  -0.172   7.943  0.00  0.00    +0.000 OA
ATOM     20  H   UNL     1      47.949   1.930   5.919  0.00  0.00    +0.000 HD
ATOM     21  H   UNL     1      48.162   0.214   6.035  0.00  0.00    +0.000 HD
ENDBRANCH  15  17
ENDBRANCH  10  11
ENDBRANCH   9  10
ENDBRANCH   7   9
ENDBRANCH   5   7
BRANCH   1  22
ATOM     22  O   UNL     1      45.709   8.700  13.014  0.00  0.00    +0.000 OA
BRANCH  22  23
ATOM     23  C   UNL     1      45.097   9.220  11.822  0.00  0.00    +0.000 C 
BRANCH  23  24
ATOM     24  C   UNL     1      45.249  10.745  11.783  0.00  0.00    +0.000 C 
ATOM     25  C   UNL     1      44.192  11.378  10.874  0.00  0.00    +0.000 C 
BRANCH  24  29
ATOM     26  C   UNL     1      49.391  12.420   9.280  0.00  0.00    +0.000 C 
ATOM     27  C   UNL     1      48.405  11.910  10.262  0.00  0.00    +0.000 A 
ATOM     28  C   UNL     1      47.042  11.731  10.157  0.00  0.00    +0.000 A 
ATOM     29  C   UNL     1      46.638  11.174  11.395  0.00  0.00    +0.000 A 
ATOM     30  N   UNL     1      47.677  11.035  12.227  0.00  0.00    +0.000 NA
ATOM     31  N   UNL     1      48.733  11.489  11.524  0.00  0.00    +0.000 N 
ATOM     32  C   UNL     1      50.046  11.472  12.125  0.00  0.00    +0.000 C 
ENDBRANCH  24  29
ENDBRANCH  23  24
ENDBRANCH  22  23
ENDBRANCH   1  22
TORSDOF 9
ENDMDL
MODEL 7
REMARK VINA RESULT:    -7.080      1.961      2.838
REMARK INTER + INTRA:         -12.137
REMARK INTER:                 -10.737
REMARK INTRA:                  -1.399
REMARK UNBOUND:                -1.331
REMARK  Name = 
REMARK  13 active torsions:
REMARK  status: ('A' for Active; 'I' for Inactive)
REMARK    1  A    between atoms: C_1  and  C_2
REMARK    2  A    between atoms: C_4  and  C_5
REMARK    3  A    between atoms: C_5  and  C_6
REMARK    4  A    between atoms: C_5  and  C_7
REMARK    5  A    between atoms: C_7  and  O_8
REMARK    6  A    between atoms: O_8  and  C_9
REMARK    7  A    between atoms: C_13  and  C_14
REMARK    8  A    between atoms: C_14  and  C_15
REMARK    9  A    between atoms: C_14  and  C_16
REMARK   10  A    between atoms: C_16  and  O_17
REMARK   11  A    between atoms: O_17  and  C_18
REMARK   12  A    between atoms: C_22  and  C_23
REMARK   13  A    between atoms: N_29  and  C_30
REMARK                            x       y       z     vdW  Elec       q    Type
REMARK                         _______ _______ _______ _____ _____    ______ ____
ROOT
ATOM      1  C   UNL     1      46.628   5.024  14.127  0.00  0.00    +0.000 A 
ATOM      2  C   UNL     1      47.752   5.636  13.604  0.00  0.00    +0.000 A 
ATOM      3  C   UNL     1      47.661   6.489  12.531  0.00  0.00    +0.000 A 
ATOM      4  C   UNL     1      46.414   6.741  11.928  0.00  0.00    +0.000 A 
ATOM      5  C   UNL     1      45.258   6.105  12.409  0.00  0.00    +0.000 A 
ATOM      6  C   UNL     1      45.383   5.279  13.537  0.00  0.00    +0.000 A 
ENDROOT
BRANCH   5   7
ATOM      7  C   UNL     1      43.910   6.291  11.707  0.00  0.00    +0.000 C 
ATOM      8  C   UNL     1      43.824   7.650  10.993  0.00  0.00    +0.000 C 
BRANCH   7   9
ATOM      9  C   UNL     1      43.599   5.160  10.704  0.00  0.00    +0.000 C 
BRANCH   9  10
ATOM     10  O   UNL     1      44.540   5.174   9.627  0.00  0.00    +0.000 OA
BRANCH  10  11
ATOM     11  C   UNL     1      44.963   3.942   9.207  0.00  0.00    +0.000 A 
ATOM     12  C   UNL     1      44.411   2.728   9.622  0.00  0.00    +0.000 A 
ATOM     13  C   UNL     1      44.891   1.531   9.104  0.00  0.00    +0.000 A 
ATOM     14  C   UNL     1      45.898   1.546   8.137  0.00  0.00    +0.000 A 
ATOM     15  C   UNL     1      46.438   2.759   7.694  0.00  0.00    +0.000 A 
ATOM     16  C   UNL     1      45.994   3.957   8.259  0.00  0.00    +0.000 A 
BRANCH  15  17
ATOM     17  C   UNL     1      47.434   2.724   6.589  0.00  0.00    +0.000 C 
ATOM     18  N   UNL     1      47.136   3.370   5.425  0.00  0.00    +0.000 N 
ATOM     19  O   UNL     1      48.475   2.077   6.693  0.00  0.00    +0.000 OA
ATOM     20  H   UNL     1      46.255   3.826   5.231  0.00  0.00    +0.000 HD
ATOM     21  H   UNL     1      47.777   3.231   4.652  0.00  0.00    +0.000 HD
ENDBRANCH  15  17
ENDBRANCH  10  11
ENDBRANCH   9  10
ENDBRANCH   7   9
ENDBRANCH   5   7
BRANCH   1  22
ATOM     22  O   UNL     1      46.614   4.142  15.174  0.00  0.00    +0.000 OA
BRANCH  22  23
ATOM     23  C   UNL     1      47.783   3.313  15.283  0.00  0.00    +0.000 C 
BRANCH  23  24
ATOM     24  C   UNL     1      48.328   3.370  16.714  0.00  0.00    +0.000 C 
ATOM     25  C   UNL     1      47.403   2.630  17.684  0.00  0.00    +0.000 C 
BRANCH  24  29
ATOM     26  C   UNL     1      48.070   7.988  18.913  0.00  0.00    +0.000 C 
ATOM     27  C   UNL     1      48.433   6.769  18.153  0.00  0.00    +0.000 A 
ATOM     28  C   UNL     1      47.829   5.531  18.098  0.00  0.00    +0.000 A 
ATOM     29  C   UNL     1      48.593   4.779  17.172  0.00  0.00    +0.000 A 
ATOM     30  N   UNL     1      49.620   5.493  16.698  0.00  0.00    +0.000 NA
ATOM     31  N   UNL     1      49.507   6.690  17.306  0.00  0.00    +0.000 N 
ATOM     32  C   UNL     1      50.464   7.730  17.009  0.00  0.00    +0.000 C 
ENDBRANCH  24  29
ENDBRANCH  23  24
ENDBRANCH  22  23
ENDBRANCH   1  22
TORSDOF 9
ENDMDL
MODEL 8
REMARK VINA RESULT:    -6.973      2.696      8.561
REMARK INTER + INTRA:         -11.973
REMARK INTER:                 -10.475
REMARK INTRA:                  -1.498
REMARK UNBOUND:                -1.331
REMARK  Name = 
REMARK  13 active torsions:
REMARK  status: ('A' for Active; 'I' for Inactive)
REMARK    1  A    between atoms: C_1  and  C_2
REMARK    2  A    between atoms: C_4  and  C_5
REMARK    3  A    between atoms: C_5  and  C_6
REMARK    4  A    between atoms: C_5  and  C_7
REMARK    5  A    between atoms: C_7  and  O_8
REMARK    6  A    between atoms: O_8  and  C_9
REMARK    7  A    between atoms: C_13  and  C_14
REMARK    8  A    between atoms: C_14  and  C_15
REMARK    9  A    between atoms: C_14  and  C_16
REMARK   10  A    between atoms: C_16  and  O_17
REMARK   11  A    between atoms: O_17  and  C_18
REMARK   12  A    between atoms: C_22  and  C_23
REMARK   13  A    between atoms: N_29  and  C_30
REMARK                            x       y       z     vdW  Elec       q    Type
REMARK                         _______ _______ _______ _____ _____    ______ ____
ROOT
ATOM      1  C   UNL     1      47.112   7.003  12.923  0.00  0.00    +0.000 A 
ATOM      2  C   UNL     1      47.522   7.344  11.647  0.00  0.00    +0.000 A 
ATOM      3  C   UNL     1      48.834   7.657  11.383  0.00  0.00    +0.000 A 
ATOM      4  C   UNL     1      49.786   7.653  12.419  0.00  0.00    +0.000 A 
ATOM      5  C   UNL     1      49.396   7.350  13.734  0.00  0.00    +0.000 A 
ATOM      6  C   UNL     1      48.059   6.989  13.956  0.00  0.00    +0.000 A 
ENDROOT
BRANCH   5   7
ATOM      7  C   UNL     1      50.397   7.435  14.890  0.00  0.00    +0.000 C 
ATOM      8  C   UNL     1      51.557   8.391  14.567  0.00  0.00    +0.000 C 
BRANCH   7   9
ATOM      9  C   UNL     1      49.737   7.856  16.220  0.00  0.00    +0.000 C 
BRANCH   9  10
ATOM     10  O   UNL     1      50.373   7.203  17.323  0.00  0.00    +0.000 OA
BRANCH  10  11
ATOM     11  C   UNL     1      50.247   5.840  17.343  0.00  0.00    +0.000 A 
ATOM     12  C   UNL     1      51.261   4.954  17.713  0.00  0.00    +0.000 A 
ATOM     13  C   UNL     1      51.017   3.586  17.736  0.00  0.00    +0.000 A 
ATOM     14  C   UNL     1      49.744   3.101  17.426  0.00  0.00    +0.000 A 
ATOM     15  C   UNL     1      48.714   3.984  17.081  0.00  0.00    +0.000 A 
ATOM     16  C   UNL     1      48.979   5.354  17.003  0.00  0.00    +0.000 A 
BRANCH  15  17
ATOM     17  C   UNL     1      47.353   3.425  16.861  0.00  0.00    +0.000 C 
ATOM     18  N   UNL     1      46.647   3.843  15.771  0.00  0.00    +0.000 N 
ATOM     19  O   UNL     1      46.845   2.653  17.673  0.00  0.00    +0.000 OA
ATOM     20  H   UNL     1      46.958   4.556  15.126  0.00  0.00    +0.000 HD
ATOM     21  H   UNL     1      45.682   3.538  15.711  0.00  0.00    +0.000 HD
ENDBRANCH  15  17
ENDBRANCH  10  11
ENDBRANCH   9  10
ENDBRANCH   7   9
ENDBRANCH   5   7
BRANCH   1  22
ATOM     22  O   UNL     1      45.829   6.702  13.294  0.00  0.00    +0.000 OA
BRANCH  22  23
ATOM     23  C   UNL     1      45.383   5.388  12.922  0.00  0.00    +0.000 C 
BRANCH  23  24
ATOM     24  C   UNL     1      44.382   5.487  11.767  0.00  0.00    +0.000 C 
ATOM     25  C   UNL     1      42.965   5.146  12.237  0.00  0.00    +0.000 C 
BRANCH  24  29
ATOM     26  C   UNL     1      46.207   3.806   7.286  0.00  0.00    +0.000 C 
ATOM     27  C   UNL     1      45.597   3.970   8.626  0.00  0.00    +0.000 A 
ATOM     28  C   UNL     1      45.521   5.073   9.451  0.00  0.00    +0.000 A 
ATOM     29  C   UNL     1      44.786   4.648  10.584  0.00  0.00    +0.000 A 
ATOM     30  N   UNL     1      44.444   3.358  10.485  0.00  0.00    +0.000 NA
ATOM     31  N   UNL     1      44.947   2.967   9.297  0.00  0.00    +0.000 N 
ATOM     32  C   UNL     1      44.747   1.608   8.855  0.00  0.00    +0.000 C 
ENDBRANCH  24  29
ENDBRANCH  23  24
ENDBRANCH  22  23
ENDBRANCH   1  22
TORSDOF 9
ENDMDL
MODEL 9
REMARK VINA RESULT:    -6.969      2.664      8.903
REMARK INTER + INTRA:         -11.967
REMARK INTER:                 -10.627
REMARK INTRA:                  -1.340
REMARK UNBOUND:                -1.331
REMARK  Name = 
REMARK  13 active torsions:
REMARK  status: ('A' for Active; 'I' for Inactive)
REMARK    1  A    between atoms: C_1  and  C_2
REMARK    2  A    between atoms: C_4  and  C_5
REMARK    3  A    between atoms: C_5  and  C_6
REMARK    4  A    between atoms: C_5  and  C_7
REMARK    5  A    between atoms: C_7  and  O_8
REMARK    6  A    between atoms: O_8  and  C_9
REMARK    7  A    between atoms: C_13  and  C_14
REMARK    8  A    between atoms: C_14  and  C_15
REMARK    9  A    between atoms: C_14  and  C_16
REMARK   10  A    between atoms: C_16  and  O_17
REMARK   11  A    between atoms: O_17  and  C_18
REMARK   12  A    between atoms: C_22  and  C_23
REMARK   13  A    between atoms: N_29  and  C_30
REMARK                            x       y       z     vdW  Elec       q    Type
REMARK                         _______ _______ _______ _____ _____    ______ ____
ROOT
ATOM      1  C   UNL     1      45.852   6.604  11.776  0.00  0.00    +0.000 A 
ATOM      2  C   UNL     1      44.985   7.605  12.175  0.00  0.00    +0.000 A 
ATOM      3  C   UNL     1      45.452   8.749  12.776  0.00  0.00    +0.000 A 
ATOM      4  C   UNL     1      46.829   8.914  13.015  0.00  0.00    +0.000 A 
ATOM      5  C   UNL     1      47.732   7.900  12.659  0.00  0.00    +0.000 A 
ATOM      6  C   UNL     1      47.224   6.768  12.004  0.00  0.00    +0.000 A 
ENDROOT
BRANCH   5   7
ATOM      7  C   UNL     1      49.221   8.019  12.998  0.00  0.00    +0.000 C 
ATOM      8  C   UNL     1      49.616   9.470  13.316  0.00  0.00    +0.000 C 
BRANCH   7   9
ATOM      9  C   UNL     1      49.641   7.102  14.167  0.00  0.00    +0.000 C 
BRANCH   9  10
ATOM     10  O   UNL     1      48.811   7.334  15.308  0.00  0.00    +0.000 OA
BRANCH  10  11
ATOM     11  C   UNL     1      48.320   6.206  15.909  0.00  0.00    +0.000 A 
ATOM     12  C   UNL     1      47.713   5.145  15.234  0.00  0.00    +0.000 A 
ATOM     13  C   UNL     1      47.283   4.027  15.937  0.00  0.00    +0.000 A 
ATOM     14  C   UNL     1      47.496   3.947  17.316  0.00  0.00    +0.000 A 
ATOM     15  C   UNL     1      48.129   4.993  17.997  0.00  0.00    +0.000 A 
ATOM     16  C   UNL     1      48.507   6.141  17.296  0.00  0.00    +0.000 A 
BRANCH  15  17
ATOM     17  C   UNL     1      48.424   4.814  19.444  0.00  0.00    +0.000 C 
ATOM     18  N   UNL     1      48.535   3.545  19.932  0.00  0.00    +0.000 N 
ATOM     19  O   UNL     1      48.503   5.781  20.201  0.00  0.00    +0.000 OA
ATOM     20  H   UNL     1      48.372   2.706  19.392  0.00  0.00    +0.000 HD
ATOM     21  H   UNL     1      48.617   3.452  20.938  0.00  0.00    +0.000 HD
ENDBRANCH  15  17
ENDBRANCH  10  11
ENDBRANCH   9  10
ENDBRANCH   7   9
ENDBRANCH   5   7
BRANCH   1  22
ATOM     22  O   UNL     1      45.487   5.419  11.195  0.00  0.00    +0.000 OA
BRANCH  22  23
ATOM     23  C   UNL     1      45.624   5.378   9.766  0.00  0.00    +0.000 C 
BRANCH  23  24
ATOM     24  C   UNL     1      44.792   4.223   9.197  0.00  0.00    +0.000 C 
ATOM     25  C   UNL     1      44.070   3.464  10.314  0.00  0.00    +0.000 C 
BRANCH  24  29
ATOM     26  C   UNL     1      47.668   2.147   5.503  0.00  0.00    +0.000 C 
ATOM     27  C   UNL     1      46.861   2.443   6.709  0.00  0.00    +0.000 A 
ATOM     28  C   UNL     1      46.311   3.627   7.155  0.00  0.00    +0.000 A 
ATOM     29  C   UNL     1      45.610   3.294   8.340  0.00  0.00    +0.000 A 
ATOM     30  N   UNL     1      45.732   1.994   8.628  0.00  0.00    +0.000 NA
ATOM     31  N   UNL     1      46.494   1.499   7.633  0.00  0.00    +0.000 N 
ATOM     32  C   UNL     1      46.819   0.092   7.620  0.00  0.00    +0.000 C 
ENDBRANCH  24  29
ENDBRANCH  23  24
ENDBRANCH  22  23
ENDBRANCH   1  22
TORSDOF 9
ENDMDL
