MODEL 1
REMARK VINA RESULT:    -7.201      0.000      0.000
REMARK INTER + INTRA:         -10.671
REMARK INTER:                  -9.726
REMARK INTRA:                  -0.945
REMARK UNBOUND:                -0.945
REMARK  Name = 
REMARK  8 active torsions:
REMARK  status: ('A' for Active; 'I' for Inactive)
REMARK    1  A    between atoms: C_1  and  O_2
REMARK    2  A    between atoms: O_2  and  C_3
REMARK    3  A    between atoms: C_7  and  O_8
REMARK    4  A    between atoms: O_8  and  C_9
REMARK    5  A    between atoms: C_12  and  C_13
REMARK    6  A    between atoms: C_13  and  N_14
REMARK    7  A    between atoms: N_14  and  C_15
REMARK    8  A    between atoms: C_16  and  C_18
REMARK                            x       y       z     vdW  Elec       q    Type
REMARK                         _______ _______ _______ _____ _____    ______ ____
ROOT
ATOM      1  C   UNL     1      48.912   7.006  13.881  0.00  0.00    +0.000 C 
ENDROOT
BRANCH   1   5
ATOM      2  C   UNL     1      45.385   5.650  11.771  0.00  0.00    +0.000 A 
ATOM      3  C   UNL     1      45.914   6.908  11.490  0.00  0.00    +0.000 A 
ATOM      4  C   UNL     1      47.014   7.388  12.217  0.00  0.00    +0.000 A 
ATOM      5  C   UNL     1      47.595   6.614  13.238  0.00  0.00    +0.000 A 
ATOM      6  C   UNL     1      46.995   5.394  13.572  0.00  0.00    +0.000 A 
ATOM      7  C   UNL     1      45.892   4.921  12.852  0.00  0.00    +0.000 A 
BRANCH   2   8
ATOM      8  O   UNL     1      44.352   5.185  10.978  0.00  0.00    +0.000 OA
BRANCH   8  13
ATOM      9  C   UNL     1      45.781   3.808   8.004  0.00  0.00    +0.000 A 
ATOM     10  C   UNL     1      45.525   2.452   8.120  0.00  0.00    +0.000 A 
ATOM     11  C   UNL     1      44.785   2.016   9.219  0.00  0.00    +0.000 A 
ATOM     12  C   UNL     1      44.357   2.944  10.169  0.00  0.00    +0.000 A 
ATOM     13  C   UNL     1      44.695   4.277   9.980  0.00  0.00    +0.000 A 
ATOM     14  N   UNL     1      45.356   4.724   8.892  0.00  0.00    +0.000 NA
BRANCH   9  16
ATOM     15  C   UNL     1      46.894   3.125   6.074  0.00  0.00    +0.000 C 
ATOM     16  O   UNL     1      46.554   4.213   6.935  0.00  0.00    +0.000 OA
ENDBRANCH   9  16
ENDBRANCH   8  13
ENDBRANCH   2   8
ENDBRANCH   1   5
BRANCH   1  17
ATOM     17  N   UNL     1      48.838   7.485  15.264  0.00  0.00    +0.000 N 
ATOM     18  C   UNL     1      48.149   8.750  15.470  0.00  0.00    +0.000 C 
ATOM     19  C   UNL     1      49.598   6.811  16.240  0.00  0.00    +0.000 C 
ATOM     20  O   UNL     1      50.239   5.798  15.955  0.00  0.00    +0.000 OA
BRANCH  19  21
ATOM     21  C   UNL     1      49.604   7.289  17.636  0.00  0.00    +0.000 A 
ATOM     22  C   UNL     1      50.348   8.363  18.096  0.00  0.00    +0.000 A 
ATOM     23  S   UNL     1      50.097   8.723  19.746  0.00  0.00    +0.000 S 
ATOM     24  C   UNL     1      48.887   7.539  19.877  0.00  0.00    +0.000 A 
ATOM     25  N   UNL     1      48.179   7.389  21.031  0.00  0.00    +0.000 NA
ATOM     26  C   UNL     1      47.250   6.494  20.969  0.00  0.00    +0.000 A 
ATOM     27  N   UNL     1      46.991   5.714  19.873  0.00  0.00    +0.000 N 
ATOM     28  C   UNL     1      47.768   5.733  18.737  0.00  0.00    +0.000 A 
ATOM     29  O   UNL     1      47.656   4.860  17.884  0.00  0.00    +0.000 OA
ATOM     30  C   UNL     1      48.745   6.814  18.707  0.00  0.00    +0.000 A 
ATOM     31  H   UNL     1      46.299   4.980  19.917  0.00  0.00    +0.000 HD
ENDBRANCH  19  21
ENDBRANCH   1  17
TORSDOF 6
ENDMDL
MODEL 2
REMARK VINA RESULT:    -7.033      3.400      4.247
REMARK INTER + INTRA:         -10.445
REMARK INTER:                  -9.599
REMARK INTRA:                  -0.845
REMARK UNBOUND:                -0.945
REMARK  Name = 
REMARK  8 active torsions:
REMARK  status: ('A' for Active; 'I' for Inactive)
REMARK    1  A    between atoms: C_1  and  O_2
REMARK    2  A    between atoms: O_2  and  C_3
REMARK    3  A    between atoms: C_7  and  O_8
REMARK    4  A    between atoms: O_8  and  C_9
REMARK    5  A    between atoms: C_12  and  C_13
REMARK    6  A    between atoms: C_13  and  N_14
REMARK    7  A    between atoms: N_14  and  C_15
REMARK    8  A    between atoms: C_16  and  C_18
REMARK                            x       y       z     vdW  Elec       q    Type
REMARK                         _______ _______ _______ _____ _____    ______ ____
ROOT
ATOM      1  C   UNL     1      48.856   7.106  16.364  0.00  0.00    +0.000 C 
ENDROOT
BRANCH   1   5
ATOM      2  C   UNL     1      47.126   6.559  12.434  0.00  0.00    +0.000 A 
ATOM      3  C   UNL     1      47.262   5.464  13.285  0.00  0.00    +0.000 A 
ATOM      4  C   UNL     1      47.885   5.615  14.533  0.00  0.00    +0.000 A 
ATOM      5  C   UNL     1      48.384   6.865  14.942  0.00  0.00    +0.000 A 
ATOM      6  C   UNL     1      48.325   7.933  14.039  0.00  0.00    +0.000 A 
ATOM      7  C   UNL     1      47.711   7.779  12.790  0.00  0.00    +0.000 A 
BRANCH   2   8
ATOM      8  O   UNL     1      46.435   6.382  11.249  0.00  0.00    +0.000 OA
BRANCH   8  13
ATOM      9  C   UNL     1      43.953   3.849  10.794  0.00  0.00    +0.000 A 
ATOM     10  C   UNL     1      42.932   4.241  11.644  0.00  0.00    +0.000 A 
ATOM     11  C   UNL     1      43.080   5.441  12.337  0.00  0.00    +0.000 A 
ATOM     12  C   UNL     1      44.250   6.184  12.178  0.00  0.00    +0.000 A 
ATOM     13  C   UNL     1      45.231   5.689  11.330  0.00  0.00    +0.000 A 
ATOM     14  N   UNL     1      45.078   4.562  10.604  0.00  0.00    +0.000 NA
BRANCH   9  16
ATOM     15  C   UNL     1      44.915   2.345   9.297  0.00  0.00    +0.000 C 
ATOM     16  O   UNL     1      43.808   2.636  10.152  0.00  0.00    +0.000 OA
ENDBRANCH   9  16
ENDBRANCH   8  13
ENDBRANCH   2   8
ENDBRANCH   1   5
BRANCH   1  17
ATOM     17  N   UNL     1      50.105   6.445  16.751  0.00  0.00    +0.000 N 
ATOM     18  C   UNL     1      51.295   6.837  16.011  0.00  0.00    +0.000 C 
ATOM     19  C   UNL     1      50.030   5.358  17.642  0.00  0.00    +0.000 C 
ATOM     20  O   UNL     1      48.955   5.026  18.147  0.00  0.00    +0.000 OA
BRANCH  19  21
ATOM     21  C   UNL     1      51.251   4.620  18.018  0.00  0.00    +0.000 A 
ATOM     22  C   UNL     1      52.293   5.150  18.761  0.00  0.00    +0.000 A 
ATOM     23  S   UNL     1      53.540   4.034  19.098  0.00  0.00    +0.000 S 
ATOM     24  C   UNL     1      52.675   2.764  18.375  0.00  0.00    +0.000 A 
ATOM     25  N   UNL     1      53.150   1.488  18.409  0.00  0.00    +0.000 NA
ATOM     26  C   UNL     1      52.361   0.616  17.876  0.00  0.00    +0.000 A 
ATOM     27  N   UNL     1      51.162   0.909  17.283  0.00  0.00    +0.000 N 
ATOM     28  C   UNL     1      50.708   2.196  17.102  0.00  0.00    +0.000 A 
ATOM     29  O   UNL     1      49.761   2.431  16.360  0.00  0.00    +0.000 OA
ATOM     30  C   UNL     1      51.497   3.204  17.799  0.00  0.00    +0.000 A 
ATOM     31  H   UNL     1      50.629   0.189  16.817  0.00  0.00    +0.000 HD
ENDBRANCH  19  21
ENDBRANCH   1  17
TORSDOF 6
ENDMDL
MODEL 3
REMARK VINA RESULT:    -6.773      1.419      2.185
REMARK INTER + INTRA:         -10.093
REMARK INTER:                  -9.077
REMARK INTRA:                  -1.016
REMARK UNBOUND:                -0.945
REMARK  Name = 
REMARK  8 active torsions:
REMARK  status: ('A' for Active; 'I' for Inactive)
REMARK    1  A    between atoms: C_1  and  O_2
REMARK    2  A    between atoms: O_2  and  C_3
REMARK    3  A    between atoms: C_7  and  O_8
REMARK    4  A    between atoms: O_8  and  C_9
REMARK    5  A    between atoms: C_12  and  C_13
REMARK    6  A    between atoms: C_13  and  N_14
REMARK    7  A    between atoms: N_14  and  C_15
REMARK    8  A    between atoms: C_16  and  C_18
REMARK                            x       y       z     vdW  Elec       q    Type
REMARK                         _______ _______ _______ _____ _____    ______ ____
ROOT
ATOM      1  C   UNL     1      49.240   6.928  14.583  0.00  0.00    +0.000 C 
ENDROOT
BRANCH   1   5
ATOM      2  C   UNL     1      45.927   6.074  11.932  0.00  0.00    +0.000 A 
ATOM      3  C   UNL     1      46.155   5.254  13.035  0.00  0.00    +0.000 A 
ATOM      4  C   UNL     1      47.266   5.478  13.862  0.00  0.00    +0.000 A 
ATOM      5  C   UNL     1      48.166   6.524  13.590  0.00  0.00    +0.000 A 
ATOM      6  C   UNL     1      47.977   7.280  12.426  0.00  0.00    +0.000 A 
ATOM      7  C   UNL     1      46.872   7.049  11.598  0.00  0.00    +0.000 A 
BRANCH   2   8
ATOM      8  O   UNL     1      44.777   5.867  11.192  0.00  0.00    +0.000 OA
BRANCH   8  13
ATOM      9  C   UNL     1      45.680   4.096   8.219  0.00  0.00    +0.000 A 
ATOM     10  C   UNL     1      45.099   2.851   8.396  0.00  0.00    +0.000 A 
ATOM     11  C   UNL     1      44.325   2.645   9.536  0.00  0.00    +0.000 A 
ATOM     12  C   UNL     1      44.187   3.676  10.467  0.00  0.00    +0.000 A 
ATOM     13  C   UNL     1      44.837   4.875  10.216  0.00  0.00    +0.000 A 
ATOM     14  N   UNL     1      45.539   5.113   9.088  0.00  0.00    +0.000 NA
BRANCH   9  16
ATOM     15  C   UNL     1      47.114   3.049   6.711  0.00  0.00    +0.000 C 
ATOM     16  O   UNL     1      46.480   4.266   7.107  0.00  0.00    +0.000 OA
ENDBRANCH   9  16
ENDBRANCH   8  13
ENDBRANCH   2   8
ENDBRANCH   1   5
BRANCH   1  17
ATOM     17  N   UNL     1      48.794   7.153  15.961  0.00  0.00    +0.000 N 
ATOM     18  C   UNL     1      48.361   8.504  16.284  0.00  0.00    +0.000 C 
ATOM     19  C   UNL     1      49.007   6.126  16.901  0.00  0.00    +0.000 C 
ATOM     20  O   UNL     1      49.476   5.040  16.558  0.00  0.00    +0.000 OA
BRANCH  19  21
ATOM     21  C   UNL     1      48.630   6.324  18.314  0.00  0.00    +0.000 A 
ATOM     22  C   UNL     1      47.468   5.842  18.893  0.00  0.00    +0.000 A 
ATOM     23  S   UNL     1      47.340   6.168  20.564  0.00  0.00    +0.000 S 
ATOM     24  C   UNL     1      48.893   6.854  20.606  0.00  0.00    +0.000 A 
ATOM     25  N   UNL     1      49.446   7.258  21.783  0.00  0.00    +0.000 NA
ATOM     26  C   UNL     1      50.653   7.702  21.674  0.00  0.00    +0.000 A 
ATOM     27  N   UNL     1      51.341   7.812  20.494  0.00  0.00    +0.000 N 
ATOM     28  C   UNL     1      50.775   7.548  19.268  0.00  0.00    +0.000 A 
ATOM     29  O   UNL     1      51.333   7.886  18.231  0.00  0.00    +0.000 OA
ATOM     30  C   UNL     1      49.461   6.922  19.346  0.00  0.00    +0.000 A 
ATOM     31  H   UNL     1      52.255   8.239  20.470  0.00  0.00    +0.000 HD
ENDBRANCH  19  21
ENDBRANCH   1  17
TORSDOF 6
ENDMDL
MODEL 4
REMARK VINA RESULT:    -6.539      4.022      5.557
REMARK INTER + INTRA:          -9.778
REMARK INTER:                  -8.656
REMARK INTRA:                  -1.122
REMARK UNBOUND:                -0.945
REMARK  Name = 
REMARK  8 active torsions:
REMARK  status: ('A' for Active; 'I' for Inactive)
REMARK    1  A    between atoms: C_1  and  O_2
REMARK    2  A    between atoms: O_2  and  C_3
REMARK    3  A    between atoms: C_7  and  O_8
REMARK    4  A    between atoms: O_8  and  C_9
REMARK    5  A    between atoms: C_12  and  C_13
REMARK    6  A    between atoms: C_13  and  N_14
REMARK    7  A    between atoms: N_14  and  C_15
REMARK    8  A    between atoms: C_16  and  C_18
REMARK                            x       y       z     vdW  Elec       q    Type
REMARK                         _______ _______ _______ _____ _____    ______ ____
ROOT
ATOM      1  C   UNL     1      47.362   8.305  13.547  0.00  0.00    +0.000 C 
ENDROOT
BRANCH   1   5
ATOM      2  C   UNL     1      44.567   5.854  11.330  0.00  0.00    +0.000 A 
ATOM      3  C   UNL     1      44.367   7.231  11.404  0.00  0.00    +0.000 A 
ATOM      4  C   UNL     1      45.226   8.027  12.177  0.00  0.00    +0.000 A 
ATOM      5  C   UNL     1      46.292   7.452  12.890  0.00  0.00    +0.000 A 
ATOM      6  C   UNL     1      46.424   6.058  12.883  0.00  0.00    +0.000 A 
ATOM      7  C   UNL     1      45.561   5.264  12.118  0.00  0.00    +0.000 A 
BRANCH   2   8
ATOM      8  O   UNL     1      43.746   5.119  10.494  0.00  0.00    +0.000 OA
BRANCH   8  13
ATOM      9  C   UNL     1      45.784   3.695   7.924  0.00  0.00    +0.000 A 
ATOM     10  C   UNL     1      45.744   2.337   8.195  0.00  0.00    +0.000 A 
ATOM     11  C   UNL     1      44.942   1.903   9.249  0.00  0.00    +0.000 A 
ATOM     12  C   UNL     1      44.238   2.840  10.006  0.00  0.00    +0.000 A 
ATOM     13  C   UNL     1      44.372   4.181   9.677  0.00  0.00    +0.000 A 
ATOM     14  N   UNL     1      45.094   4.614   8.623  0.00  0.00    +0.000 NA
BRANCH   9  16
ATOM     15  C   UNL     1      47.363   3.027   6.347  0.00  0.00    +0.000 C 
ATOM     16  O   UNL     1      46.620   4.110   6.907  0.00  0.00    +0.000 OA
ENDBRANCH   9  16
ENDBRANCH   8  13
ENDBRANCH   2   8
ENDBRANCH   1   5
BRANCH   1  17
ATOM     17  N   UNL     1      48.747   8.003  13.176  0.00  0.00    +0.000 N 
ATOM     18  C   UNL     1      49.508   7.207  14.128  0.00  0.00    +0.000 C 
ATOM     19  C   UNL     1      49.291   8.661  12.056  0.00  0.00    +0.000 C 
ATOM     20  O   UNL     1      48.597   9.403  11.359  0.00  0.00    +0.000 OA
BRANCH  19  21
ATOM     21  C   UNL     1      50.699   8.437  11.674  0.00  0.00    +0.000 A 
ATOM     22  C   UNL     1      51.117   7.544  10.702  0.00  0.00    +0.000 A 
ATOM     23  S   UNL     1      52.803   7.556  10.431  0.00  0.00    +0.000 S 
ATOM     24  C   UNL     1      53.024   8.847  11.513  0.00  0.00    +0.000 A 
ATOM     25  N   UNL     1      54.249   9.417  11.677  0.00  0.00    +0.000 NA
ATOM     26  C   UNL     1      54.258  10.427  12.482  0.00  0.00    +0.000 A 
ATOM     27  N   UNL     1      53.164  10.892  13.162  0.00  0.00    +0.000 N 
ATOM     28  C   UNL     1      51.940  10.262  13.136  0.00  0.00    +0.000 A 
ATOM     29  O   UNL     1      51.061  10.560  13.936  0.00  0.00    +0.000 OA
ATOM     30  C   UNL     1      51.844   9.198  12.143  0.00  0.00    +0.000 A 
ATOM     31  H   UNL     1      53.256  11.639  13.835  0.00  0.00    +0.000 HD
ENDBRANCH  19  21
ENDBRANCH   1  17
TORSDOF 6
ENDMDL
MODEL 5
REMARK VINA RESULT:    -6.507      2.212      3.071
REMARK INTER + INTRA:          -9.734
REMARK INTER:                  -8.671
REMARK INTRA:                  -1.063
REMARK UNBOUND:                -0.945
REMARK  Name = 
REMARK  8 active torsions:
REMARK  status: ('A' for Active; 'I' for Inactive)
REMARK    1  A    between atoms: C_1  and  O_2
REMARK    2  A    between atoms: O_2  and  C_3
REMARK    3  A    between atoms: C_7  and  O_8
REMARK    4  A    between atoms: O_8  and  C_9
REMARK    5  A    between atoms: C_12  and  C_13
REMARK    6  A    between atoms: C_13  and  N_14
REMARK    7  A    between atoms: N_14  and  C_15
REMARK    8  A    between atoms: C_16  and  C_18
REMARK                            x       y       z     vdW  Elec       q    Type
REMARK                         _______ _______ _______ _____ _____    ______ ____
ROOT
ATOM      1  C   UNL     1      48.827   9.251  13.190  0.00  0.00    +0.000 C 
ENDROOT
BRANCH   1   5
ATOM      2  C   UNL     1      45.099   7.665  11.666  0.00  0.00    +0.000 A 
ATOM      3  C   UNL     1      46.245   6.871  11.645  0.00  0.00    +0.000 A 
ATOM      4  C   UNL     1      47.474   7.398  12.070  0.00  0.00    +0.000 A 
ATOM      5  C   UNL     1      47.571   8.727  12.518  0.00  0.00    +0.000 A 
ATOM      6  C   UNL     1      46.433   9.540  12.445  0.00  0.00    +0.000 A 
ATOM      7  C   UNL     1      45.210   9.016  12.012  0.00  0.00    +0.000 A 
BRANCH   2   8
ATOM      8  O   UNL     1      43.896   7.082  11.314  0.00  0.00    +0.000 OA
BRANCH   8  13
ATOM      9  C   UNL     1      43.969   3.548  10.775  0.00  0.00    +0.000 A 
ATOM     10  C   UNL     1      43.733   3.024  12.035  0.00  0.00    +0.000 A 
ATOM     11  C   UNL     1      43.478   3.913  13.078  0.00  0.00    +0.000 A 
ATOM     12  C   UNL     1      43.498   5.286  12.828  0.00  0.00    +0.000 A 
ATOM     13  C   UNL     1      43.780   5.712  11.538  0.00  0.00    +0.000 A 
ATOM     14  N   UNL     1      43.968   4.865  10.505  0.00  0.00    +0.000 NA
BRANCH   9  16
ATOM     15  C   UNL     1      44.762   3.307   8.598  0.00  0.00    +0.000 C 
ATOM     16  O   UNL     1      44.265   2.653   9.767  0.00  0.00    +0.000 OA
ENDBRANCH   9  16
ENDBRANCH   8  13
ENDBRANCH   2   8
ENDBRANCH   1   5
BRANCH   1  17
ATOM     17  N   UNL     1      49.398   8.404  14.240  0.00  0.00    +0.000 N 
ATOM     18  C   UNL     1      50.550   7.599  13.861  0.00  0.00    +0.000 C 
ATOM     19  C   UNL     1      48.685   8.274  15.447  0.00  0.00    +0.000 C 
ATOM     20  O   UNL     1      47.654   8.920  15.646  0.00  0.00    +0.000 OA
BRANCH  19  21
ATOM     21  C   UNL     1      49.186   7.387  16.515  0.00  0.00    +0.000 A 
ATOM     22  C   UNL     1      49.963   7.803  17.582  0.00  0.00    +0.000 A 
ATOM     23  S   UNL     1      50.332   6.562  18.695  0.00  0.00    +0.000 S 
ATOM     24  C   UNL     1      49.358   5.448  17.861  0.00  0.00    +0.000 A 
ATOM     25  N   UNL     1      49.157   4.193  18.350  0.00  0.00    +0.000 NA
ATOM     26  C   UNL     1      48.347   3.475  17.646  0.00  0.00    +0.000 A 
ATOM     27  N   UNL     1      47.751   3.886  16.483  0.00  0.00    +0.000 N 
ATOM     28  C   UNL     1      48.033   5.090  15.879  0.00  0.00    +0.000 A 
ATOM     29  O   UNL     1      47.672   5.318  14.730  0.00  0.00    +0.000 OA
ATOM     30  C   UNL     1      48.839   5.987  16.698  0.00  0.00    +0.000 A 
ATOM     31  H   UNL     1      47.187   3.247  15.941  0.00  0.00    +0.000 HD
ENDBRANCH  19  21
ENDBRANCH   1  17
TORSDOF 6
ENDMDL
MODEL 6
REMARK VINA RESULT:    -6.404      5.663      8.322
REMARK INTER + INTRA:          -9.595
REMARK INTER:                  -8.428
REMARK INTRA:                  -1.166
REMARK UNBOUND:                -0.945
REMARK  Name = 
REMARK  8 active torsions:
REMARK  status: ('A' for Active; 'I' for Inactive)
REMARK    1  A    between atoms: C_1  and  O_2
REMARK    2  A    between atoms: O_2  and  C_3
REMARK    3  A    between atoms: C_7  and  O_8
REMARK    4  A    between atoms: O_8  and  C_9
REMARK    5  A    between atoms: C_12  and  C_13
REMARK    6  A    between atoms: C_13  and  N_14
REMARK    7  A    between atoms: N_14  and  C_15
REMARK    8  A    between atoms: C_16  and  C_18
REMARK                            x       y       z     vdW  Elec       q    Type
REMARK                         _______ _______ _______ _____ _____    ______ ____
ROOT
ATOM      1  C   UNL     1      46.510   8.998  12.709  0.00  0.00    +0.000 C 
ENDROOT
BRANCH   1   5
ATOM      2  C   UNL     1      48.473  12.015  10.304  0.00  0.00    +0.000 A 
ATOM      3  C   UNL     1      49.156  10.847  10.635  0.00  0.00    +0.000 A 
ATOM      4  C   UNL     1      48.557   9.893  11.472  0.00  0.00    +0.000 A 
ATOM      5  C   UNL     1      47.267  10.101  11.992  0.00  0.00    +0.000 A 
ATOM      6  C   UNL     1      46.631  11.321  11.727  0.00  0.00    +0.000 A 
ATOM      7  C   UNL     1      47.234  12.275  10.900  0.00  0.00    +0.000 A 
BRANCH   2   8
ATOM      8  O   UNL     1      49.069  12.889   9.413  0.00  0.00    +0.000 OA
BRANCH   8  13
ATOM      9  C   UNL     1      49.862  11.778   6.109  0.00  0.00    +0.000 A 
ATOM     10  C   UNL     1      48.640  11.800   5.458  0.00  0.00    +0.000 A 
ATOM     11  C   UNL     1      47.532  12.272   6.160  0.00  0.00    +0.000 A 
ATOM     12  C   UNL     1      47.682  12.673   7.488  0.00  0.00    +0.000 A 
ATOM     13  C   UNL     1      48.943  12.580   8.061  0.00  0.00    +0.000 A 
ATOM     14  N   UNL     1      50.037  12.185   7.378  0.00  0.00    +0.000 NA
BRANCH   9  16
ATOM     15  C   UNL     1      50.566  10.806   4.111  0.00  0.00    +0.000 C 
ATOM     16  O   UNL     1      50.938  11.265   5.412  0.00  0.00    +0.000 OA
ENDBRANCH   9  16
ENDBRANCH   8  13
ENDBRANCH   2   8
ENDBRANCH   1   5
BRANCH   1  17
ATOM     17  N   UNL     1      45.818   8.030  11.855  0.00  0.00    +0.000 N 
ATOM     18  C   UNL     1      44.470   8.388  11.439  0.00  0.00    +0.000 C 
ATOM     19  C   UNL     1      46.409   6.765  11.675  0.00  0.00    +0.000 C 
ATOM     20  O   UNL     1      47.516   6.509  12.151  0.00  0.00    +0.000 OA
BRANCH  19  21
ATOM     21  C   UNL     1      45.724   5.732  10.872  0.00  0.00    +0.000 A 
ATOM     22  C   UNL     1      45.942   5.513   9.522  0.00  0.00    +0.000 A 
ATOM     23  S   UNL     1      45.055   4.202   8.882  0.00  0.00    +0.000 S 
ATOM     24  C   UNL     1      44.444   3.796  10.414  0.00  0.00    +0.000 A 
ATOM     25  N   UNL     1      43.675   2.685  10.586  0.00  0.00    +0.000 NA
ATOM     26  C   UNL     1      43.332   2.464  11.811  0.00  0.00    +0.000 A 
ATOM     27  N   UNL     1      43.657   3.272  12.869  0.00  0.00    +0.000 N 
ATOM     28  C   UNL     1      44.311   4.474  12.724  0.00  0.00    +0.000 A 
ATOM     29  O   UNL     1      44.369   5.275  13.649  0.00  0.00    +0.000 OA
ATOM     30  C   UNL     1      44.832   4.704  11.382  0.00  0.00    +0.000 A 
ATOM     31  H   UNL     1      43.292   3.082  13.791  0.00  0.00    +0.000 HD
ENDBRANCH  19  21
ENDBRANCH   1  17
TORSDOF 6
ENDMDL
MODEL 7
REMARK VINA RESULT:    -6.369      1.492      2.156
REMARK INTER + INTRA:          -9.547
REMARK INTER:                  -8.455
REMARK INTRA:                  -1.093
REMARK UNBOUND:                -0.945
REMARK  Name = 
REMARK  8 active torsions:
REMARK  status: ('A' for Active; 'I' for Inactive)
REMARK    1  A    between atoms: C_1  and  O_2
REMARK    2  A    between atoms: O_2  and  C_3
REMARK    3  A    between atoms: C_7  and  O_8
REMARK    4  A    between atoms: O_8  and  C_9
REMARK    5  A    between atoms: C_12  and  C_13
REMARK    6  A    between atoms: C_13  and  N_14
REMARK    7  A    between atoms: N_14  and  C_15
REMARK    8  A    between atoms: C_16  and  C_18
REMARK                            x       y       z     vdW  Elec       q    Type
REMARK                         _______ _______ _______ _____ _____    ______ ____
ROOT
ATOM      1  C   UNL     1      49.475   8.197  14.737  0.00  0.00    +0.000 C 
ENDROOT
BRANCH   1   5
ATOM      2  C   UNL     1      46.101   7.032  12.289  0.00  0.00    +0.000 A 
ATOM      3  C   UNL     1      46.153   8.319  12.821  0.00  0.00    +0.000 A 
ATOM      4  C   UNL     1      47.206   8.686  13.673  0.00  0.00    +0.000 A 
ATOM      5  C   UNL     1      48.216   7.766  14.007  0.00  0.00    +0.000 A 
ATOM      6  C   UNL     1      48.099   6.451  13.541  0.00  0.00    +0.000 A 
ATOM      7  C   UNL     1      47.044   6.084  12.698  0.00  0.00    +0.000 A 
BRANCH   2   8
ATOM      8  O   UNL     1      45.090   6.739  11.392  0.00  0.00    +0.000 OA
BRANCH   8  13
ATOM      9  C   UNL     1      44.033   3.380  10.773  0.00  0.00    +0.000 A 
ATOM     10  C   UNL     1      43.380   3.026  11.942  0.00  0.00    +0.000 A 
ATOM     11  C   UNL     1      43.246   3.993  12.936  0.00  0.00    +0.000 A 
ATOM     12  C   UNL     1      43.794   5.261  12.738  0.00  0.00    +0.000 A 
ATOM     13  C   UNL     1      44.461   5.506  11.546  0.00  0.00    +0.000 A 
ATOM     14  N   UNL     1      44.546   4.602  10.548  0.00  0.00    +0.000 NA
BRANCH   9  16
ATOM     15  C   UNL     1      44.769   2.904   8.614  0.00  0.00    +0.000 C 
ATOM     16  O   UNL     1      44.196   2.395   9.820  0.00  0.00    +0.000 OA
ENDBRANCH   9  16
ENDBRANCH   8  13
ENDBRANCH   2   8
ENDBRANCH   1   5
BRANCH   1  17
ATOM     17  N   UNL     1      49.440   8.096  16.198  0.00  0.00    +0.000 N 
ATOM     18  C   UNL     1      48.867   9.230  16.907  0.00  0.00    +0.000 C 
ATOM     19  C   UNL     1      50.134   7.031  16.805  0.00  0.00    +0.000 C 
ATOM     20  O   UNL     1      50.683   6.163  16.124  0.00  0.00    +0.000 OA
BRANCH  19  21
ATOM     21  C   UNL     1      50.180   6.917  18.275  0.00  0.00    +0.000 A 
ATOM     22  C   UNL     1      51.201   7.411  19.071  0.00  0.00    +0.000 A 
ATOM     23  S   UNL     1      50.943   7.190  20.744  0.00  0.00    +0.000 S 
ATOM     24  C   UNL     1      49.396   6.541  20.477  0.00  0.00    +0.000 A 
ATOM     25  N   UNL     1      48.582   6.225  21.521  0.00  0.00    +0.000 NA
ATOM     26  C   UNL     1      47.414   5.800  21.171  0.00  0.00    +0.000 A 
ATOM     27  N   UNL     1      47.003   5.630  19.876  0.00  0.00    +0.000 N 
ATOM     28  C   UNL     1      47.836   5.802  18.794  0.00  0.00    +0.000 A 
ATOM     29  O   UNL     1      47.510   5.410  17.679  0.00  0.00    +0.000 OA
ATOM     30  C   UNL     1      49.121   6.404  19.128  0.00  0.00    +0.000 A 
ATOM     31  H   UNL     1      46.102   5.221  19.672  0.00  0.00    +0.000 HD
ENDBRANCH  19  21
ENDBRANCH   1  17
TORSDOF 6
ENDMDL
MODEL 8
REMARK VINA RESULT:    -5.942      3.682      8.107
REMARK INTER + INTRA:          -8.971
REMARK INTER:                  -8.726
REMARK INTRA:                  -0.246
REMARK UNBOUND:                -0.945
REMARK  Name = 
REMARK  8 active torsions:
REMARK  status: ('A' for Active; 'I' for Inactive)
REMARK    1  A    between atoms: C_1  and  O_2
REMARK    2  A    between atoms: O_2  and  C_3
REMARK    3  A    between atoms: C_7  and  O_8
REMARK    4  A    between atoms: O_8  and  C_9
REMARK    5  A    between atoms: C_12  and  C_13
REMARK    6  A    between atoms: C_13  and  N_14
REMARK    7  A    between atoms: N_14  and  C_15
REMARK    8  A    between atoms: C_16  and  C_18
REMARK                            x       y       z     vdW  Elec       q    Type
REMARK                         _______ _______ _______ _____ _____    ______ ____
ROOT
ATOM      1  C   UNL     1      48.024   9.079  12.694  0.00  0.00    +0.000 C 
ENDROOT
BRANCH   1   5
ATOM      2  C   UNL     1      49.906   7.510  16.263  0.00  0.00    +0.000 A 
ATOM      3  C   UNL     1      48.744   8.272  16.375  0.00  0.00    +0.000 A 
ATOM      4  C   UNL     1      48.165   8.845  15.233  0.00  0.00    +0.000 A 
ATOM      5  C   UNL     1      48.745   8.665  13.964  0.00  0.00    +0.000 A 
ATOM      6  C   UNL     1      49.962   7.978  13.879  0.00  0.00    +0.000 A 
ATOM      7  C   UNL     1      50.544   7.415  15.021  0.00  0.00    +0.000 A 
BRANCH   2   8
ATOM      8  O   UNL     1      50.398   6.900  17.401  0.00  0.00    +0.000 OA
BRANCH   8  13
ATOM      9  C   UNL     1      49.705   3.392  17.366  0.00  0.00    +0.000 A 
ATOM     10  C   UNL     1      48.919   3.206  18.491  0.00  0.00    +0.000 A 
ATOM     11  C   UNL     1      48.569   4.330  19.238  0.00  0.00    +0.000 A 
ATOM     12  C   UNL     1      49.039   5.585  18.851  0.00  0.00    +0.000 A 
ATOM     13  C   UNL     1      49.851   5.662  17.728  0.00  0.00    +0.000 A 
ATOM     14  N   UNL     1      50.148   4.595  16.958  0.00  0.00    +0.000 NA
BRANCH   9  16
ATOM     15  C   UNL     1      51.168   1.580  17.291  0.00  0.00    +0.000 C 
ATOM     16  O   UNL     1      50.080   2.263  16.666  0.00  0.00    +0.000 OA
ENDBRANCH   9  16
ENDBRANCH   8  13
ENDBRANCH   2   8
ENDBRANCH   1   5
BRANCH   1  17
ATOM     17  N   UNL     1      46.694   8.500  12.489  0.00  0.00    +0.000 N 
ATOM     18  C   UNL     1      45.568   9.295  12.957  0.00  0.00    +0.000 C 
ATOM     19  C   UNL     1      46.613   7.163  12.057  0.00  0.00    +0.000 C 
ATOM     20  O   UNL     1      47.630   6.525  11.778  0.00  0.00    +0.000 OA
BRANCH  19  21
ATOM     21  C   UNL     1      45.298   6.513  11.892  0.00  0.00    +0.000 A 
ATOM     22  C   UNL     1      44.196   7.108  11.301  0.00  0.00    +0.000 A 
ATOM     23  S   UNL     1      42.834   6.085  11.189  0.00  0.00    +0.000 S 
ATOM     24  C   UNL     1      43.705   4.765  11.809  0.00  0.00    +0.000 A 
ATOM     25  N   UNL     1      43.138   3.530  11.884  0.00  0.00    +0.000 NA
ATOM     26  C   UNL     1      43.934   2.609  12.317  0.00  0.00    +0.000 A 
ATOM     27  N   UNL     1      45.229   2.820  12.713  0.00  0.00    +0.000 N 
ATOM     28  C   UNL     1      45.797   4.072  12.785  0.00  0.00    +0.000 A 
ATOM     29  O   UNL     1      46.861   4.247  13.368  0.00  0.00    +0.000 OA
ATOM     30  C   UNL     1      44.986   5.125  12.187  0.00  0.00    +0.000 A 
ATOM     31  H   UNL     1      45.773   2.070  13.113  0.00  0.00    +0.000 HD
ENDBRANCH  19  21
ENDBRANCH   1  17
TORSDOF 6
ENDMDL
MODEL 9
REMARK VINA RESULT:    -5.612      2.103      2.969
REMARK INTER + INTRA:          -8.525
REMARK INTER:                  -7.517
REMARK INTRA:                  -1.007
REMARK UNBOUND:                -0.945
REMARK  Name = 
REMARK  8 active torsions:
REMARK  status: ('A' for Active; 'I' for Inactive)
REMARK    1  A    between atoms: C_1  and  O_2
REMARK    2  A    between atoms: O_2  and  C_3
REMARK    3  A    between atoms: C_7  and  O_8
REMARK    4  A    between atoms: O_8  and  C_9
REMARK    5  A    between atoms: C_12  and  C_13
REMARK    6  A    between atoms: C_13  and  N_14
REMARK    7  A    between atoms: N_14  and  C_15
REMARK    8  A    between atoms: C_16  and  C_18
REMARK                            x       y       z     vdW  Elec       q    Type
REMARK                         _______ _______ _______ _____ _____    ______ ____
ROOT
ATOM      1  C   UNL     1      49.169   8.241  14.705  0.00  0.00    +0.000 C 
ENDROOT
BRANCH   1   5
ATOM      2  C   UNL     1      45.985   6.999  12.049  0.00  0.00    +0.000 A 
ATOM      3  C   UNL     1      45.846   8.172  12.788  0.00  0.00    +0.000 A 
ATOM      4  C   UNL     1      46.840   8.548  13.705  0.00  0.00    +0.000 A 
ATOM      5  C   UNL     1      47.983   7.751  13.895  0.00  0.00    +0.000 A 
ATOM      6  C   UNL     1      48.063   6.529  13.216  0.00  0.00    +0.000 A 
ATOM      7  C   UNL     1      47.067   6.151  12.308  0.00  0.00    +0.000 A 
BRANCH   2   8
ATOM      8  O   UNL     1      45.021   6.708  11.101  0.00  0.00    +0.000 OA
BRANCH   8  13
ATOM      9  C   UNL     1      44.391   3.295  10.242  0.00  0.00    +0.000 A 
ATOM     10  C   UNL     1      43.605   2.839  11.287  0.00  0.00    +0.000 A 
ATOM     11  C   UNL     1      43.232   3.751  12.273  0.00  0.00    +0.000 A 
ATOM     12  C   UNL     1      43.681   5.069  12.193  0.00  0.00    +0.000 A 
ATOM     13  C   UNL     1      44.495   5.420  11.125  0.00  0.00    +0.000 A 
ATOM     14  N   UNL     1      44.814   4.567  10.130  0.00  0.00    +0.000 NA
BRANCH   9  16
ATOM     15  C   UNL     1      45.282   2.986   8.111  0.00  0.00    +0.000 C 
ATOM     16  O   UNL     1      44.788   2.367   9.301  0.00  0.00    +0.000 OA
ENDBRANCH   9  16
ENDBRANCH   8  13
ENDBRANCH   2   8
ENDBRANCH   1   5
BRANCH   1  17
ATOM     17  N   UNL     1      49.224   7.801  16.101  0.00  0.00    +0.000 N 
ATOM     18  C   UNL     1      49.776   6.475  16.336  0.00  0.00    +0.000 C 
ATOM     19  C   UNL     1      48.564   8.584  17.068  0.00  0.00    +0.000 C 
ATOM     20  O   UNL     1      48.030   9.651  16.762  0.00  0.00    +0.000 OA
BRANCH  19  21
ATOM     21  C   UNL     1      48.538   8.154  18.480  0.00  0.00    +0.000 A 
ATOM     22  C   UNL     1      47.513   7.428  19.062  0.00  0.00    +0.000 A 
ATOM     23  S   UNL     1      47.796   7.017  20.694  0.00  0.00    +0.000 S 
ATOM     24  C   UNL     1      49.357   7.683  20.649  0.00  0.00    +0.000 A 
ATOM     25  N   UNL     1      50.192   7.576  21.720  0.00  0.00    +0.000 NA
ATOM     26  C   UNL     1      51.368   8.073  21.524  0.00  0.00    +0.000 A 
ATOM     27  N   UNL     1      51.770   8.695  20.372  0.00  0.00    +0.000 N 
ATOM     28  C   UNL     1      50.920   8.949  19.319  0.00  0.00    +0.000 A 
ATOM     29  O   UNL     1      51.244   9.714  18.418  0.00  0.00    +0.000 OA
ATOM     30  C   UNL     1      49.622   8.296  19.438  0.00  0.00    +0.000 A 
ATOM     31  H   UNL     1      52.680   9.130  20.312  0.00  0.00    +0.000 HD
ENDBRANCH  19  21
ENDBRANCH   1  17
TORSDOF 6
ENDMDL
