MODEL 1
REMARK VINA RESULT:    -7.734      0.000      0.000
REMARK INTER + INTRA:          -9.876
REMARK INTER:                  -9.090
REMARK INTRA:                  -0.786
REMARK UNBOUND:                -0.786
REMARK  Name = 
REMARK  4 active torsions:
REMARK  status: ('A' for Active; 'I' for Inactive)
REMARK    1  A    between atoms: C_1  and  C_2
REMARK    2  A    between atoms: N_7  and  C_8
REMARK    3  A    between atoms: C_8  and  C_9
REMARK    4  A    between atoms: C_13  and  C_14
REMARK                            x       y       z     vdW  Elec       q    Type
REMARK                         _______ _______ _______ _____ _____    ______ ____
ROOT
ATOM      1  C   UNL     1      44.398   3.947  11.170  0.00  0.00    +0.000 C 
ATOM      2  C   UNL     1      42.966   3.794  11.684  0.00  0.00    +0.000 C 
ATOM      3  C   UNL     1      43.270   4.808  10.633  0.00  0.00    +0.000 C 
ENDROOT
BRANCH   1  10
ATOM      4  C   UNL     1      47.083   0.623   6.583  0.00  0.00    +0.000 C 
ATOM      5  C   UNL     1      46.670   1.873   7.298  0.00  0.00    +0.000 A 
ATOM      6  C   UNL     1      46.911   3.134   6.763  0.00  0.00    +0.000 A 
ATOM      7  C   UNL     1      46.472   4.238   7.476  0.00  0.00    +0.000 A 
ATOM      8  N   UNL     1      45.831   4.174   8.663  0.00  0.00    +0.000 NA
ATOM      9  C   UNL     1      45.618   2.955   9.199  0.00  0.00    +0.000 A 
ATOM     10  N   UNL     1      44.920   2.787  10.421  0.00  0.00    +0.000 N 
ATOM     11  C   UNL     1      46.017   1.790   8.532  0.00  0.00    +0.000 A 
ATOM     12  H   UNL     1      45.435   2.132  11.001  0.00  0.00    +0.000 HD
ENDBRANCH   1  10
BRANCH   1  13
ATOM     13  C   UNL     1      45.409   4.621  12.095  0.00  0.00    +0.000 A 
ATOM     14  C   UNL     1      45.987   3.933  13.171  0.00  0.00    +0.000 A 
ATOM     15  C   UNL     1      46.988   4.515  13.947  0.00  0.00    +0.000 A 
ATOM     16  C   UNL     1      47.447   5.799  13.646  0.00  0.00    +0.000 A 
ATOM     17  C   UNL     1      46.908   6.530  12.576  0.00  0.00    +0.000 A 
ATOM     18  C   UNL     1      45.859   5.934  11.852  0.00  0.00    +0.000 A 
BRANCH  17  19
ATOM     19  C   UNL     1      47.485   7.822  12.140  0.00  0.00    +0.000 A 
ATOM     20  C   UNL     1      46.712   8.999  12.170  0.00  0.00    +0.000 A 
ATOM     21  C   UNL     1      47.269  10.246  11.869  0.00  0.00    +0.000 A 
ATOM     22  C   UNL     1      48.616  10.347  11.540  0.00  0.00    +0.000 A 
ATOM     23  C   UNL     1      49.401   9.199  11.494  0.00  0.00    +0.000 A 
ATOM     24  C   UNL     1      48.840   7.951  11.783  0.00  0.00    +0.000 A 
ENDBRANCH  17  19
ENDBRANCH   1  13
TORSDOF 3
ENDMDL
MODEL 2
REMARK VINA RESULT:    -7.380      1.560      3.654
REMARK INTER + INTRA:          -9.460
REMARK INTER:                  -8.786
REMARK INTRA:                  -0.674
REMARK UNBOUND:                -0.786
REMARK  Name = 
REMARK  4 active torsions:
REMARK  status: ('A' for Active; 'I' for Inactive)
REMARK    1  A    between atoms: C_1  and  C_2
REMARK    2  A    between atoms: N_7  and  C_8
REMARK    3  A    between atoms: C_8  and  C_9
REMARK    4  A    between atoms: C_13  and  C_14
REMARK                            x       y       z     vdW  Elec       q    Type
REMARK                         _______ _______ _______ _____ _____    ______ ____
ROOT
ATOM      1  C   UNL     1      44.480   4.157  11.197  0.00  0.00    +0.000 C 
ATOM      2  C   UNL     1      43.148   3.988  11.927  0.00  0.00    +0.000 C 
ATOM      3  C   UNL     1      43.229   4.879  10.734  0.00  0.00    +0.000 C 
ENDROOT
BRANCH   1  10
ATOM      4  C   UNL     1      46.980   0.495   6.765  0.00  0.00    +0.000 C 
ATOM      5  C   UNL     1      46.588   1.795   7.397  0.00  0.00    +0.000 A 
ATOM      6  C   UNL     1      46.791   3.011   6.753  0.00  0.00    +0.000 A 
ATOM      7  C   UNL     1      46.375   4.166   7.395  0.00  0.00    +0.000 A 
ATOM      8  N   UNL     1      45.791   4.193   8.613  0.00  0.00    +0.000 NA
ATOM      9  C   UNL     1      45.617   3.019   9.255  0.00  0.00    +0.000 A 
ATOM     10  N   UNL     1      44.979   2.944  10.518  0.00  0.00    +0.000 N 
ATOM     11  C   UNL     1      45.996   1.807   8.664  0.00  0.00    +0.000 A 
ATOM     12  H   UNL     1      45.527   2.342  11.123  0.00  0.00    +0.000 HD
ENDBRANCH   1  10
BRANCH   1  13
ATOM     13  C   UNL     1      45.557   4.998  11.880  0.00  0.00    +0.000 A 
ATOM     14  C   UNL     1      45.894   6.275  11.411  0.00  0.00    +0.000 A 
ATOM     15  C   UNL     1      46.799   7.082  12.099  0.00  0.00    +0.000 A 
ATOM     16  C   UNL     1      47.372   6.630  13.289  0.00  0.00    +0.000 A 
ATOM     17  C   UNL     1      47.065   5.362  13.807  0.00  0.00    +0.000 A 
ATOM     18  C   UNL     1      46.194   4.553  13.056  0.00  0.00    +0.000 A 
BRANCH  17  19
ATOM     19  C   UNL     1      47.535   4.927  15.142  0.00  0.00    +0.000 A 
ATOM     20  C   UNL     1      47.274   3.622  15.604  0.00  0.00    +0.000 A 
ATOM     21  C   UNL     1      47.803   3.155  16.812  0.00  0.00    +0.000 A 
ATOM     22  C   UNL     1      48.612   3.981  17.583  0.00  0.00    +0.000 A 
ATOM     23  C   UNL     1      48.879   5.279  17.156  0.00  0.00    +0.000 A 
ATOM     24  C   UNL     1      48.339   5.747  15.953  0.00  0.00    +0.000 A 
ENDBRANCH  17  19
ENDBRANCH   1  13
TORSDOF 3
ENDMDL
MODEL 3
REMARK VINA RESULT:    -6.983      0.891      1.795
REMARK INTER + INTRA:          -8.993
REMARK INTER:                  -9.434
REMARK INTRA:                   0.441
REMARK UNBOUND:                -0.786
REMARK  Name = 
REMARK  4 active torsions:
REMARK  status: ('A' for Active; 'I' for Inactive)
REMARK    1  A    between atoms: C_1  and  C_2
REMARK    2  A    between atoms: N_7  and  C_8
REMARK    3  A    between atoms: C_8  and  C_9
REMARK    4  A    between atoms: C_13  and  C_14
REMARK                            x       y       z     vdW  Elec       q    Type
REMARK                         _______ _______ _______ _____ _____    ______ ____
ROOT
ATOM      1  C   UNL     1      44.387   5.046  10.704  0.00  0.00    +0.000 C 
ATOM      2  C   UNL     1      43.365   3.959  11.036  0.00  0.00    +0.000 C 
ATOM      3  C   UNL     1      42.948   5.391  11.035  0.00  0.00    +0.000 C 
ENDROOT
BRANCH   1  10
ATOM      4  C   UNL     1      46.974   2.928   5.400  0.00  0.00    +0.000 C 
ATOM      5  C   UNL     1      46.416   2.812   6.786  0.00  0.00    +0.000 A 
ATOM      6  C   UNL     1      46.420   1.604   7.476  0.00  0.00    +0.000 A 
ATOM      7  C   UNL     1      45.910   1.588   8.764  0.00  0.00    +0.000 A 
ATOM      8  N   UNL     1      45.399   2.668   9.395  0.00  0.00    +0.000 NA
ATOM      9  C   UNL     1      45.367   3.836   8.721  0.00  0.00    +0.000 A 
ATOM     10  N   UNL     1      44.886   5.029   9.314  0.00  0.00    +0.000 N 
ATOM     11  C   UNL     1      45.879   3.936   7.421  0.00  0.00    +0.000 A 
ATOM     12  H   UNL     1      44.264   5.489   8.658  0.00  0.00    +0.000 HD
ENDBRANCH   1  10
BRANCH   1  13
ATOM     13  C   UNL     1      45.441   5.369  11.761  0.00  0.00    +0.000 A 
ATOM     14  C   UNL     1      45.657   4.525  12.859  0.00  0.00    +0.000 A 
ATOM     15  C   UNL     1      46.691   4.765  13.763  0.00  0.00    +0.000 A 
ATOM     16  C   UNL     1      47.547   5.850  13.571  0.00  0.00    +0.000 A 
ATOM     17  C   UNL     1      47.380   6.723  12.484  0.00  0.00    +0.000 A 
ATOM     18  C   UNL     1      46.291   6.485  11.627  0.00  0.00    +0.000 A 
BRANCH  17  19
ATOM     19  C   UNL     1      48.367   7.783  12.173  0.00  0.00    +0.000 A 
ATOM     20  C   UNL     1      49.685   7.450  11.809  0.00  0.00    +0.000 A 
ATOM     21  C   UNL     1      50.601   8.428  11.404  0.00  0.00    +0.000 A 
ATOM     22  C   UNL     1      50.214   9.762  11.345  0.00  0.00    +0.000 A 
ATOM     23  C   UNL     1      48.919  10.121  11.708  0.00  0.00    +0.000 A 
ATOM     24  C   UNL     1      48.009   9.143  12.124  0.00  0.00    +0.000 A 
ENDBRANCH  17  19
ENDBRANCH   1  13
TORSDOF 3
ENDMDL
MODEL 4
REMARK VINA RESULT:    -6.655      1.786      6.739
REMARK INTER + INTRA:          -8.608
REMARK INTER:                  -7.807
REMARK INTRA:                  -0.801
REMARK UNBOUND:                -0.786
REMARK  Name = 
REMARK  4 active torsions:
REMARK  status: ('A' for Active; 'I' for Inactive)
REMARK    1  A    between atoms: C_1  and  C_2
REMARK    2  A    between atoms: N_7  and  C_8
REMARK    3  A    between atoms: C_8  and  C_9
REMARK    4  A    between atoms: C_13  and  C_14
REMARK                            x       y       z     vdW  Elec       q    Type
REMARK                         _______ _______ _______ _____ _____    ______ ____
ROOT
ATOM      1  C   UNL     1      46.176   5.222  13.377  0.00  0.00    +0.000 C 
ATOM      2  C   UNL     1      46.090   4.332  14.617  0.00  0.00    +0.000 C 
ATOM      3  C   UNL     1      47.266   4.220  13.705  0.00  0.00    +0.000 C 
ENDROOT
BRANCH   1  10
ATOM      4  C   UNL     1      48.480  11.048  13.152  0.00  0.00    +0.000 C 
ATOM      5  C   UNL     1      48.355   9.615  12.733  0.00  0.00    +0.000 A 
ATOM      6  C   UNL     1      49.173   9.066  11.752  0.00  0.00    +0.000 A 
ATOM      7  C   UNL     1      49.010   7.725  11.443  0.00  0.00    +0.000 A 
ATOM      8  N   UNL     1      48.102   6.913  12.026  0.00  0.00    +0.000 NA
ATOM      9  C   UNL     1      47.287   7.446  12.959  0.00  0.00    +0.000 A 
ATOM     10  N   UNL     1      46.330   6.664  13.653  0.00  0.00    +0.000 N 
ATOM     11  C   UNL     1      47.400   8.790  13.338  0.00  0.00    +0.000 A 
ATOM     12  H   UNL     1      45.449   7.167  13.667  0.00  0.00    +0.000 HD
ENDBRANCH   1  10
BRANCH   1  13
ATOM     13  C   UNL     1      45.254   4.888  12.205  0.00  0.00    +0.000 A 
ATOM     14  C   UNL     1      43.970   5.442  12.105  0.00  0.00    +0.000 A 
ATOM     15  C   UNL     1      43.173   5.222  10.983  0.00  0.00    +0.000 A 
ATOM     16  C   UNL     1      43.658   4.453   9.923  0.00  0.00    +0.000 A 
ATOM     17  C   UNL     1      44.939   3.880   9.968  0.00  0.00    +0.000 A 
ATOM     18  C   UNL     1      45.691   4.074  11.141  0.00  0.00    +0.000 A 
BRANCH  17  19
ATOM     19  C   UNL     1      45.533   3.197   8.796  0.00  0.00    +0.000 A 
ATOM     20  C   UNL     1      45.987   3.938   7.689  0.00  0.00    +0.000 A 
ATOM     21  C   UNL     1      46.651   3.325   6.621  0.00  0.00    +0.000 A 
ATOM     22  C   UNL     1      46.884   1.955   6.641  0.00  0.00    +0.000 A 
ATOM     23  C   UNL     1      46.438   1.195   7.719  0.00  0.00    +0.000 A 
ATOM     24  C   UNL     1      45.764   1.809   8.780  0.00  0.00    +0.000 A 
ENDBRANCH  17  19
ENDBRANCH   1  13
TORSDOF 3
ENDMDL
MODEL 5
REMARK VINA RESULT:    -6.381      4.663      7.971
REMARK INTER + INTRA:          -8.286
REMARK INTER:                  -7.508
REMARK INTRA:                  -0.778
REMARK UNBOUND:                -0.786
REMARK  Name = 
REMARK  4 active torsions:
REMARK  status: ('A' for Active; 'I' for Inactive)
REMARK    1  A    between atoms: C_1  and  C_2
REMARK    2  A    between atoms: N_7  and  C_8
REMARK    3  A    between atoms: C_8  and  C_9
REMARK    4  A    between atoms: C_13  and  C_14
REMARK                            x       y       z     vdW  Elec       q    Type
REMARK                         _______ _______ _______ _____ _____    ______ ____
ROOT
ATOM      1  C   UNL     1      49.137   6.135  17.182  0.00  0.00    +0.000 C 
ATOM      2  C   UNL     1      48.509   7.058  18.226  0.00  0.00    +0.000 C 
ATOM      3  C   UNL     1      47.889   5.732  17.942  0.00  0.00    +0.000 C 
ENDROOT
BRANCH   1  10
ATOM      4  C   UNL     1      53.742   2.032  18.309  0.00  0.00    +0.000 C 
ATOM      5  C   UNL     1      52.383   2.463  17.847  0.00  0.00    +0.000 A 
ATOM      6  C   UNL     1      51.437   1.546  17.403  0.00  0.00    +0.000 A 
ATOM      7  C   UNL     1      50.195   2.025  17.019  0.00  0.00    +0.000 A 
ATOM      8  N   UNL     1      49.841   3.328  17.040  0.00  0.00    +0.000 NA
ATOM      9  C   UNL     1      50.763   4.225  17.444  0.00  0.00    +0.000 A 
ATOM     10  N   UNL     1      50.472   5.609  17.536  0.00  0.00    +0.000 N 
ATOM     11  C   UNL     1      52.036   3.818  17.863  0.00  0.00    +0.000 A 
ATOM     12  H   UNL     1      51.233   6.130  17.113  0.00  0.00    +0.000 HD
ENDBRANCH   1  10
BRANCH   1  13
ATOM     13  C   UNL     1      48.967   6.514  15.712  0.00  0.00    +0.000 A 
ATOM     14  C   UNL     1      49.937   7.264  15.033  0.00  0.00    +0.000 A 
ATOM     15  C   UNL     1      49.831   7.516  13.667  0.00  0.00    +0.000 A 
ATOM     16  C   UNL     1      48.753   7.001  12.944  0.00  0.00    +0.000 A 
ATOM     17  C   UNL     1      47.756   6.239  13.573  0.00  0.00    +0.000 A 
ATOM     18  C   UNL     1      47.865   6.055  14.963  0.00  0.00    +0.000 A 
BRANCH  17  19
ATOM     19  C   UNL     1      46.693   5.552  12.803  0.00  0.00    +0.000 A 
ATOM     20  C   UNL     1      46.248   6.073  11.573  0.00  0.00    +0.000 A 
ATOM     21  C   UNL     1      45.327   5.383  10.778  0.00  0.00    +0.000 A 
ATOM     22  C   UNL     1      44.835   4.151  11.191  0.00  0.00    +0.000 A 
ATOM     23  C   UNL     1      45.250   3.616  12.407  0.00  0.00    +0.000 A 
ATOM     24  C   UNL     1      46.162   4.313  13.207  0.00  0.00    +0.000 A 
ENDBRANCH  17  19
ENDBRANCH   1  13
TORSDOF 3
ENDMDL
MODEL 6
REMARK VINA RESULT:    -6.340      3.311      7.751
REMARK INTER + INTRA:          -8.238
REMARK INTER:                  -7.548
REMARK INTRA:                  -0.690
REMARK UNBOUND:                -0.786
REMARK  Name = 
REMARK  4 active torsions:
REMARK  status: ('A' for Active; 'I' for Inactive)
REMARK    1  A    between atoms: C_1  and  C_2
REMARK    2  A    between atoms: N_7  and  C_8
REMARK    3  A    between atoms: C_8  and  C_9
REMARK    4  A    between atoms: C_13  and  C_14
REMARK                            x       y       z     vdW  Elec       q    Type
REMARK                         _______ _______ _______ _____ _____    ______ ____
ROOT
ATOM      1  C   UNL     1      48.883   7.828  12.621  0.00  0.00    +0.000 C 
ATOM      2  C   UNL     1      49.870   7.970  11.463  0.00  0.00    +0.000 C 
ATOM      3  C   UNL     1      49.519   9.163  12.286  0.00  0.00    +0.000 C 
ENDROOT
BRANCH   1  10
ATOM      4  C   UNL     1      50.156   6.038  18.493  0.00  0.00    +0.000 C 
ATOM      5  C   UNL     1      49.562   6.916  17.435  0.00  0.00    +0.000 A 
ATOM      6  C   UNL     1      48.884   8.088  17.753  0.00  0.00    +0.000 A 
ATOM      7  C   UNL     1      48.388   8.857  16.712  0.00  0.00    +0.000 A 
ATOM      8  N   UNL     1      48.512   8.541  15.405  0.00  0.00    +0.000 NA
ATOM      9  C   UNL     1      49.144   7.392  15.091  0.00  0.00    +0.000 A 
ATOM     10  N   UNL     1      49.356   6.997  13.747  0.00  0.00    +0.000 N 
ATOM     11  C   UNL     1      49.688   6.569  16.085  0.00  0.00    +0.000 A 
ATOM     12  H   UNL     1      49.110   6.017  13.654  0.00  0.00    +0.000 HD
ENDBRANCH   1  10
BRANCH   1  13
ATOM     13  C   UNL     1      47.407   7.652  12.271  0.00  0.00    +0.000 A 
ATOM     14  C   UNL     1      46.490   8.702  12.423  0.00  0.00    +0.000 A 
ATOM     15  C   UNL     1      45.167   8.573  12.002  0.00  0.00    +0.000 A 
ATOM     16  C   UNL     1      44.739   7.389  11.400  0.00  0.00    +0.000 A 
ATOM     17  C   UNL     1      45.617   6.308  11.217  0.00  0.00    +0.000 A 
ATOM     18  C   UNL     1      46.927   6.453  11.707  0.00  0.00    +0.000 A 
BRANCH  17  19
ATOM     19  C   UNL     1      45.230   5.108  10.441  0.00  0.00    +0.000 A 
ATOM     20  C   UNL     1      45.608   4.974   9.092  0.00  0.00    +0.000 A 
ATOM     21  C   UNL     1      45.350   3.802   8.373  0.00  0.00    +0.000 A 
ATOM     22  C   UNL     1      44.715   2.732   8.991  0.00  0.00    +0.000 A 
ATOM     23  C   UNL     1      44.321   2.839  10.322  0.00  0.00    +0.000 A 
ATOM     24  C   UNL     1      44.570   4.017  11.036  0.00  0.00    +0.000 A 
ENDBRANCH  17  19
ENDBRANCH   1  13
TORSDOF 3
ENDMDL
MODEL 7
REMARK VINA RESULT:    -5.882      2.083      6.530
REMARK INTER + INTRA:          -7.700
REMARK INTER:                  -8.182
REMARK INTRA:                   0.483
REMARK UNBOUND:                -0.786
REMARK  Name = 
REMARK  4 active torsions:
REMARK  status: ('A' for Active; 'I' for Inactive)
REMARK    1  A    between atoms: C_1  and  C_2
REMARK    2  A    between atoms: N_7  and  C_8
REMARK    3  A    between atoms: C_8  and  C_9
REMARK    4  A    between atoms: C_13  and  C_14
REMARK                            x       y       z     vdW  Elec       q    Type
REMARK                         _______ _______ _______ _____ _____    ______ ____
ROOT
ATOM      1  C   UNL     1      44.931   6.580  12.098  0.00  0.00    +0.000 C 
ATOM      2  C   UNL     1      45.086   7.678  11.046  0.00  0.00    +0.000 C 
ATOM      3  C   UNL     1      43.852   7.623  11.882  0.00  0.00    +0.000 C 
ENDROOT
BRANCH   1  10
ATOM      4  C   UNL     1      50.325   7.249  15.223  0.00  0.00    +0.000 C 
ATOM      5  C   UNL     1      49.436   7.279  14.018  0.00  0.00    +0.000 A 
ATOM      6  C   UNL     1      49.928   7.581  12.753  0.00  0.00    +0.000 A 
ATOM      7  C   UNL     1      49.043   7.561  11.687  0.00  0.00    +0.000 A 
ATOM      8  N   UNL     1      47.728   7.275  11.794  0.00  0.00    +0.000 NA
ATOM      9  C   UNL     1      47.238   7.008  13.022  0.00  0.00    +0.000 A 
ATOM     10  N   UNL     1      45.880   6.659  13.227  0.00  0.00    +0.000 N 
ATOM     11  C   UNL     1      48.072   6.992  14.147  0.00  0.00    +0.000 A 
ATOM     12  H   UNL     1      45.524   7.190  14.014  0.00  0.00    +0.000 HD
ENDBRANCH   1  10
BRANCH   1  13
ATOM     13  C   UNL     1      44.641   5.165  11.602  0.00  0.00    +0.000 A 
ATOM     14  C   UNL     1      43.607   4.395  12.152  0.00  0.00    +0.000 A 
ATOM     15  C   UNL     1      43.275   3.148  11.626  0.00  0.00    +0.000 A 
ATOM     16  C   UNL     1      43.965   2.652  10.518  0.00  0.00    +0.000 A 
ATOM     17  C   UNL     1      45.005   3.384   9.923  0.00  0.00    +0.000 A 
ATOM     18  C   UNL     1      45.351   4.611  10.517  0.00  0.00    +0.000 A 
BRANCH  17  19
ATOM     19  C   UNL     1      45.641   2.954   8.657  0.00  0.00    +0.000 A 
ATOM     20  C   UNL     1      45.966   3.895   7.662  0.00  0.00    +0.000 A 
ATOM     21  C   UNL     1      46.666   3.526   6.508  0.00  0.00    +0.000 A 
ATOM     22  C   UNL     1      47.065   2.207   6.327  0.00  0.00    +0.000 A 
ATOM     23  C   UNL     1      46.749   1.253   7.291  0.00  0.00    +0.000 A 
ATOM     24  C   UNL     1      46.039   1.622   8.438  0.00  0.00    +0.000 A 
ENDBRANCH  17  19
ENDBRANCH   1  13
TORSDOF 3
ENDMDL
MODEL 8
REMARK VINA RESULT:    -5.787      2.810      6.994
REMARK INTER + INTRA:          -7.588
REMARK INTER:                  -6.899
REMARK INTRA:                  -0.689
REMARK UNBOUND:                -0.786
REMARK  Name = 
REMARK  4 active torsions:
REMARK  status: ('A' for Active; 'I' for Inactive)
REMARK    1  A    between atoms: C_1  and  C_2
REMARK    2  A    between atoms: N_7  and  C_8
REMARK    3  A    between atoms: C_8  and  C_9
REMARK    4  A    between atoms: C_13  and  C_14
REMARK                            x       y       z     vdW  Elec       q    Type
REMARK                         _______ _______ _______ _____ _____    ______ ____
ROOT
ATOM      1  C   UNL     1      48.471   8.141  13.493  0.00  0.00    +0.000 C 
ATOM      2  C   UNL     1      48.508   8.073  15.020  0.00  0.00    +0.000 C 
ATOM      3  C   UNL     1      49.070   6.950  14.215  0.00  0.00    +0.000 C 
ENDROOT
BRANCH   1  10
ATOM      4  C   UNL     1      52.933  10.858  10.027  0.00  0.00    +0.000 C 
ATOM      5  C   UNL     1      52.080   9.723  10.504  0.00  0.00    +0.000 A 
ATOM      6  C   UNL     1      52.265   8.425  10.040  0.00  0.00    +0.000 A 
ATOM      7  C   UNL     1      51.451   7.428  10.552  0.00  0.00    +0.000 A 
ATOM      8  N   UNL     1      50.482   7.631  11.471  0.00  0.00    +0.000 NA
ATOM      9  C   UNL     1      50.279   8.892  11.905  0.00  0.00    +0.000 A 
ATOM     10  N   UNL     1      49.312   9.197  12.895  0.00  0.00    +0.000 N 
ATOM     11  C   UNL     1      51.071   9.952  11.446  0.00  0.00    +0.000 A 
ATOM     12  H   UNL     1      48.784  10.009  12.592  0.00  0.00    +0.000 HD
ENDBRANCH   1  10
BRANCH   1  13
ATOM     13  C   UNL     1      47.120   7.935  12.811  0.00  0.00    +0.000 A 
ATOM     14  C   UNL     1      46.192   8.980  12.697  0.00  0.00    +0.000 A 
ATOM     15  C   UNL     1      45.007   8.819  11.981  0.00  0.00    +0.000 A 
ATOM     16  C   UNL     1      44.735   7.606  11.345  0.00  0.00    +0.000 A 
ATOM     17  C   UNL     1      45.632   6.529  11.422  0.00  0.00    +0.000 A 
ATOM     18  C   UNL     1      46.789   6.708  12.202  0.00  0.00    +0.000 A 
BRANCH  17  19
ATOM     19  C   UNL     1      45.442   5.293  10.629  0.00  0.00    +0.000 A 
ATOM     20  C   UNL     1      44.855   4.152  11.208  0.00  0.00    +0.000 A 
ATOM     21  C   UNL     1      44.566   3.013  10.448  0.00  0.00    +0.000 A 
ATOM     22  C   UNL     1      44.849   2.993   9.088  0.00  0.00    +0.000 A 
ATOM     23  C   UNL     1      45.438   4.104   8.490  0.00  0.00    +0.000 A 
ATOM     24  C   UNL     1      45.738   5.237   9.254  0.00  0.00    +0.000 A 
ENDBRANCH  17  19
ENDBRANCH   1  13
TORSDOF 3
ENDMDL
MODEL 9
REMARK VINA RESULT:    -5.414      4.816      8.968
REMARK INTER + INTRA:          -7.149
REMARK INTER:                  -6.632
REMARK INTRA:                  -0.517
REMARK UNBOUND:                -0.786
REMARK  Name = 
REMARK  4 active torsions:
REMARK  status: ('A' for Active; 'I' for Inactive)
REMARK    1  A    between atoms: C_1  and  C_2
REMARK    2  A    between atoms: N_7  and  C_8
REMARK    3  A    between atoms: C_8  and  C_9
REMARK    4  A    between atoms: C_13  and  C_14
REMARK                            x       y       z     vdW  Elec       q    Type
REMARK                         _______ _______ _______ _____ _____    ______ ____
ROOT
ATOM      1  C   UNL     1      48.036   4.549  17.076  0.00  0.00    +0.000 C 
ATOM      2  C   UNL     1      48.095   3.022  17.133  0.00  0.00    +0.000 C 
ATOM      3  C   UNL     1      49.356   3.815  17.214  0.00  0.00    +0.000 C 
ENDROOT
BRANCH   1  10
ATOM      4  C   UNL     1      47.166   8.287  22.033  0.00  0.00    +0.000 C 
ATOM      5  C   UNL     1      47.891   7.766  20.830  0.00  0.00    +0.000 A 
ATOM      6  C   UNL     1      49.136   8.259  20.456  0.00  0.00    +0.000 A 
ATOM      7  C   UNL     1      49.750   7.703  19.346  0.00  0.00    +0.000 A 
ATOM      8  N   UNL     1      49.217   6.716  18.594  0.00  0.00    +0.000 NA
ATOM      9  C   UNL     1      47.998   6.252  18.935  0.00  0.00    +0.000 A 
ATOM     10  N   UNL     1      47.376   5.192  18.230  0.00  0.00    +0.000 N 
ATOM     11  C   UNL     1      47.320   6.752  20.054  0.00  0.00    +0.000 A 
ATOM     12  H   UNL     1      46.410   5.445  18.051  0.00  0.00    +0.000 HD
ENDBRANCH   1  10
BRANCH   1  13
ATOM     13  C   UNL     1      47.735   5.193  15.725  0.00  0.00    +0.000 A 
ATOM     14  C   UNL     1      48.624   6.102  15.134  0.00  0.00    +0.000 A 
ATOM     15  C   UNL     1      48.399   6.605  13.853  0.00  0.00    +0.000 A 
ATOM     16  C   UNL     1      47.281   6.189  13.127  0.00  0.00    +0.000 A 
ATOM     17  C   UNL     1      46.362   5.276  13.668  0.00  0.00    +0.000 A 
ATOM     18  C   UNL     1      46.591   4.836  14.984  0.00  0.00    +0.000 A 
BRANCH  17  19
ATOM     19  C   UNL     1      45.262   4.701  12.861  0.00  0.00    +0.000 A 
ATOM     20  C   UNL     1      43.979   5.280  12.883  0.00  0.00    +0.000 A 
ATOM     21  C   UNL     1      42.955   4.822  12.046  0.00  0.00    +0.000 A 
ATOM     22  C   UNL     1      43.195   3.778  11.160  0.00  0.00    +0.000 A 
ATOM     23  C   UNL     1      44.452   3.181  11.124  0.00  0.00    +0.000 A 
ATOM     24  C   UNL     1      45.470   3.632  11.970  0.00  0.00    +0.000 A 
ENDBRANCH  17  19
ENDBRANCH   1  13
TORSDOF 3
ENDMDL
