MODEL 1
REMARK VINA RESULT:    -8.869      0.000      0.000
REMARK INTER + INTRA:         -14.001
REMARK INTER:                 -12.758
REMARK INTRA:                  -1.242
REMARK UNBOUND:                -1.242
REMARK  Name = 
REMARK  8 active torsions:
REMARK  status: ('A' for Active; 'I' for Inactive)
REMARK    1  A    between atoms: C_2  and  C_27
REMARK    2  A    between atoms: N_3  and  CA_4
REMARK    3  A    between atoms: CA_4  and  C_5
REMARK    4  A    between atoms: CA_4  and  C_7
REMARK    5  A    between atoms: C_5  and  O_6
REMARK    6  A    between atoms: C_11  and  C_12
REMARK    7  A    between atoms: C_12  and  N_13
REMARK    8  A    between atoms: C_14  and  C_16
REMARK                            x       y       z     vdW  Elec       q    Type
REMARK                         _______ _______ _______ _____ _____    ______ ____
ROOT
ATOM      1  C   UNL     1      44.899   7.398  11.771  0.00  0.00    +0.000 A 
ATOM      2  C   UNL     1      44.272   8.587  11.373  0.00  0.00    +0.000 A 
ATOM      3  C   UNL     1      44.908   9.818  11.554  0.00  0.00    +0.000 A 
ATOM      4  C   UNL     1      46.170   9.882  12.147  0.00  0.00    +0.000 A 
ATOM      5  C   UNL     1      46.803   8.716  12.589  0.00  0.00    +0.000 A 
ATOM      6  C   UNL     1      46.164   7.486  12.381  0.00  0.00    +0.000 A 
ENDROOT
BRANCH   1   7
ATOM      7  CA  UNL     1      44.187   6.060  11.583  0.00  0.00    +0.000 C 
BRANCH   7  10
ATOM      8  O   UNL     1      43.297   3.597  10.491  0.00  0.00    +0.000 OA
ATOM      9  C   UNL     1      44.385   4.043  10.153  0.00  0.00    +0.000 C 
ATOM     10  N   UNL     1      44.919   5.216  10.641  0.00  0.00    +0.000 N 
ATOM     11  H   UNL     1      45.586   5.681  10.038  0.00  0.00    +0.000 HD
BRANCH   9  12
ATOM     12  C   UNL     1      45.193   3.356   9.106  0.00  0.00    +0.000 A 
ATOM     13  C   UNL     1      45.800   4.138   8.115  0.00  0.00    +0.000 A 
ATOM     14  C   UNL     1      46.589   3.534   7.132  0.00  0.00    +0.000 A 
ATOM     15  C   UNL     1      46.758   2.150   7.134  0.00  0.00    +0.000 A 
ATOM     16 CL   UNL     1      47.743   1.409   5.933  0.00  0.00    +0.000 Cl
ATOM     17  C   UNL     1      46.138   1.362   8.103  0.00  0.00    +0.000 A 
ATOM     18  C   UNL     1      45.349   1.964   9.090  0.00  0.00    +0.000 A 
ENDBRANCH   9  12
ENDBRANCH   7  10
BRANCH   7  19
ATOM     19  C   UNL     1      43.939   5.370  12.954  0.00  0.00    +0.000 C 
BRANCH  19  20
ATOM     20  O   UNL     1      42.580   5.433  13.404  0.00  0.00    +0.000 OA
ATOM     21  H   UNL     1      42.027   5.678  12.644  0.00  0.00    +0.000 HD
ENDBRANCH  19  20
ENDBRANCH   7  19
ENDBRANCH   1   7
BRANCH   5  22
ATOM     22  C   UNL     1      48.137   8.757  13.293  0.00  0.00    +0.000 C 
BRANCH  22  23
ATOM     23  N   UNL     1      48.164   7.949  14.486  0.00  0.00    +0.000 N 
ATOM     24  C   UNL     1      49.317   7.396  14.985  0.00  0.00    +0.000 C 
ATOM     25  O   UNL     1      50.421   7.611  14.484  0.00  0.00    +0.000 OA
ATOM     26  H   UNL     1      47.269   7.629  14.836  0.00  0.00    +0.000 HD
BRANCH  24  27
ATOM     27  C   UNL     1      49.176   6.570  16.192  0.00  0.00    +0.000 A 
ATOM     28  C   UNL     1      49.860   6.924  17.347  0.00  0.00    +0.000 A 
ATOM     29  S   UNL     1      49.558   5.891  18.669  0.00  0.00    +0.000 S 
ATOM     30  C   UNL     1      48.541   4.900  17.732  0.00  0.00    +0.000 A 
ATOM     31  N   UNL     1      47.959   3.794  18.268  0.00  0.00    +0.000 NA
ATOM     32  C   UNL     1      47.247   3.109  17.437  0.00  0.00    +0.000 A 
ATOM     33  N   UNL     1      47.059   3.434  16.118  0.00  0.00    +0.000 N 
ATOM     34  C   UNL     1      47.584   4.570  15.547  0.00  0.00    +0.000 A 
ATOM     35  O   UNL     1      47.328   4.878  14.388  0.00  0.00    +0.000 OA
ATOM     36  C   UNL     1      48.419   5.362  16.433  0.00  0.00    +0.000 A 
ATOM     37  H   UNL     1      46.476   2.862  15.526  0.00  0.00    +0.000 HD
ENDBRANCH  24  27
ENDBRANCH  22  23
ENDBRANCH   5  22
TORSDOF 8
ENDMDL
MODEL 2
REMARK VINA RESULT:    -8.354      3.385      5.782
REMARK INTER + INTRA:         -13.259
REMARK INTER:                 -11.996
REMARK INTRA:                  -1.263
REMARK UNBOUND:                -1.242
REMARK  Name = 
REMARK  8 active torsions:
REMARK  status: ('A' for Active; 'I' for Inactive)
REMARK    1  A    between atoms: C_2  and  C_27
REMARK    2  A    between atoms: N_3  and  CA_4
REMARK    3  A    between atoms: CA_4  and  C_5
REMARK    4  A    between atoms: CA_4  and  C_7
REMARK    5  A    between atoms: C_5  and  O_6
REMARK    6  A    between atoms: C_11  and  C_12
REMARK    7  A    between atoms: C_12  and  N_13
REMARK    8  A    between atoms: C_14  and  C_16
REMARK                            x       y       z     vdW  Elec       q    Type
REMARK                         _______ _______ _______ _____ _____    ______ ____
ROOT
ATOM      1  C   UNL     1      45.326   4.656  12.018  0.00  0.00    +0.000 A 
ATOM      2  C   UNL     1      45.841   3.536  12.684  0.00  0.00    +0.000 A 
ATOM      3  C   UNL     1      46.834   3.684  13.657  0.00  0.00    +0.000 A 
ATOM      4  C   UNL     1      47.336   4.949  13.967  0.00  0.00    +0.000 A 
ATOM      5  C   UNL     1      46.869   6.080  13.290  0.00  0.00    +0.000 A 
ATOM      6  C   UNL     1      45.857   5.920  12.334  0.00  0.00    +0.000 A 
ENDROOT
BRANCH   1   7
ATOM      7  CA  UNL     1      44.253   4.480  10.945  0.00  0.00    +0.000 C 
BRANCH   7  10
ATOM      8  O   UNL     1      45.852   5.383   8.782  0.00  0.00    +0.000 OA
ATOM      9  C   UNL     1      45.548   4.200   8.848  0.00  0.00    +0.000 C 
ATOM     10  N   UNL     1      44.758   3.665   9.842  0.00  0.00    +0.000 N 
ATOM     11  H   UNL     1      44.892   2.679  10.030  0.00  0.00    +0.000 HD
BRANCH   9  12
ATOM     12  C   UNL     1      46.089   3.223   7.861  0.00  0.00    +0.000 A 
ATOM     13  C   UNL     1      46.212   1.883   8.252  0.00  0.00    +0.000 A 
ATOM     14  C   UNL     1      46.689   0.931   7.347  0.00  0.00    +0.000 A 
ATOM     15  C   UNL     1      47.054   1.322   6.060  0.00  0.00    +0.000 A 
ATOM     16 CL   UNL     1      47.626   0.146   4.941  0.00  0.00    +0.000 Cl
ATOM     17  C   UNL     1      46.958   2.657   5.671  0.00  0.00    +0.000 A 
ATOM     18  C   UNL     1      46.479   3.613   6.574  0.00  0.00    +0.000 A 
ENDBRANCH   9  12
ENDBRANCH   7  10
BRANCH   7  19
ATOM     19  C   UNL     1      42.940   3.922  11.564  0.00  0.00    +0.000 C 
BRANCH  19  20
ATOM     20  O   UNL     1      42.838   2.493  11.532  0.00  0.00    +0.000 OA
ATOM     21  H   UNL     1      42.911   2.170  12.444  0.00  0.00    +0.000 HD
ENDBRANCH  19  20
ENDBRANCH   7  19
ENDBRANCH   1   7
BRANCH   5  22
ATOM     22  C   UNL     1      47.438   7.452  13.556  0.00  0.00    +0.000 C 
BRANCH  22  23
ATOM     23  N   UNL     1      46.588   8.512  13.073  0.00  0.00    +0.000 N 
ATOM     24  C   UNL     1      47.015   9.457  12.173  0.00  0.00    +0.000 C 
ATOM     25  O   UNL     1      48.135   9.424  11.665  0.00  0.00    +0.000 OA
ATOM     26  H   UNL     1      45.720   8.660  13.573  0.00  0.00    +0.000 HD
BRANCH  24  27
ATOM     27  C   UNL     1      46.040  10.492  11.801  0.00  0.00    +0.000 A 
ATOM     28  C   UNL     1      46.383  11.831  11.925  0.00  0.00    +0.000 A 
ATOM     29  S   UNL     1      45.161  12.904  11.414  0.00  0.00    +0.000 S 
ATOM     30  C   UNL     1      44.106  11.618  11.057  0.00  0.00    +0.000 A 
ATOM     31  N   UNL     1      42.850  11.855  10.591  0.00  0.00    +0.000 NA
ATOM     32  C   UNL     1      42.141  10.793  10.403  0.00  0.00    +0.000 A 
ATOM     33  N   UNL     1      42.577   9.513  10.632  0.00  0.00    +0.000 N 
ATOM     34  C   UNL     1      43.854   9.223  11.052  0.00  0.00    +0.000 A 
ATOM     35  O   UNL     1      44.241   8.065  11.165  0.00  0.00    +0.000 OA
ATOM     36  C   UNL     1      44.685  10.386  11.307  0.00  0.00    +0.000 A 
ATOM     37  H   UNL     1      41.974   8.725  10.449  0.00  0.00    +0.000 HD
ENDBRANCH  24  27
ENDBRANCH  22  23
ENDBRANCH   5  22
TORSDOF 8
ENDMDL
MODEL 3
REMARK VINA RESULT:    -8.269      2.792      3.613
REMARK INTER + INTRA:         -13.137
REMARK INTER:                 -12.158
REMARK INTRA:                  -0.979
REMARK UNBOUND:                -1.242
REMARK  Name = 
REMARK  8 active torsions:
REMARK  status: ('A' for Active; 'I' for Inactive)
REMARK    1  A    between atoms: C_2  and  C_27
REMARK    2  A    between atoms: N_3  and  CA_4
REMARK    3  A    between atoms: CA_4  and  C_5
REMARK    4  A    between atoms: CA_4  and  C_7
REMARK    5  A    between atoms: C_5  and  O_6
REMARK    6  A    between atoms: C_11  and  C_12
REMARK    7  A    between atoms: C_12  and  N_13
REMARK    8  A    between atoms: C_14  and  C_16
REMARK                            x       y       z     vdW  Elec       q    Type
REMARK                         _______ _______ _______ _____ _____    ______ ____
ROOT
ATOM      1  C   UNL     1      46.040   5.407  12.907  0.00  0.00    +0.000 A 
ATOM      2  C   UNL     1      46.892   6.482  12.625  0.00  0.00    +0.000 A 
ATOM      3  C   UNL     1      47.914   6.830  13.513  0.00  0.00    +0.000 A 
ATOM      4  C   UNL     1      48.089   6.119  14.702  0.00  0.00    +0.000 A 
ATOM      5  C   UNL     1      47.228   5.066  15.029  0.00  0.00    +0.000 A 
ATOM      6  C   UNL     1      46.223   4.713  14.118  0.00  0.00    +0.000 A 
ENDROOT
BRANCH   1   7
ATOM      7  CA  UNL     1      44.917   5.048  11.936  0.00  0.00    +0.000 C 
BRANCH   7  10
ATOM      8  O   UNL     1      43.730   4.657   9.388  0.00  0.00    +0.000 OA
ATOM      9  C   UNL     1      44.772   4.076   9.659  0.00  0.00    +0.000 C 
ATOM     10  N   UNL     1      45.415   4.178  10.873  0.00  0.00    +0.000 N 
ATOM     11  H   UNL     1      46.412   4.002  10.860  0.00  0.00    +0.000 HD
BRANCH   9  12
ATOM     12  C   UNL     1      45.465   3.248   8.631  0.00  0.00    +0.000 A 
ATOM     13  C   UNL     1      45.924   3.881   7.468  0.00  0.00    +0.000 A 
ATOM     14  C   UNL     1      46.603   3.146   6.493  0.00  0.00    +0.000 A 
ATOM     15  C   UNL     1      46.811   1.779   6.677  0.00  0.00    +0.000 A 
ATOM     16 CL   UNL     1      47.662   0.877   5.483  0.00  0.00    +0.000 Cl
ATOM     17  C   UNL     1      46.337   1.137   7.820  0.00  0.00    +0.000 A 
ATOM     18  C   UNL     1      45.658   1.871   8.799  0.00  0.00    +0.000 A 
ENDBRANCH   9  12
ENDBRANCH   7  10
BRANCH   7  19
ATOM     19  C   UNL     1      43.700   4.446  12.696  0.00  0.00    +0.000 C 
BRANCH  19  20
ATOM     20  O   UNL     1      42.839   5.425  13.289  0.00  0.00    +0.000 OA
ATOM     21  H   UNL     1      42.213   5.721  12.608  0.00  0.00    +0.000 HD
ENDBRANCH  19  20
ENDBRANCH   7  19
ENDBRANCH   1   7
BRANCH   5  22
ATOM     22  C   UNL     1      47.350   4.320  16.335  0.00  0.00    +0.000 C 
BRANCH  22  23
ATOM     23  N   UNL     1      48.718   4.038  16.691  0.00  0.00    +0.000 N 
ATOM     24  C   UNL     1      49.289   4.475  17.861  0.00  0.00    +0.000 C 
ATOM     25  O   UNL     1      48.648   5.081  18.719  0.00  0.00    +0.000 OA
ATOM     26  H   UNL     1      49.312   3.677  15.954  0.00  0.00    +0.000 HD
BRANCH  24  27
ATOM     27  C   UNL     1      50.702   4.133  18.065  0.00  0.00    +0.000 A 
ATOM     28  C   UNL     1      51.569   5.085  18.584  0.00  0.00    +0.000 A 
ATOM     29  S   UNL     1      53.163   4.520  18.800  0.00  0.00    +0.000 S 
ATOM     30  C   UNL     1      52.767   2.996  18.157  0.00  0.00    +0.000 A 
ATOM     31  N   UNL     1      53.712   2.025  18.033  0.00  0.00    +0.000 NA
ATOM     32  C   UNL     1      53.287   0.933  17.491  0.00  0.00    +0.000 A 
ATOM     33  N   UNL     1      52.001   0.721  17.068  0.00  0.00    +0.000 N 
ATOM     34  C   UNL     1      51.001   1.653  17.221  0.00  0.00    +0.000 A 
ATOM     35  O   UNL     1      49.841   1.402  16.911  0.00  0.00    +0.000 OA
ATOM     36  C   UNL     1      51.432   2.913  17.800  0.00  0.00    +0.000 A 
ATOM     37  H   UNL     1      51.731  -0.165  16.665  0.00  0.00    +0.000 HD
ENDBRANCH  24  27
ENDBRANCH  22  23
ENDBRANCH   5  22
TORSDOF 8
ENDMDL
MODEL 4
REMARK VINA RESULT:    -8.206      2.126      2.994
REMARK INTER + INTRA:         -13.046
REMARK INTER:                 -12.000
REMARK INTRA:                  -1.046
REMARK UNBOUND:                -1.242
REMARK  Name = 
REMARK  8 active torsions:
REMARK  status: ('A' for Active; 'I' for Inactive)
REMARK    1  A    between atoms: C_2  and  C_27
REMARK    2  A    between atoms: N_3  and  CA_4
REMARK    3  A    between atoms: CA_4  and  C_5
REMARK    4  A    between atoms: CA_4  and  C_7
REMARK    5  A    between atoms: C_5  and  O_6
REMARK    6  A    between atoms: C_11  and  C_12
REMARK    7  A    between atoms: C_12  and  N_13
REMARK    8  A    between atoms: C_14  and  C_16
REMARK                            x       y       z     vdW  Elec       q    Type
REMARK                         _______ _______ _______ _____ _____    ______ ____
ROOT
ATOM      1  C   UNL     1      45.458   4.813  11.972  0.00  0.00    +0.000 A 
ATOM      2  C   UNL     1      45.708   3.634  12.687  0.00  0.00    +0.000 A 
ATOM      3  C   UNL     1      46.655   3.614  13.714  0.00  0.00    +0.000 A 
ATOM      4  C   UNL     1      47.376   4.767  14.032  0.00  0.00    +0.000 A 
ATOM      5  C   UNL     1      47.176   5.948  13.310  0.00  0.00    +0.000 A 
ATOM      6  C   UNL     1      46.207   5.959  12.297  0.00  0.00    +0.000 A 
ENDROOT
BRANCH   1   7
ATOM      7  CA  UNL     1      44.432   4.817  10.840  0.00  0.00    +0.000 C 
BRANCH   7  10
ATOM      8  O   UNL     1      46.135   5.445   8.659  0.00  0.00    +0.000 OA
ATOM      9  C   UNL     1      45.693   4.309   8.766  0.00  0.00    +0.000 C 
ATOM     10  N   UNL     1      44.842   3.908   9.772  0.00  0.00    +0.000 N 
ATOM     11  H   UNL     1      44.858   2.921   9.997  0.00  0.00    +0.000 HD
BRANCH   9  12
ATOM     12  C   UNL     1      46.120   3.239   7.820  0.00  0.00    +0.000 A 
ATOM     13  C   UNL     1      46.392   3.597   6.492  0.00  0.00    +0.000 A 
ATOM     14  C   UNL     1      46.821   2.629   5.581  0.00  0.00    +0.000 A 
ATOM     15  C   UNL     1      46.965   1.305   5.994  0.00  0.00    +0.000 A 
ATOM     16 CL   UNL     1      47.509   0.116   4.875  0.00  0.00    +0.000 Cl
ATOM     17  C   UNL     1      46.672   0.936   7.306  0.00  0.00    +0.000 A 
ATOM     18  C   UNL     1      46.244   1.904   8.222  0.00  0.00    +0.000 A 
ENDBRANCH   9  12
ENDBRANCH   7  10
BRANCH   7  19
ATOM     19  C   UNL     1      43.007   4.514  11.386  0.00  0.00    +0.000 C 
BRANCH  19  20
ATOM     20  O   UNL     1      42.673   3.121  11.408  0.00  0.00    +0.000 OA
ATOM     21  H   UNL     1      42.579   2.853  12.337  0.00  0.00    +0.000 HD
ENDBRANCH  19  20
ENDBRANCH   7  19
ENDBRANCH   1   7
BRANCH   5  22
ATOM     22  C   UNL     1      47.985   7.191  13.585  0.00  0.00    +0.000 C 
BRANCH  22  23
ATOM     23  N   UNL     1      47.981   7.562  14.978  0.00  0.00    +0.000 N 
ATOM     24  C   UNL     1      48.968   7.180  15.854  0.00  0.00    +0.000 C 
ATOM     25  O   UNL     1      49.961   6.550  15.492  0.00  0.00    +0.000 OA
ATOM     26  H   UNL     1      47.118   7.947  15.341  0.00  0.00    +0.000 HD
BRANCH  24  27
ATOM     27  C   UNL     1      48.805   7.611  17.248  0.00  0.00    +0.000 A 
ATOM     28  C   UNL     1      49.268   8.862  17.636  0.00  0.00    +0.000 A 
ATOM     29  S   UNL     1      48.966   9.229  19.273  0.00  0.00    +0.000 S 
ATOM     30  C   UNL     1      48.252   7.708  19.539  0.00  0.00    +0.000 A 
ATOM     31  N   UNL     1      47.790   7.360  20.771  0.00  0.00    +0.000 NA
ATOM     32  C   UNL     1      47.311   6.164  20.843  0.00  0.00    +0.000 A 
ATOM     33  N   UNL     1      47.246   5.285  19.793  0.00  0.00    +0.000 N 
ATOM     34  C   UNL     1      47.652   5.610  18.520  0.00  0.00    +0.000 A 
ATOM     35  O   UNL     1      47.503   4.832  17.584  0.00  0.00    +0.000 OA
ATOM     36  C   UNL     1      48.227   6.938  18.390  0.00  0.00    +0.000 A 
ATOM     37  H   UNL     1      46.845   4.367  19.915  0.00  0.00    +0.000 HD
ENDBRANCH  24  27
ENDBRANCH  22  23
ENDBRANCH   5  22
TORSDOF 8
ENDMDL
MODEL 5
REMARK VINA RESULT:    -7.532      3.960      8.194
REMARK INTER + INTRA:         -12.077
REMARK INTER:                 -10.764
REMARK INTRA:                  -1.314
REMARK UNBOUND:                -1.242
REMARK  Name = 
REMARK  8 active torsions:
REMARK  status: ('A' for Active; 'I' for Inactive)
REMARK    1  A    between atoms: C_2  and  C_27
REMARK    2  A    between atoms: N_3  and  CA_4
REMARK    3  A    between atoms: CA_4  and  C_5
REMARK    4  A    between atoms: CA_4  and  C_7
REMARK    5  A    between atoms: C_5  and  O_6
REMARK    6  A    between atoms: C_11  and  C_12
REMARK    7  A    between atoms: C_12  and  N_13
REMARK    8  A    between atoms: C_14  and  C_16
REMARK                            x       y       z     vdW  Elec       q    Type
REMARK                         _______ _______ _______ _____ _____    ______ ____
ROOT
ATOM      1  C   UNL     1      49.194   7.101  15.211  0.00  0.00    +0.000 A 
ATOM      2  C   UNL     1      50.474   7.649  15.048  0.00  0.00    +0.000 A 
ATOM      3  C   UNL     1      50.810   8.330  13.875  0.00  0.00    +0.000 A 
ATOM      4  C   UNL     1      49.879   8.460  12.842  0.00  0.00    +0.000 A 
ATOM      5  C   UNL     1      48.607   7.889  12.961  0.00  0.00    +0.000 A 
ATOM      6  C   UNL     1      48.276   7.229  14.152  0.00  0.00    +0.000 A 
ENDROOT
BRANCH   1   7
ATOM      7  CA  UNL     1      48.845   6.345  16.491  0.00  0.00    +0.000 C 
BRANCH   7  10
ATOM      8  O   UNL     1      48.524   3.958  17.994  0.00  0.00    +0.000 OA
ATOM      9  C   UNL     1      49.627   4.239  17.543  0.00  0.00    +0.000 C 
ATOM     10  N   UNL     1      49.894   5.382  16.823  0.00  0.00    +0.000 N 
ATOM     11  H   UNL     1      50.679   5.330  16.186  0.00  0.00    +0.000 HD
BRANCH   9  12
ATOM     12  C   UNL     1      50.770   3.293  17.695  0.00  0.00    +0.000 A 
ATOM     13  C   UNL     1      51.942   3.760  18.304  0.00  0.00    +0.000 A 
ATOM     14  C   UNL     1      53.025   2.898  18.490  0.00  0.00    +0.000 A 
ATOM     15  C   UNL     1      52.939   1.576  18.057  0.00  0.00    +0.000 A 
ATOM     16 CL   UNL     1      54.268   0.509  18.301  0.00  0.00    +0.000 Cl
ATOM     17  C   UNL     1      51.785   1.109  17.428  0.00  0.00    +0.000 A 
ATOM     18  C   UNL     1      50.698   1.970  17.241  0.00  0.00    +0.000 A 
ENDBRANCH   9  12
ENDBRANCH   7  10
BRANCH   7  19
ATOM     19  C   UNL     1      48.538   7.335  17.651  0.00  0.00    +0.000 C 
BRANCH  19  20
ATOM     20  O   UNL     1      47.412   6.963  18.455  0.00  0.00    +0.000 OA
ATOM     21  H   UNL     1      46.902   7.767  18.642  0.00  0.00    +0.000 HD
ENDBRANCH  19  20
ENDBRANCH   7  19
ENDBRANCH   1   7
BRANCH   5  22
ATOM     22  C   UNL     1      47.602   7.955  11.838  0.00  0.00    +0.000 C 
BRANCH  22  23
ATOM     23  N   UNL     1      46.869   6.726  11.672  0.00  0.00    +0.000 N 
ATOM     24  C   UNL     1      45.496   6.673  11.659  0.00  0.00    +0.000 C 
ATOM     25  O   UNL     1      44.798   7.684  11.719  0.00  0.00    +0.000 OA
ATOM     26  H   UNL     1      47.397   5.867  11.769  0.00  0.00    +0.000 HD
BRANCH  24  27
ATOM     27  C   UNL     1      44.896   5.340  11.513  0.00  0.00    +0.000 A 
ATOM     28  C   UNL     1      44.191   4.787  12.574  0.00  0.00    +0.000 A 
ATOM     29  S   UNL     1      43.522   3.257  12.231  0.00  0.00    +0.000 S 
ATOM     30  C   UNL     1      44.194   3.253  10.669  0.00  0.00    +0.000 A 
ATOM     31  N   UNL     1      44.016   2.191   9.836  0.00  0.00    +0.000 NA
ATOM     32  C   UNL     1      44.615   2.299   8.698  0.00  0.00    +0.000 A 
ATOM     33  N   UNL     1      45.370   3.376   8.313  0.00  0.00    +0.000 N 
ATOM     34  C   UNL     1      45.534   4.493   9.099  0.00  0.00    +0.000 A 
ATOM     35  O   UNL     1      46.145   5.476   8.692  0.00  0.00    +0.000 OA
ATOM     36  C   UNL     1      44.904   4.411  10.405  0.00  0.00    +0.000 A 
ATOM     37  H   UNL     1      45.800   3.403   7.400  0.00  0.00    +0.000 HD
ENDBRANCH  24  27
ENDBRANCH  22  23
ENDBRANCH   5  22
TORSDOF 8
ENDMDL
MODEL 6
REMARK VINA RESULT:    -7.491      2.429      3.276
REMARK INTER + INTRA:         -12.018
REMARK INTER:                 -10.755
REMARK INTRA:                  -1.263
REMARK UNBOUND:                -1.242
REMARK  Name = 
REMARK  8 active torsions:
REMARK  status: ('A' for Active; 'I' for Inactive)
REMARK    1  A    between atoms: C_2  and  C_27
REMARK    2  A    between atoms: N_3  and  CA_4
REMARK    3  A    between atoms: CA_4  and  C_5
REMARK    4  A    between atoms: CA_4  and  C_7
REMARK    5  A    between atoms: C_5  and  O_6
REMARK    6  A    between atoms: C_11  and  C_12
REMARK    7  A    between atoms: C_12  and  N_13
REMARK    8  A    between atoms: C_14  and  C_16
REMARK                            x       y       z     vdW  Elec       q    Type
REMARK                         _______ _______ _______ _____ _____    ______ ____
ROOT
ATOM      1  C   UNL     1      45.360   5.201  12.001  0.00  0.00    +0.000 A 
ATOM      2  C   UNL     1      45.531   4.076  12.818  0.00  0.00    +0.000 A 
ATOM      3  C   UNL     1      46.468   4.089  13.855  0.00  0.00    +0.000 A 
ATOM      4  C   UNL     1      47.257   5.218  14.081  0.00  0.00    +0.000 A 
ATOM      5  C   UNL     1      47.136   6.341  13.256  0.00  0.00    +0.000 A 
ATOM      6  C   UNL     1      46.176   6.323  12.234  0.00  0.00    +0.000 A 
ENDROOT
BRANCH   1   7
ATOM      7  CA  UNL     1      44.344   5.168  10.860  0.00  0.00    +0.000 C 
BRANCH   7  10
ATOM      8  O   UNL     1      46.185   5.607   8.746  0.00  0.00    +0.000 OA
ATOM      9  C   UNL     1      45.665   4.506   8.868  0.00  0.00    +0.000 C 
ATOM     10  N   UNL     1      44.743   4.197   9.844  0.00  0.00    +0.000 N 
ATOM     11  H   UNL     1      44.684   3.220  10.102  0.00  0.00    +0.000 HD
BRANCH   9  12
ATOM     12  C   UNL     1      46.064   3.377   7.980  0.00  0.00    +0.000 A 
ATOM     13  C   UNL     1      46.434   3.670   6.660  0.00  0.00    +0.000 A 
ATOM     14  C   UNL     1      46.841   2.643   5.804  0.00  0.00    +0.000 A 
ATOM     15  C   UNL     1      46.866   1.327   6.264  0.00  0.00    +0.000 A 
ATOM     16 CL   UNL     1      47.384   0.066   5.214  0.00  0.00    +0.000 Cl
ATOM     17  C   UNL     1      46.477   1.025   7.568  0.00  0.00    +0.000 A 
ATOM     18  C   UNL     1      46.070   2.051   8.429  0.00  0.00    +0.000 A 
ENDBRANCH   9  12
ENDBRANCH   7  10
BRANCH   7  19
ATOM     19  C   UNL     1      42.909   4.924  11.407  0.00  0.00    +0.000 C 
BRANCH  19  20
ATOM     20  O   UNL     1      42.171   6.124  11.670  0.00  0.00    +0.000 OA
ATOM     21  H   UNL     1      41.240   5.879  11.791  0.00  0.00    +0.000 HD
ENDBRANCH  19  20
ENDBRANCH   7  19
ENDBRANCH   1   7
BRANCH   5  22
ATOM     22  C   UNL     1      48.018   7.552  13.432  0.00  0.00    +0.000 C 
BRANCH  22  23
ATOM     23  N   UNL     1      49.278   7.238  14.058  0.00  0.00    +0.000 N 
ATOM     24  C   UNL     1      50.004   8.158  14.775  0.00  0.00    +0.000 C 
ATOM     25  O   UNL     1      49.593   9.298  14.989  0.00  0.00    +0.000 OA
ATOM     26  H   UNL     1      49.716   6.367  13.783  0.00  0.00    +0.000 HD
BRANCH  24  27
ATOM     27  C   UNL     1      51.284   7.693  15.326  0.00  0.00    +0.000 A 
ATOM     28  C   UNL     1      52.456   8.355  14.985  0.00  0.00    +0.000 A 
ATOM     29  S   UNL     1      53.847   7.721  15.739  0.00  0.00    +0.000 S 
ATOM     30  C   UNL     1      52.942   6.503  16.509  0.00  0.00    +0.000 A 
ATOM     31  N   UNL     1      53.548   5.581  17.304  0.00  0.00    +0.000 NA
ATOM     32  C   UNL     1      52.751   4.689  17.790  0.00  0.00    +0.000 A 
ATOM     33  N   UNL     1      51.401   4.639  17.558  0.00  0.00    +0.000 N 
ATOM     34  C   UNL     1      50.738   5.579  16.804  0.00  0.00    +0.000 A 
ATOM     35  O   UNL     1      49.517   5.556  16.685  0.00  0.00    +0.000 OA
ATOM     36  C   UNL     1      51.593   6.591  16.209  0.00  0.00    +0.000 A 
ATOM     37  H   UNL     1      50.833   3.922  17.983  0.00  0.00    +0.000 HD
ENDBRANCH  24  27
ENDBRANCH  22  23
ENDBRANCH   5  22
TORSDOF 8
ENDMDL
MODEL 7
REMARK VINA RESULT:    -7.395      4.509      9.659
REMARK INTER + INTRA:         -11.880
REMARK INTER:                 -10.553
REMARK INTRA:                  -1.327
REMARK UNBOUND:                -1.242
REMARK  Name = 
REMARK  8 active torsions:
REMARK  status: ('A' for Active; 'I' for Inactive)
REMARK    1  A    between atoms: C_2  and  C_27
REMARK    2  A    between atoms: N_3  and  CA_4
REMARK    3  A    between atoms: CA_4  and  C_5
REMARK    4  A    between atoms: CA_4  and  C_7
REMARK    5  A    between atoms: C_5  and  O_6
REMARK    6  A    between atoms: C_11  and  C_12
REMARK    7  A    between atoms: C_12  and  N_13
REMARK    8  A    between atoms: C_14  and  C_16
REMARK                            x       y       z     vdW  Elec       q    Type
REMARK                         _______ _______ _______ _____ _____    ______ ____
ROOT
ATOM      1  C   UNL     1      50.700   4.299  18.081  0.00  0.00    +0.000 A 
ATOM      2  C   UNL     1      51.438   3.154  17.751  0.00  0.00    +0.000 A 
ATOM      3  C   UNL     1      50.820   2.065  17.131  0.00  0.00    +0.000 A 
ATOM      4  C   UNL     1      49.454   2.097  16.845  0.00  0.00    +0.000 A 
ATOM      5  C   UNL     1      48.684   3.210  17.198  0.00  0.00    +0.000 A 
ATOM      6  C   UNL     1      49.321   4.304  17.799  0.00  0.00    +0.000 A 
ENDROOT
BRANCH   1   7
ATOM      7  CA  UNL     1      51.384   5.476  18.773  0.00  0.00    +0.000 C 
BRANCH   7  10
ATOM      8  O   UNL     1      50.729   7.849  17.362  0.00  0.00    +0.000 OA
ATOM      9  C   UNL     1      50.142   7.590  18.404  0.00  0.00    +0.000 C 
ATOM     10  N   UNL     1      50.401   6.479  19.175  0.00  0.00    +0.000 N 
ATOM     11  H   UNL     1      49.637   6.157  19.757  0.00  0.00    +0.000 HD
BRANCH   9  12
ATOM     12  C   UNL     1      49.026   8.457  18.879  0.00  0.00    +0.000 A 
ATOM     13  C   UNL     1      48.361   8.097  20.059  0.00  0.00    +0.000 A 
ATOM     14  C   UNL     1      47.329   8.898  20.553  0.00  0.00    +0.000 A 
ATOM     15  C   UNL     1      46.955  10.050  19.861  0.00  0.00    +0.000 A 
ATOM     16 CL   UNL     1      45.694  11.045  20.479  0.00  0.00    +0.000 Cl
ATOM     17  C   UNL     1      47.596  10.402  18.674  0.00  0.00    +0.000 A 
ATOM     18  C   UNL     1      48.631   9.603  18.177  0.00  0.00    +0.000 A 
ENDBRANCH   9  12
ENDBRANCH   7  10
BRANCH   7  19
ATOM     19  C   UNL     1      52.270   4.983  19.952  0.00  0.00    +0.000 C 
BRANCH  19  20
ATOM     20  O   UNL     1      51.535   4.387  21.028  0.00  0.00    +0.000 OA
ATOM     21  H   UNL     1      50.640   4.195  20.705  0.00  0.00    +0.000 HD
ENDBRANCH  19  20
ENDBRANCH   7  19
ENDBRANCH   1   7
BRANCH   5  22
ATOM     22  C   UNL     1      47.194   3.249  16.962  0.00  0.00    +0.000 C 
BRANCH  22  23
ATOM     23  N   UNL     1      46.810   4.235  15.984  0.00  0.00    +0.000 N 
ATOM     24  C   UNL     1      46.929   4.029  14.631  0.00  0.00    +0.000 C 
ATOM     25  O   UNL     1      47.309   2.957  14.160  0.00  0.00    +0.000 OA
ATOM     26  H   UNL     1      46.636   5.171  16.329  0.00  0.00    +0.000 HD
BRANCH  24  27
ATOM     27  C   UNL     1      46.524   5.142  13.763  0.00  0.00    +0.000 A 
ATOM     28  C   UNL     1      47.374   6.227  13.600  0.00  0.00    +0.000 A 
ATOM     29  S   UNL     1      46.779   7.413  12.530  0.00  0.00    +0.000 S 
ATOM     30  C   UNL     1      45.337   6.545  12.284  0.00  0.00    +0.000 A 
ATOM     31  N   UNL     1      44.358   7.033  11.475  0.00  0.00    +0.000 NA
ATOM     32  C   UNL     1      43.300   6.296  11.412  0.00  0.00    +0.000 A 
ATOM     33  N   UNL     1      43.134   5.111  12.079  0.00  0.00    +0.000 N 
ATOM     34  C   UNL     1      44.115   4.553  12.866  0.00  0.00    +0.000 A 
ATOM     35  O   UNL     1      43.969   3.450  13.382  0.00  0.00    +0.000 OA
ATOM     36  C   UNL     1      45.317   5.357  12.995  0.00  0.00    +0.000 A 
ATOM     37  H   UNL     1      42.286   4.575  11.973  0.00  0.00    +0.000 HD
ENDBRANCH  24  27
ENDBRANCH  22  23
ENDBRANCH   5  22
TORSDOF 8
ENDMDL
MODEL 8
REMARK VINA RESULT:    -7.392      1.624      2.244
REMARK INTER + INTRA:         -11.875
REMARK INTER:                 -11.153
REMARK INTRA:                  -0.722
REMARK UNBOUND:                -1.242
REMARK  Name = 
REMARK  8 active torsions:
REMARK  status: ('A' for Active; 'I' for Inactive)
REMARK    1  A    between atoms: C_2  and  C_27
REMARK    2  A    between atoms: N_3  and  CA_4
REMARK    3  A    between atoms: CA_4  and  C_5
REMARK    4  A    between atoms: CA_4  and  C_7
REMARK    5  A    between atoms: C_5  and  O_6
REMARK    6  A    between atoms: C_11  and  C_12
REMARK    7  A    between atoms: C_12  and  N_13
REMARK    8  A    between atoms: C_14  and  C_16
REMARK                            x       y       z     vdW  Elec       q    Type
REMARK                         _______ _______ _______ _____ _____    ______ ____
ROOT
ATOM      1  C   UNL     1      44.788   7.468  11.672  0.00  0.00    +0.000 A 
ATOM      2  C   UNL     1      44.176   8.646  11.223  0.00  0.00    +0.000 A 
ATOM      3  C   UNL     1      44.796   9.885  11.414  0.00  0.00    +0.000 A 
ATOM      4  C   UNL     1      46.026   9.966  12.068  0.00  0.00    +0.000 A 
ATOM      5  C   UNL     1      46.642   8.811  12.561  0.00  0.00    +0.000 A 
ATOM      6  C   UNL     1      46.020   7.573  12.343  0.00  0.00    +0.000 A 
ENDROOT
BRANCH   1   7
ATOM      7  CA  UNL     1      44.092   6.123  11.473  0.00  0.00    +0.000 C 
BRANCH   7  10
ATOM      8  O   UNL     1      43.313   3.580  10.485  0.00  0.00    +0.000 OA
ATOM      9  C   UNL     1      44.369   4.070  10.109  0.00  0.00    +0.000 C 
ATOM     10  N   UNL     1      44.849   5.285  10.545  0.00  0.00    +0.000 N 
ATOM     11  H   UNL     1      45.480   5.763   9.914  0.00  0.00    +0.000 HD
BRANCH   9  12
ATOM     12  C   UNL     1      45.193   3.388   9.071  0.00  0.00    +0.000 A 
ATOM     13  C   UNL     1      45.795   4.174   8.079  0.00  0.00    +0.000 A 
ATOM     14  C   UNL     1      46.597   3.577   7.103  0.00  0.00    +0.000 A 
ATOM     15  C   UNL     1      46.786   2.195   7.114  0.00  0.00    +0.000 A 
ATOM     16 CL   UNL     1      47.787   1.461   5.922  0.00  0.00    +0.000 Cl
ATOM     17  C   UNL     1      46.171   1.403   8.083  0.00  0.00    +0.000 A 
ATOM     18  C   UNL     1      45.368   1.999   9.062  0.00  0.00    +0.000 A 
ENDBRANCH   9  12
ENDBRANCH   7  10
BRANCH   7  19
ATOM     19  C   UNL     1      43.824   5.432  12.840  0.00  0.00    +0.000 C 
BRANCH  19  20
ATOM     20  O   UNL     1      45.011   5.027  13.533  0.00  0.00    +0.000 OA
ATOM     21  H   UNL     1      45.009   4.058  13.583  0.00  0.00    +0.000 HD
ENDBRANCH  19  20
ENDBRANCH   7  19
ENDBRANCH   1   7
BRANCH   5  22
ATOM     22  C   UNL     1      47.939   8.871  13.329  0.00  0.00    +0.000 C 
BRANCH  22  23
ATOM     23  N   UNL     1      47.855   8.233  14.618  0.00  0.00    +0.000 N 
ATOM     24  C   UNL     1      48.659   7.181  14.983  0.00  0.00    +0.000 C 
ATOM     25  O   UNL     1      49.557   6.756  14.257  0.00  0.00    +0.000 OA
ATOM     26  H   UNL     1      47.040   8.451  15.179  0.00  0.00    +0.000 HD
BRANCH  24  27
ATOM     27  C   UNL     1      48.430   6.618  16.320  0.00  0.00    +0.000 A 
ATOM     28  C   UNL     1      48.257   5.248  16.465  0.00  0.00    +0.000 A 
ATOM     29  S   UNL     1      48.045   4.748  18.080  0.00  0.00    +0.000 S 
ATOM     30  C   UNL     1      48.124   6.351  18.644  0.00  0.00    +0.000 A 
ATOM     31  N   UNL     1      47.985   6.633  19.967  0.00  0.00    +0.000 NA
ATOM     32  C   UNL     1      48.023   7.892  20.252  0.00  0.00    +0.000 A 
ATOM     33  N   UNL     1      48.194   8.895  19.334  0.00  0.00    +0.000 N 
ATOM     34  C   UNL     1      48.391   8.655  17.994  0.00  0.00    +0.000 A 
ATOM     35  O   UNL     1      48.627   9.568  17.210  0.00  0.00    +0.000 OA
ATOM     36  C   UNL     1      48.329   7.254  17.615  0.00  0.00    +0.000 A 
ATOM     37  H   UNL     1      48.230   9.860  19.627  0.00  0.00    +0.000 HD
ENDBRANCH  24  27
ENDBRANCH  22  23
ENDBRANCH   5  22
TORSDOF 8
ENDMDL
MODEL 9
REMARK VINA RESULT:    -7.365      4.125      8.035
REMARK INTER + INTRA:         -11.837
REMARK INTER:                 -10.540
REMARK INTRA:                  -1.297
REMARK UNBOUND:                -1.242
REMARK  Name = 
REMARK  8 active torsions:
REMARK  status: ('A' for Active; 'I' for Inactive)
REMARK    1  A    between atoms: C_2  and  C_27
REMARK    2  A    between atoms: N_3  and  CA_4
REMARK    3  A    between atoms: CA_4  and  C_5
REMARK    4  A    between atoms: CA_4  and  C_7
REMARK    5  A    between atoms: C_5  and  O_6
REMARK    6  A    between atoms: C_11  and  C_12
REMARK    7  A    between atoms: C_12  and  N_13
REMARK    8  A    between atoms: C_14  and  C_16
REMARK                            x       y       z     vdW  Elec       q    Type
REMARK                         _______ _______ _______ _____ _____    ______ ____
ROOT
ATOM      1  C   UNL     1      48.647   6.637  18.295  0.00  0.00    +0.000 A 
ATOM      2  C   UNL     1      48.953   7.701  19.154  0.00  0.00    +0.000 A 
ATOM      3  C   UNL     1      49.215   8.974  18.640  0.00  0.00    +0.000 A 
ATOM      4  C   UNL     1      49.191   9.199  17.263  0.00  0.00    +0.000 A 
ATOM      5  C   UNL     1      48.927   8.147  16.379  0.00  0.00    +0.000 A 
ATOM      6  C   UNL     1      48.643   6.881  16.909  0.00  0.00    +0.000 A 
ENDROOT
BRANCH   1   7
ATOM      7  CA  UNL     1      48.378   5.246  18.868  0.00  0.00    +0.000 C 
BRANCH   7  10
ATOM      8  O   UNL     1      48.998   3.390  16.813  0.00  0.00    +0.000 OA
ATOM      9  C   UNL     1      49.792   3.558  17.729  0.00  0.00    +0.000 C 
ATOM     10  N   UNL     1      49.577   4.415  18.784  0.00  0.00    +0.000 N 
ATOM     11  H   UNL     1      50.408   4.770  19.242  0.00  0.00    +0.000 HD
BRANCH   9  12
ATOM     12  C   UNL     1      51.115   2.870  17.718  0.00  0.00    +0.000 A 
ATOM     13  C   UNL     1      52.255   3.619  18.037  0.00  0.00    +0.000 A 
ATOM     14  C   UNL     1      53.511   3.006  18.065  0.00  0.00    +0.000 A 
ATOM     15  C   UNL     1      53.624   1.649  17.763  0.00  0.00    +0.000 A 
ATOM     16 CL   UNL     1      55.168   0.890  17.814  0.00  0.00    +0.000 Cl
ATOM     17  C   UNL     1      52.498   0.902  17.421  0.00  0.00    +0.000 A 
ATOM     18  C   UNL     1      51.239   1.513  17.393  0.00  0.00    +0.000 A 
ENDBRANCH   9  12
ENDBRANCH   7  10
BRANCH   7  19
ATOM     19  C   UNL     1      47.803   5.345  20.309  0.00  0.00    +0.000 C 
BRANCH  19  20
ATOM     20  O   UNL     1      48.172   4.255  21.162  0.00  0.00    +0.000 OA
ATOM     21  H   UNL     1      47.456   3.600  21.133  0.00  0.00    +0.000 HD
ENDBRANCH  19  20
ENDBRANCH   7  19
ENDBRANCH   1   7
BRANCH   5  22
ATOM     22  C   UNL     1      48.957   8.343  14.884  0.00  0.00    +0.000 C 
BRANCH  22  23
ATOM     23  N   UNL     1      47.781   7.829  14.230  0.00  0.00    +0.000 N 
ATOM     24  C   UNL     1      47.823   6.799  13.321  0.00  0.00    +0.000 C 
ATOM     25  O   UNL     1      48.864   6.199  13.055  0.00  0.00    +0.000 OA
ATOM     26  H   UNL     1      46.939   8.386  14.307  0.00  0.00    +0.000 HD
BRANCH  24  27
ATOM     27  C   UNL     1      46.543   6.409  12.717  0.00  0.00    +0.000 A 
ATOM     28  C   UNL     1      45.729   7.382  12.151  0.00  0.00    +0.000 A 
ATOM     29  S   UNL     1      44.301   6.763  11.455  0.00  0.00    +0.000 S 
ATOM     30  C   UNL     1      44.691   5.177  11.930  0.00  0.00    +0.000 A 
ATOM     31  N   UNL     1      43.852   4.141  11.659  0.00  0.00    +0.000 NA
ATOM     32  C   UNL     1      44.249   3.000  12.114  0.00  0.00    +0.000 A 
ATOM     33  N   UNL     1      45.413   2.799  12.809  0.00  0.00    +0.000 N 
ATOM     34  C   UNL     1      46.317   3.805  13.060  0.00  0.00    +0.000 A 
ATOM     35  O   UNL     1      47.389   3.577  13.609  0.00  0.00    +0.000 OA
ATOM     36  C   UNL     1      45.904   5.117  12.595  0.00  0.00    +0.000 A 
ATOM     37  H   UNL     1      45.672   1.875  13.123  0.00  0.00    +0.000 HD
ENDBRANCH  24  27
ENDBRANCH  22  23
ENDBRANCH   5  22
TORSDOF 8
ENDMDL
