MODEL 1
REMARK VINA RESULT:    -7.774      0.000      0.000
REMARK INTER + INTRA:         -12.046
REMARK INTER:                 -10.955
REMARK INTRA:                  -1.091
REMARK UNBOUND:                -1.091
REMARK  Name = 
REMARK  7 active torsions:
REMARK  status: ('A' for Active; 'I' for Inactive)
REMARK    1  A    between atoms: C_2  and  C_20
REMARK    2  A    between atoms: N_3  and  C_4
REMARK    3  A    between atoms: C_4  and  C_5
REMARK    4  A    between atoms: C_8  and  C_9
REMARK    5  A    between atoms: C_9  and  N_10
REMARK    6  A    between atoms: N_10  and  C_11
REMARK    7  A    between atoms: C_11  and  C_12
REMARK                            x       y       z     vdW  Elec       q    Type
REMARK                         _______ _______ _______ _____ _____    ______ ____
ROOT
ATOM      1  C   UNL     1      45.882   6.349  11.999  0.00  0.00    +0.000 A 
ATOM      2  C   UNL     1      46.111   6.186  10.637  0.00  0.00    +0.000 A 
ATOM      3  C   UNL     1      45.510   5.120   9.974  0.00  0.00    +0.000 A 
ATOM      4  C   UNL     1      44.705   4.219  10.675  0.00  0.00    +0.000 A 
ATOM      5  C   UNL     1      44.535   4.466  12.035  0.00  0.00    +0.000 A 
ATOM      6  N   UNL     1      45.105   5.495  12.711  0.00  0.00    +0.000 NA
ENDROOT
BRANCH   1   7
ATOM      7  C   UNL     1      46.480   7.533  12.718  0.00  0.00    +0.000 C 
BRANCH   7  10
ATOM      8  O   UNL     1      48.847   6.165  13.240  0.00  0.00    +0.000 OA
ATOM      9  C   UNL     1      48.160   6.559  14.197  0.00  0.00    +0.000 C 
ATOM     10  N   UNL     1      46.967   7.212  14.034  0.00  0.00    +0.000 N 
ATOM     11  H   UNL     1      46.629   7.799  14.789  0.00  0.00    +0.000 HD
BRANCH   9  12
ATOM     12  C   UNL     1      48.565   6.306  15.569  0.00  0.00    +0.000 A 
ATOM     13  C   UNL     1      49.280   7.226  16.319  0.00  0.00    +0.000 A 
ATOM     14  S   UNL     1      49.589   6.692  17.915  0.00  0.00    +0.000 S 
ATOM     15  C   UNL     1      48.772   5.223  17.642  0.00  0.00    +0.000 A 
ATOM     16  N   UNL     1      48.651   4.283  18.615  0.00  0.00    +0.000 NA
ATOM     17  C   UNL     1      47.992   3.230  18.263  0.00  0.00    +0.000 A 
ATOM     18  N   UNL     1      47.439   3.030  17.023  0.00  0.00    +0.000 N 
ATOM     19  C   UNL     1      47.574   3.918  15.984  0.00  0.00    +0.000 A 
ATOM     20  O   UNL     1      47.175   3.637  14.864  0.00  0.00    +0.000 OA
ATOM     21  C   UNL     1      48.287   5.131  16.351  0.00  0.00    +0.000 A 
ATOM     22  H   UNL     1      46.968   2.165  16.804  0.00  0.00    +0.000 HD
ENDBRANCH   9  12
ENDBRANCH   7  10
ENDBRANCH   1   7
BRANCH   4  23
ATOM     23  C   UNL     1      44.001   3.047  10.022  0.00  0.00    +0.000 C 
BRANCH  23  24
ATOM     24  N   UNL     1      44.937   1.998   9.596  0.00  0.00    +0.000 NA
ATOM     25  H   UNL     1      44.579   1.086   9.874  0.00  0.00    +0.000 HD
BRANCH  24  26
ATOM     26  C   UNL     1      45.234   2.010   8.152  0.00  0.00    +0.000 C 
BRANCH  26  27
ATOM     27  C   UNL     1      46.747   2.197   7.888  0.00  0.00    +0.000 C 
ATOM     28  C   UNL     1      47.048   3.386   6.961  0.00  0.00    +0.000 C 
ATOM     29  C   UNL     1      46.772   3.074   5.492  0.00  0.00    +0.000 C 
ATOM     30  C   UNL     1      47.463   1.783   5.053  0.00  0.00    +0.000 C 
ATOM     31  N   UNL     1      47.120   0.656   5.925  0.00  0.00    +0.000 NA
ATOM     32  C   UNL     1      47.448   0.938   7.327  0.00  0.00    +0.000 C 
ATOM     33  H   UNL     1      47.644  -0.165   5.617  0.00  0.00    +0.000 HD
ENDBRANCH  26  27
ENDBRANCH  24  26
ENDBRANCH  23  24
ENDBRANCH   4  23
TORSDOF 7
ENDMDL
MODEL 2
REMARK VINA RESULT:    -7.071      2.311      3.343
REMARK INTER + INTRA:         -11.056
REMARK INTER:                 -10.108
REMARK INTRA:                  -0.947
REMARK UNBOUND:                -1.091
REMARK  Name = 
REMARK  7 active torsions:
REMARK  status: ('A' for Active; 'I' for Inactive)
REMARK    1  A    between atoms: C_2  and  C_20
REMARK    2  A    between atoms: N_3  and  C_4
REMARK    3  A    between atoms: C_4  and  C_5
REMARK    4  A    between atoms: C_8  and  C_9
REMARK    5  A    between atoms: C_9  and  N_10
REMARK    6  A    between atoms: N_10  and  C_11
REMARK    7  A    between atoms: C_11  and  C_12
REMARK                            x       y       z     vdW  Elec       q    Type
REMARK                         _______ _______ _______ _____ _____    ______ ____
ROOT
ATOM      1  C   UNL     1      47.683   6.350  13.932  0.00  0.00    +0.000 A 
ATOM      2  C   UNL     1      46.763   6.957  13.085  0.00  0.00    +0.000 A 
ATOM      3  C   UNL     1      45.588   6.282  12.769  0.00  0.00    +0.000 A 
ATOM      4  C   UNL     1      45.350   5.004  13.283  0.00  0.00    +0.000 A 
ATOM      5  C   UNL     1      46.330   4.481  14.124  0.00  0.00    +0.000 A 
ATOM      6  N   UNL     1      47.485   5.112  14.451  0.00  0.00    +0.000 NA
ENDROOT
BRANCH   1   7
ATOM      7  C   UNL     1      48.934   7.094  14.329  0.00  0.00    +0.000 C 
BRANCH   7  10
ATOM      8  O   UNL     1      50.433   5.740  16.244  0.00  0.00    +0.000 OA
ATOM      9  C   UNL     1      49.764   6.726  16.595  0.00  0.00    +0.000 C 
ATOM     10  N   UNL     1      48.975   7.433  15.727  0.00  0.00    +0.000 N 
ATOM     11  H   UNL     1      48.735   8.391  15.961  0.00  0.00    +0.000 HD
BRANCH   9  12
ATOM     12  C   UNL     1      49.745   7.168  17.978  0.00  0.00    +0.000 A 
ATOM     13  C   UNL     1      50.625   8.118  18.473  0.00  0.00    +0.000 A 
ATOM     14  S   UNL     1      50.355   8.484  20.122  0.00  0.00    +0.000 S 
ATOM     15  C   UNL     1      49.057   7.387  20.213  0.00  0.00    +0.000 A 
ATOM     16  N   UNL     1      48.356   7.206  21.362  0.00  0.00    +0.000 NA
ATOM     17  C   UNL     1      47.390   6.353  21.271  0.00  0.00    +0.000 A 
ATOM     18  N   UNL     1      47.059   5.662  20.132  0.00  0.00    +0.000 N 
ATOM     19  C   UNL     1      47.763   5.763  18.956  0.00  0.00    +0.000 A 
ATOM     20  O   UNL     1      47.510   5.034  18.010  0.00  0.00    +0.000 OA
ATOM     21  C   UNL     1      48.842   6.737  19.012  0.00  0.00    +0.000 A 
ATOM     22  H   UNL     1      46.315   4.982  20.142  0.00  0.00    +0.000 HD
ENDBRANCH   9  12
ENDBRANCH   7  10
ENDBRANCH   1   7
BRANCH   4  23
ATOM     23  C   UNL     1      44.088   4.215  13.003  0.00  0.00    +0.000 C 
BRANCH  23  24
ATOM     24  N   UNL     1      44.367   2.921  12.365  0.00  0.00    +0.000 NA
ATOM     25  H   UNL     1      43.491   2.446  12.157  0.00  0.00    +0.000 HD
BRANCH  24  26
ATOM     26  C   UNL     1      45.194   3.020  11.149  0.00  0.00    +0.000 C 
BRANCH  26  27
ATOM     27  C   UNL     1      44.332   2.906   9.868  0.00  0.00    +0.000 C 
ATOM     28  C   UNL     1      44.830   1.812   8.910  0.00  0.00    +0.000 C 
ATOM     29  C   UNL     1      46.059   2.241   8.112  0.00  0.00    +0.000 C 
ATOM     30  C   UNL     1      45.839   3.586   7.422  0.00  0.00    +0.000 C 
ATOM     31  N   UNL     1      45.412   4.622   8.367  0.00  0.00    +0.000 NA
ATOM     32  C   UNL     1      44.193   4.231   9.084  0.00  0.00    +0.000 C 
ATOM     33  H   UNL     1      45.233   5.483   7.847  0.00  0.00    +0.000 HD
ENDBRANCH  26  27
ENDBRANCH  24  26
ENDBRANCH  23  24
ENDBRANCH   4  23
TORSDOF 7
ENDMDL
MODEL 3
REMARK VINA RESULT:    -7.062      3.372      8.239
REMARK INTER + INTRA:         -11.043
REMARK INTER:                  -9.499
REMARK INTRA:                  -1.544
REMARK UNBOUND:                -1.091
REMARK  Name = 
REMARK  7 active torsions:
REMARK  status: ('A' for Active; 'I' for Inactive)
REMARK    1  A    between atoms: C_2  and  C_20
REMARK    2  A    between atoms: N_3  and  C_4
REMARK    3  A    between atoms: C_4  and  C_5
REMARK    4  A    between atoms: C_8  and  C_9
REMARK    5  A    between atoms: C_9  and  N_10
REMARK    6  A    between atoms: N_10  and  C_11
REMARK    7  A    between atoms: C_11  and  C_12
REMARK                            x       y       z     vdW  Elec       q    Type
REMARK                         _______ _______ _______ _____ _____    ______ ____
ROOT
ATOM      1  C   UNL     1      48.829   7.616  13.365  0.00  0.00    +0.000 A 
ATOM      2  C   UNL     1      48.164   6.865  14.328  0.00  0.00    +0.000 A 
ATOM      3  C   UNL     1      48.798   6.607  15.540  0.00  0.00    +0.000 A 
ATOM      4  C   UNL     1      50.092   7.081  15.772  0.00  0.00    +0.000 A 
ATOM      5  C   UNL     1      50.674   7.825  14.748  0.00  0.00    +0.000 A 
ATOM      6  N   UNL     1      50.084   8.094  13.557  0.00  0.00    +0.000 NA
ENDROOT
BRANCH   1   7
ATOM      7  C   UNL     1      48.131   7.953  12.071  0.00  0.00    +0.000 C 
BRANCH   7  10
ATOM      8  O   UNL     1      45.396   7.800  11.579  0.00  0.00    +0.000 OA
ATOM      9  C   UNL     1      46.118   6.848  11.241  0.00  0.00    +0.000 C 
ATOM     10  N   UNL     1      47.468   6.825  11.471  0.00  0.00    +0.000 N 
ATOM     11  H   UNL     1      48.048   6.223  10.896  0.00  0.00    +0.000 HD
BRANCH   9  12
ATOM     12  C   UNL     1      45.559   5.665  10.611  0.00  0.00    +0.000 A 
ATOM     13  C   UNL     1      45.754   5.368   9.272  0.00  0.00    +0.000 A 
ATOM     14  S   UNL     1      45.021   3.895   8.800  0.00  0.00    +0.000 S 
ATOM     15  C   UNL     1      44.431   3.619  10.373  0.00  0.00    +0.000 A 
ATOM     16  N   UNL     1      43.708   2.512  10.679  0.00  0.00    +0.000 NA
ATOM     17  C   UNL     1      43.343   2.434  11.916  0.00  0.00    +0.000 A 
ATOM     18  N   UNL     1      43.637   3.367  12.879  0.00  0.00    +0.000 N 
ATOM     19  C   UNL     1      44.317   4.532  12.619  0.00  0.00    +0.000 A 
ATOM     20  O   UNL     1      44.442   5.390  13.480  0.00  0.00    +0.000 OA
ATOM     21  C   UNL     1      44.769   4.641  11.241  0.00  0.00    +0.000 A 
ATOM     22  H   UNL     1      43.288   3.262  13.819  0.00  0.00    +0.000 HD
ENDBRANCH   9  12
ENDBRANCH   7  10
ENDBRANCH   1   7
BRANCH   4  23
ATOM     23  C   UNL     1      50.840   6.859  17.070  0.00  0.00    +0.000 C 
BRANCH  23  24
ATOM     24  N   UNL     1      50.242   5.794  17.887  0.00  0.00    +0.000 NA
ATOM     25  H   UNL     1      49.229   5.819  17.792  0.00  0.00    +0.000 HD
BRANCH  24  26
ATOM     26  C   UNL     1      50.750   4.446  17.577  0.00  0.00    +0.000 C 
BRANCH  26  27
ATOM     27  C   UNL     1      49.807   3.347  18.126  0.00  0.00    +0.000 C 
ATOM     28  C   UNL     1      49.180   2.491  17.013  0.00  0.00    +0.000 C 
ATOM     29  C   UNL     1      48.032   3.200  16.298  0.00  0.00    +0.000 C 
ATOM     30  C   UNL     1      47.002   3.741  17.289  0.00  0.00    +0.000 C 
ATOM     31  N   UNL     1      47.620   4.592  18.309  0.00  0.00    +0.000 NA
ATOM     32  C   UNL     1      48.679   3.884  19.036  0.00  0.00    +0.000 C 
ATOM     33  H   UNL     1      46.898   4.885  18.969  0.00  0.00    +0.000 HD
ENDBRANCH  26  27
ENDBRANCH  24  26
ENDBRANCH  23  24
ENDBRANCH   4  23
TORSDOF 7
ENDMDL
MODEL 4
REMARK VINA RESULT:    -6.997      3.853      9.240
REMARK INTER + INTRA:         -10.952
REMARK INTER:                  -9.125
REMARK INTRA:                  -1.827
REMARK UNBOUND:                -1.091
REMARK  Name = 
REMARK  7 active torsions:
REMARK  status: ('A' for Active; 'I' for Inactive)
REMARK    1  A    between atoms: C_2  and  C_20
REMARK    2  A    between atoms: N_3  and  C_4
REMARK    3  A    between atoms: C_4  and  C_5
REMARK    4  A    between atoms: C_8  and  C_9
REMARK    5  A    between atoms: C_9  and  N_10
REMARK    6  A    between atoms: N_10  and  C_11
REMARK    7  A    between atoms: C_11  and  C_12
REMARK                            x       y       z     vdW  Elec       q    Type
REMARK                         _______ _______ _______ _____ _____    ______ ____
ROOT
ATOM      1  C   UNL     1      48.832   6.530  15.410  0.00  0.00    +0.000 A 
ATOM      2  C   UNL     1      50.053   6.847  15.996  0.00  0.00    +0.000 A 
ATOM      3  C   UNL     1      50.560   6.018  16.991  0.00  0.00    +0.000 A 
ATOM      4  C   UNL     1      49.839   4.895  17.407  0.00  0.00    +0.000 A 
ATOM      5  C   UNL     1      48.628   4.660  16.760  0.00  0.00    +0.000 A 
ATOM      6  N   UNL     1      48.106   5.447  15.786  0.00  0.00    +0.000 NA
ENDROOT
BRANCH   1   7
ATOM      7  C   UNL     1      48.299   7.387  14.288  0.00  0.00    +0.000 C 
BRANCH   7  10
ATOM      8  O   UNL     1      47.705   6.917  11.610  0.00  0.00    +0.000 OA
ATOM      9  C   UNL     1      46.824   6.717  12.463  0.00  0.00    +0.000 C 
ATOM     10  N   UNL     1      47.019   6.951  13.798  0.00  0.00    +0.000 N 
ATOM     11  H   UNL     1      46.428   6.467  14.466  0.00  0.00    +0.000 HD
BRANCH   9  12
ATOM     12  C   UNL     1      45.499   6.258  12.083  0.00  0.00    +0.000 A 
ATOM     13  C   UNL     1      44.533   7.106  11.567  0.00  0.00    +0.000 A 
ATOM     14  S   UNL     1      43.079   6.298  11.165  0.00  0.00    +0.000 S 
ATOM     15  C   UNL     1      43.708   4.798  11.667  0.00  0.00    +0.000 A 
ATOM     16  N   UNL     1      42.977   3.656  11.587  0.00  0.00    +0.000 NA
ATOM     17  C   UNL     1      43.594   2.595  11.991  0.00  0.00    +0.000 A 
ATOM     18  N   UNL     1      44.881   2.572  12.468  0.00  0.00    +0.000 N 
ATOM     19  C   UNL     1      45.650   3.700  12.622  0.00  0.00    +0.000 A 
ATOM     20  O   UNL     1      46.741   3.645  13.169  0.00  0.00    +0.000 OA
ATOM     21  C   UNL     1      44.998   4.911  12.151  0.00  0.00    +0.000 A 
ATOM     22  H   UNL     1      45.290   1.712  12.802  0.00  0.00    +0.000 HD
ENDBRANCH   9  12
ENDBRANCH   7  10
ENDBRANCH   1   7
BRANCH   4  23
ATOM     23  C   UNL     1      50.332   3.934  18.469  0.00  0.00    +0.000 C 
BRANCH  23  24
ATOM     24  N   UNL     1      50.187   4.477  19.826  0.00  0.00    +0.000 NA
ATOM     25  H   UNL     1      50.480   5.452  19.838  0.00  0.00    +0.000 HD
BRANCH  24  26
ATOM     26  C   UNL     1      48.828   4.347  20.380  0.00  0.00    +0.000 C 
BRANCH  26  27
ATOM     27  C   UNL     1      48.420   5.609  21.179  0.00  0.00    +0.000 C 
ATOM     28  C   UNL     1      47.236   6.358  20.545  0.00  0.00    +0.000 C 
ATOM     29  C   UNL     1      47.644   7.189  19.332  0.00  0.00    +0.000 C 
ATOM     30  C   UNL     1      48.829   8.101  19.647  0.00  0.00    +0.000 C 
ATOM     31  N   UNL     1      49.960   7.354  20.204  0.00  0.00    +0.000 NA
ATOM     32  C   UNL     1      49.578   6.609  21.408  0.00  0.00    +0.000 C 
ATOM     33  H   UNL     1      50.702   8.015  20.440  0.00  0.00    +0.000 HD
ENDBRANCH  26  27
ENDBRANCH  24  26
ENDBRANCH  23  24
ENDBRANCH   4  23
TORSDOF 7
ENDMDL
MODEL 5
REMARK VINA RESULT:    -6.925      4.324      9.854
REMARK INTER + INTRA:         -10.850
REMARK INTER:                  -9.229
REMARK INTRA:                  -1.621
REMARK UNBOUND:                -1.091
REMARK  Name = 
REMARK  7 active torsions:
REMARK  status: ('A' for Active; 'I' for Inactive)
REMARK    1  A    between atoms: C_2  and  C_20
REMARK    2  A    between atoms: N_3  and  C_4
REMARK    3  A    between atoms: C_4  and  C_5
REMARK    4  A    between atoms: C_8  and  C_9
REMARK    5  A    between atoms: C_9  and  N_10
REMARK    6  A    between atoms: N_10  and  C_11
REMARK    7  A    between atoms: C_11  and  C_12
REMARK                            x       y       z     vdW  Elec       q    Type
REMARK                         _______ _______ _______ _____ _____    ______ ____
ROOT
ATOM      1  C   UNL     1      48.734   3.896  16.826  0.00  0.00    +0.000 A 
ATOM      2  C   UNL     1      49.496   2.864  17.362  0.00  0.00    +0.000 A 
ATOM      3  C   UNL     1      50.804   3.125  17.759  0.00  0.00    +0.000 A 
ATOM      4  C   UNL     1      51.345   4.404  17.601  0.00  0.00    +0.000 A 
ATOM      5  C   UNL     1      50.504   5.372  17.057  0.00  0.00    +0.000 A 
ATOM      6  N   UNL     1      49.225   5.150  16.660  0.00  0.00    +0.000 NA
ENDROOT
BRANCH   1   7
ATOM      7  C   UNL     1      47.296   3.641  16.446  0.00  0.00    +0.000 C 
BRANCH   7  10
ATOM      8  O   UNL     1      46.997   3.237  13.709  0.00  0.00    +0.000 OA
ATOM      9  C   UNL     1      46.632   4.319  14.197  0.00  0.00    +0.000 C 
ATOM     10  N   UNL     1      46.769   4.616  15.527  0.00  0.00    +0.000 N 
ATOM     11  H   UNL     1      46.170   5.328  15.929  0.00  0.00    +0.000 HD
BRANCH   9  12
ATOM     12  C   UNL     1      46.069   5.368  13.365  0.00  0.00    +0.000 A 
ATOM     13  C   UNL     1      46.774   6.510  13.022  0.00  0.00    +0.000 A 
ATOM     14  S   UNL     1      45.890   7.561  12.000  0.00  0.00    +0.000 S 
ATOM     15  C   UNL     1      44.548   6.513  11.990  0.00  0.00    +0.000 A 
ATOM     16  N   UNL     1      43.422   6.805  11.290  0.00  0.00    +0.000 NA
ATOM     17  C   UNL     1      42.496   5.908  11.367  0.00  0.00    +0.000 A 
ATOM     18  N   UNL     1      42.594   4.740  12.082  0.00  0.00    +0.000 N 
ATOM     19  C   UNL     1      43.684   4.415  12.852  0.00  0.00    +0.000 A 
ATOM     20  O   UNL     1      43.672   3.428  13.570  0.00  0.00    +0.000 OA
ATOM     21  C   UNL     1      44.761   5.390  12.768  0.00  0.00    +0.000 A 
ATOM     22  H   UNL     1      41.816   4.100  12.129  0.00  0.00    +0.000 HD
ENDBRANCH   9  12
ENDBRANCH   7  10
ENDBRANCH   1   7
BRANCH   4  23
ATOM     23  C   UNL     1      52.751   4.772  18.026  0.00  0.00    +0.000 C 
BRANCH  23  24
ATOM     24  N   UNL     1      52.778   5.502  19.301  0.00  0.00    +0.000 NA
ATOM     25  H   UNL     1      52.199   6.337  19.229  0.00  0.00    +0.000 HD
BRANCH  24  26
ATOM     26  C   UNL     1      52.366   4.694  20.462  0.00  0.00    +0.000 C 
BRANCH  26  27
ATOM     27  C   UNL     1      51.527   5.528  21.461  0.00  0.00    +0.000 C 
ATOM     28  C   UNL     1      50.126   4.939  21.698  0.00  0.00    +0.000 C 
ATOM     29  C   UNL     1      49.160   5.235  20.553  0.00  0.00    +0.000 C 
ATOM     30  C   UNL     1      49.134   6.724  20.210  0.00  0.00    +0.000 C 
ATOM     31  N   UNL     1      50.477   7.246  19.942  0.00  0.00    +0.000 NA
ATOM     32  C   UNL     1      51.383   7.017  21.072  0.00  0.00    +0.000 C 
ATOM     33  H   UNL     1      50.406   8.250  19.767  0.00  0.00    +0.000 HD
ENDBRANCH  26  27
ENDBRANCH  24  26
ENDBRANCH  23  24
ENDBRANCH   4  23
TORSDOF 7
ENDMDL
MODEL 6
REMARK VINA RESULT:    -6.899      1.837      2.482
REMARK INTER + INTRA:         -10.814
REMARK INTER:                  -9.941
REMARK INTRA:                  -0.873
REMARK UNBOUND:                -1.091
REMARK  Name = 
REMARK  7 active torsions:
REMARK  status: ('A' for Active; 'I' for Inactive)
REMARK    1  A    between atoms: C_2  and  C_20
REMARK    2  A    between atoms: N_3  and  C_4
REMARK    3  A    between atoms: C_4  and  C_5
REMARK    4  A    between atoms: C_8  and  C_9
REMARK    5  A    between atoms: C_9  and  N_10
REMARK    6  A    between atoms: N_10  and  C_11
REMARK    7  A    between atoms: C_11  and  C_12
REMARK                            x       y       z     vdW  Elec       q    Type
REMARK                         _______ _______ _______ _____ _____    ______ ____
ROOT
ATOM      1  C   UNL     1      46.294   5.508  12.561  0.00  0.00    +0.000 A 
ATOM      2  C   UNL     1      45.890   4.228  12.924  0.00  0.00    +0.000 A 
ATOM      3  C   UNL     1      45.235   3.435  11.987  0.00  0.00    +0.000 A 
ATOM      4  C   UNL     1      44.972   3.930  10.707  0.00  0.00    +0.000 A 
ATOM      5  C   UNL     1      45.418   5.222  10.437  0.00  0.00    +0.000 A 
ATOM      6  N   UNL     1      46.058   6.020  11.327  0.00  0.00    +0.000 NA
ENDROOT
BRANCH   1   7
ATOM      7  C   UNL     1      47.057   6.357  13.548  0.00  0.00    +0.000 C 
BRANCH   7  10
ATOM      8  O   UNL     1      49.388   6.429  15.066  0.00  0.00    +0.000 OA
ATOM      9  C   UNL     1      48.395   5.840  15.524  0.00  0.00    +0.000 C 
ATOM     10  N   UNL     1      47.217   5.729  14.833  0.00  0.00    +0.000 N 
ATOM     11  H   UNL     1      46.364   5.559  15.355  0.00  0.00    +0.000 HD
BRANCH   9  12
ATOM     12  C   UNL     1      48.438   5.187  16.820  0.00  0.00    +0.000 A 
ATOM     13  C   UNL     1      48.485   3.809  16.962  0.00  0.00    +0.000 A 
ATOM     14  S   UNL     1      48.571   3.308  18.596  0.00  0.00    +0.000 S 
ATOM     15  C   UNL     1      48.551   4.918  19.150  0.00  0.00    +0.000 A 
ATOM     16  N   UNL     1      48.609   5.217  20.473  0.00  0.00    +0.000 NA
ATOM     17  C   UNL     1      48.600   6.481  20.738  0.00  0.00    +0.000 A 
ATOM     18  N   UNL     1      48.540   7.478  19.796  0.00  0.00    +0.000 N 
ATOM     19  C   UNL     1      48.426   7.237  18.448  0.00  0.00    +0.000 A 
ATOM     20  O   UNL     1      48.247   8.154  17.662  0.00  0.00    +0.000 OA
ATOM     21  C   UNL     1      48.461   5.824  18.109  0.00  0.00    +0.000 A 
ATOM     22  H   UNL     1      48.500   8.446  20.075  0.00  0.00    +0.000 HD
ENDBRANCH   9  12
ENDBRANCH   7  10
ENDBRANCH   1   7
BRANCH   4  23
ATOM     23  C   UNL     1      44.283   3.122   9.627  0.00  0.00    +0.000 C 
BRANCH  23  24
ATOM     24  N   UNL     1      45.238   2.435   8.746  0.00  0.00    +0.000 NA
ATOM     25  H   UNL     1      44.925   1.480   8.582  0.00  0.00    +0.000 HD
BRANCH  24  26
ATOM     26  C   UNL     1      45.471   3.122   7.464  0.00  0.00    +0.000 C 
BRANCH  26  27
ATOM     27  C   UNL     1      46.933   2.948   6.987  0.00  0.00    +0.000 C 
ATOM     28  C   UNL     1      47.092   3.144   5.470  0.00  0.00    +0.000 C 
ATOM     29  C   UNL     1      46.626   1.933   4.666  0.00  0.00    +0.000 C 
ATOM     30  C   UNL     1      47.266   0.641   5.173  0.00  0.00    +0.000 C 
ATOM     31  N   UNL     1      47.058   0.456   6.611  0.00  0.00    +0.000 NA
ATOM     32  C   UNL     1      47.566   1.594   7.384  0.00  0.00    +0.000 C 
ATOM     33  H   UNL     1      47.545  -0.393   6.904  0.00  0.00    +0.000 HD
ENDBRANCH  26  27
ENDBRANCH  24  26
ENDBRANCH  23  24
ENDBRANCH   4  23
TORSDOF 7
ENDMDL
MODEL 7
REMARK VINA RESULT:    -6.842      3.183      4.337
REMARK INTER + INTRA:         -10.733
REMARK INTER:                 -10.019
REMARK INTRA:                  -0.714
REMARK UNBOUND:                -1.091
REMARK  Name = 
REMARK  7 active torsions:
REMARK  status: ('A' for Active; 'I' for Inactive)
REMARK    1  A    between atoms: C_2  and  C_20
REMARK    2  A    between atoms: N_3  and  C_4
REMARK    3  A    between atoms: C_4  and  C_5
REMARK    4  A    between atoms: C_8  and  C_9
REMARK    5  A    between atoms: C_9  and  N_10
REMARK    6  A    between atoms: N_10  and  C_11
REMARK    7  A    between atoms: C_11  and  C_12
REMARK                            x       y       z     vdW  Elec       q    Type
REMARK                         _______ _______ _______ _____ _____    ______ ____
ROOT
ATOM      1  C   UNL     1      47.590   5.201  15.493  0.00  0.00    +0.000 A 
ATOM      2  C   UNL     1      48.016   6.248  14.682  0.00  0.00    +0.000 A 
ATOM      3  C   UNL     1      47.507   6.353  13.392  0.00  0.00    +0.000 A 
ATOM      4  C   UNL     1      46.597   5.406  12.915  0.00  0.00    +0.000 A 
ATOM      5  C   UNL     1      46.230   4.396  13.801  0.00  0.00    +0.000 A 
ATOM      6  N   UNL     1      46.706   4.265  15.065  0.00  0.00    +0.000 NA
ENDROOT
BRANCH   1   7
ATOM      7  C   UNL     1      48.089   5.109  16.914  0.00  0.00    +0.000 C 
BRANCH   7  10
ATOM      8  O   UNL     1      49.537   4.960  19.286  0.00  0.00    +0.000 OA
ATOM      9  C   UNL     1      50.092   4.631  18.224  0.00  0.00    +0.000 C 
ATOM     10  N   UNL     1      49.466   4.701  17.008  0.00  0.00    +0.000 N 
ATOM     11  H   UNL     1      49.811   4.121  16.251  0.00  0.00    +0.000 HD
BRANCH   9  12
ATOM     12  C   UNL     1      51.475   4.186  18.204  0.00  0.00    +0.000 A 
ATOM     13  C   UNL     1      52.528   4.998  18.593  0.00  0.00    +0.000 A 
ATOM     14  S   UNL     1      54.045   4.211  18.511  0.00  0.00    +0.000 S 
ATOM     15  C   UNL     1      53.330   2.768  17.958  0.00  0.00    +0.000 A 
ATOM     16  N   UNL     1      54.072   1.662  17.691  0.00  0.00    +0.000 NA
ATOM     17  C   UNL     1      53.387   0.641  17.295  0.00  0.00    +0.000 A 
ATOM     18  N   UNL     1      52.023   0.624  17.142  0.00  0.00    +0.000 N 
ATOM     19  C   UNL     1      51.227   1.725  17.345  0.00  0.00    +0.000 A 
ATOM     20  O   UNL     1      50.036   1.695  17.072  0.00  0.00    +0.000 OA
ATOM     21  C   UNL     1      51.960   2.887  17.820  0.00  0.00    +0.000 A 
ATOM     22  H   UNL     1      51.556  -0.199  16.792  0.00  0.00    +0.000 HD
ENDBRANCH   9  12
ENDBRANCH   7  10
ENDBRANCH   1   7
BRANCH   4  23
ATOM     23  C   UNL     1      45.983   5.462  11.531  0.00  0.00    +0.000 C 
BRANCH  23  24
ATOM     24  N   UNL     1      44.831   4.562  11.392  0.00  0.00    +0.000 NA
ATOM     25  H   UNL     1      44.112   5.011  10.828  0.00  0.00    +0.000 HD
BRANCH  24  26
ATOM     26  C   UNL     1      45.167   3.241  10.831  0.00  0.00    +0.000 C 
BRANCH  26  27
ATOM     27  C   UNL     1      44.457   3.006   9.476  0.00  0.00    +0.000 C 
ATOM     28  C   UNL     1      44.925   1.720   8.774  0.00  0.00    +0.000 C 
ATOM     29  C   UNL     1      46.285   1.876   8.099  0.00  0.00    +0.000 C 
ATOM     30  C   UNL     1      46.323   3.103   7.188  0.00  0.00    +0.000 C 
ATOM     31  N   UNL     1      45.919   4.321   7.895  0.00  0.00    +0.000 NA
ATOM     32  C   UNL     1      44.584   4.187   8.486  0.00  0.00    +0.000 C 
ATOM     33  H   UNL     1      45.915   5.097   7.230  0.00  0.00    +0.000 HD
ENDBRANCH  26  27
ENDBRANCH  24  26
ENDBRANCH  23  24
ENDBRANCH   4  23
TORSDOF 7
ENDMDL
MODEL 8
REMARK VINA RESULT:    -6.796      2.903      8.710
REMARK INTER + INTRA:         -10.669
REMARK INTER:                  -9.222
REMARK INTRA:                  -1.447
REMARK UNBOUND:                -1.091
REMARK  Name = 
REMARK  7 active torsions:
REMARK  status: ('A' for Active; 'I' for Inactive)
REMARK    1  A    between atoms: C_2  and  C_20
REMARK    2  A    between atoms: N_3  and  C_4
REMARK    3  A    between atoms: C_4  and  C_5
REMARK    4  A    between atoms: C_8  and  C_9
REMARK    5  A    between atoms: C_9  and  N_10
REMARK    6  A    between atoms: N_10  and  C_11
REMARK    7  A    between atoms: C_11  and  C_12
REMARK                            x       y       z     vdW  Elec       q    Type
REMARK                         _______ _______ _______ _____ _____    ______ ____
ROOT
ATOM      1  C   UNL     1      48.196   7.795  13.505  0.00  0.00    +0.000 A 
ATOM      2  C   UNL     1      47.974   8.994  14.172  0.00  0.00    +0.000 A 
ATOM      3  C   UNL     1      48.470   9.151  15.463  0.00  0.00    +0.000 A 
ATOM      4  C   UNL     1      49.164   8.108  16.082  0.00  0.00    +0.000 A 
ATOM      5  C   UNL     1      49.338   6.947  15.332  0.00  0.00    +0.000 A 
ATOM      6  N   UNL     1      48.867   6.761  14.073  0.00  0.00    +0.000 NA
ENDROOT
BRANCH   1   7
ATOM      7  C   UNL     1      47.715   7.633  12.084  0.00  0.00    +0.000 C 
BRANCH   7  10
ATOM      8  O   UNL     1      44.982   7.310  12.495  0.00  0.00    +0.000 OA
ATOM      9  C   UNL     1      45.640   6.347  12.067  0.00  0.00    +0.000 C 
ATOM     10  N   UNL     1      46.993   6.407  11.864  0.00  0.00    +0.000 N 
ATOM     11  H   UNL     1      47.415   5.752  11.215  0.00  0.00    +0.000 HD
BRANCH   9  12
ATOM     12  C   UNL     1      45.011   5.067  11.793  0.00  0.00    +0.000 A 
ATOM     13  C   UNL     1      44.330   4.346  12.761  0.00  0.00    +0.000 A 
ATOM     14  S   UNL     1      43.651   2.895  12.159  0.00  0.00    +0.000 S 
ATOM     15  C   UNL     1      44.248   3.198  10.593  0.00  0.00    +0.000 A 
ATOM     16  N   UNL     1      44.020   2.341   9.565  0.00  0.00    +0.000 NA
ATOM     17  C   UNL     1      44.522   2.714   8.435  0.00  0.00    +0.000 A 
ATOM     18  N   UNL     1      45.234   3.871   8.238  0.00  0.00    +0.000 N 
ATOM     19  C   UNL     1      45.543   4.749   9.249  0.00  0.00    +0.000 A 
ATOM     20  O   UNL     1      46.287   5.697   9.049  0.00  0.00    +0.000 OA
ATOM     21  C   UNL     1      44.969   4.376  10.532  0.00  0.00    +0.000 A 
ATOM     22  H   UNL     1      45.630   4.083   7.335  0.00  0.00    +0.000 HD
ENDBRANCH   9  12
ENDBRANCH   7  10
ENDBRANCH   1   7
BRANCH   4  23
ATOM     23  C   UNL     1      49.751   8.209  17.474  0.00  0.00    +0.000 C 
BRANCH  23  24
ATOM     24  N   UNL     1      48.928   7.523  18.480  0.00  0.00    +0.000 NA
ATOM     25  H   UNL     1      47.999   7.349  18.101  0.00  0.00    +0.000 HD
BRANCH  24  26
ATOM     26  C   UNL     1      49.517   6.269  18.981  0.00  0.00    +0.000 C 
BRANCH  26  27
ATOM     27  C   UNL     1      48.422   5.252  19.383  0.00  0.00    +0.000 C 
ATOM     28  C   UNL     1      48.850   3.793  19.151  0.00  0.00    +0.000 C 
ATOM     29  C   UNL     1      48.773   3.382  17.683  0.00  0.00    +0.000 C 
ATOM     30  C   UNL     1      47.408   3.708  17.078  0.00  0.00    +0.000 C 
ATOM     31  N   UNL     1      47.047   5.116  17.272  0.00  0.00    +0.000 NA
ATOM     32  C   UNL     1      47.060   5.488  18.690  0.00  0.00    +0.000 C 
ATOM     33  H   UNL     1      46.110   5.266  16.893  0.00  0.00    +0.000 HD
ENDBRANCH  26  27
ENDBRANCH  24  26
ENDBRANCH  23  24
ENDBRANCH   4  23
TORSDOF 7
ENDMDL
MODEL 9
REMARK VINA RESULT:    -6.647      3.393      8.813
REMARK INTER + INTRA:         -10.459
REMARK INTER:                  -9.149
REMARK INTRA:                  -1.310
REMARK UNBOUND:                -1.091
REMARK  Name = 
REMARK  7 active torsions:
REMARK  status: ('A' for Active; 'I' for Inactive)
REMARK    1  A    between atoms: C_2  and  C_20
REMARK    2  A    between atoms: N_3  and  C_4
REMARK    3  A    between atoms: C_4  and  C_5
REMARK    4  A    between atoms: C_8  and  C_9
REMARK    5  A    between atoms: C_9  and  N_10
REMARK    6  A    between atoms: N_10  and  C_11
REMARK    7  A    between atoms: C_11  and  C_12
REMARK                            x       y       z     vdW  Elec       q    Type
REMARK                         _______ _______ _______ _____ _____    ______ ____
ROOT
ATOM      1  C   UNL     1      48.385   6.563  14.800  0.00  0.00    +0.000 A 
ATOM      2  C   UNL     1      48.821   7.500  15.730  0.00  0.00    +0.000 A 
ATOM      3  C   UNL     1      48.864   7.147  17.076  0.00  0.00    +0.000 A 
ATOM      4  C   UNL     1      48.456   5.875  17.483  0.00  0.00    +0.000 A 
ATOM      5  C   UNL     1      48.037   5.005  16.478  0.00  0.00    +0.000 A 
ATOM      6  N   UNL     1      47.983   5.317  15.159  0.00  0.00    +0.000 NA
ENDROOT
BRANCH   1   7
ATOM      7  C   UNL     1      48.390   6.912  13.332  0.00  0.00    +0.000 C 
BRANCH   7  10
ATOM      8  O   UNL     1      46.234   7.745  11.782  0.00  0.00    +0.000 OA
ATOM      9  C   UNL     1      46.541   6.541  11.782  0.00  0.00    +0.000 C 
ATOM     10  N   UNL     1      47.567   6.039  12.538  0.00  0.00    +0.000 N 
ATOM     11  H   UNL     1      47.991   5.161  12.256  0.00  0.00    +0.000 HD
BRANCH   9  12
ATOM     12  C   UNL     1      45.790   5.573  11.002  0.00  0.00    +0.000 A 
ATOM     13  C   UNL     1      45.828   5.536   9.618  0.00  0.00    +0.000 A 
ATOM     14  S   UNL     1      44.885   4.271   8.956  0.00  0.00    +0.000 S 
ATOM     15  C   UNL     1      44.408   3.741  10.502  0.00  0.00    +0.000 A 
ATOM     16  N   UNL     1      43.588   2.671  10.668  0.00  0.00    +0.000 NA
ATOM     17  C   UNL     1      43.329   2.381  11.899  0.00  0.00    +0.000 A 
ATOM     18  N   UNL     1      43.817   3.064  12.985  0.00  0.00    +0.000 N 
ATOM     19  C   UNL     1      44.605   4.184  12.880  0.00  0.00    +0.000 A 
ATOM     20  O   UNL     1      44.909   4.831  13.871  0.00  0.00    +0.000 OA
ATOM     21  C   UNL     1      44.943   4.526  11.508  0.00  0.00    +0.000 A 
ATOM     22  H   UNL     1      43.543   2.805  13.920  0.00  0.00    +0.000 HD
ENDBRANCH   9  12
ENDBRANCH   7  10
ENDBRANCH   1   7
BRANCH   4  23
ATOM     23  C   UNL     1      48.492   5.410  18.924  0.00  0.00    +0.000 C 
BRANCH  23  24
ATOM     24  N   UNL     1      49.737   5.791  19.605  0.00  0.00    +0.000 NA
ATOM     25  H   UNL     1      49.518   6.235  20.495  0.00  0.00    +0.000 HD
BRANCH  24  26
ATOM     26  C   UNL     1      50.673   4.672  19.810  0.00  0.00    +0.000 C 
BRANCH  26  27
ATOM     27  C   UNL     1      51.851   4.730  18.806  0.00  0.00    +0.000 C 
ATOM     28  C   UNL     1      51.537   4.018  17.480  0.00  0.00    +0.000 C 
ATOM     29  C   UNL     1      51.631   2.499  17.589  0.00  0.00    +0.000 C 
ATOM     30  C   UNL     1      52.959   2.059  18.204  0.00  0.00    +0.000 C 
ATOM     31  N   UNL     1      53.208   2.716  19.490  0.00  0.00    +0.000 NA
ATOM     32  C   UNL     1      53.182   4.178  19.366  0.00  0.00    +0.000 C 
ATOM     33  H   UNL     1      54.126   2.425  19.831  0.00  0.00    +0.000 HD
ENDBRANCH  26  27
ENDBRANCH  24  26
ENDBRANCH  23  24
ENDBRANCH   4  23
TORSDOF 7
ENDMDL
