MODEL 1
REMARK VINA RESULT:    -7.821      0.000      0.000
REMARK INTER + INTRA:         -10.382
REMARK INTER:                  -9.650
REMARK INTRA:                  -0.732
REMARK UNBOUND:                -0.732
REMARK  Name = 
REMARK  4 active torsions:
REMARK  status: ('A' for Active; 'I' for Inactive)
REMARK    1  A    between atoms: C_4  and  C_5
REMARK    2  A    between atoms: C_9  and  C_10
REMARK    3  A    between atoms: C_10  and  C_11
REMARK    4  A    between atoms: C_11  and  C_12
REMARK                            x       y       z     vdW  Elec       q    Type
REMARK                         _______ _______ _______ _____ _____    ______ ____
ROOT
ATOM      1  C   UNL     1      46.250   5.961  12.183  0.00  0.00    +0.000 A 
ATOM      2  C   UNL     1      46.352   5.147  13.311  0.00  0.00    +0.000 A 
ATOM      3  N   UNL     1      45.798   3.915  13.438  0.00  0.00    +0.000 NA
ATOM      4  C   UNL     1      45.093   3.453  12.384  0.00  0.00    +0.000 A 
ATOM      5  C   UNL     1      44.920   4.151  11.195  0.00  0.00    +0.000 A 
ATOM      6  C   UNL     1      45.506   5.421  11.121  0.00  0.00    +0.000 A 
ENDROOT
BRANCH   1  10
ATOM      7  C   UNL     1      48.060   9.858  11.818  0.00  0.00    +0.000 A 
ATOM      8  C   UNL     1      48.830   8.712  11.650  0.00  0.00    +0.000 A 
ATOM      9  C   UNL     1      48.247   7.447  11.778  0.00  0.00    +0.000 A 
ATOM     10  C   UNL     1      46.882   7.295  12.087  0.00  0.00    +0.000 A 
ATOM     11  C   UNL     1      46.135   8.476  12.275  0.00  0.00    +0.000 A 
ATOM     12  C   UNL     1      46.712   9.741  12.130  0.00  0.00    +0.000 A 
ENDBRANCH   1  10
BRANCH   5  13
ATOM     13  C   UNL     1      44.077   3.570  10.087  0.00  0.00    +0.000 C 
BRANCH  13  14
ATOM     14  C   UNL     1      44.512   3.972   8.670  0.00  0.00    +0.000 C 
BRANCH  14  15
ATOM     15  C   UNL     1      45.575   3.063   8.119  0.00  0.00    +0.000 A 
ATOM     16  C   UNL     1      46.515   3.521   7.196  0.00  0.00    +0.000 A 
ATOM     17  C   UNL     1      47.480   2.644   6.707  0.00  0.00    +0.000 A 
ATOM     18  C   UNL     1      47.472   1.338   7.167  0.00  0.00    +0.000 A 
ATOM     19  N   UNL     1      46.585   0.861   8.064  0.00  0.00    +0.000 NA
ATOM     20  C   UNL     1      45.659   1.733   8.520  0.00  0.00    +0.000 A 
ENDBRANCH  14  15
ENDBRANCH  13  14
ENDBRANCH   5  13
TORSDOF 4
ENDMDL
MODEL 2
REMARK VINA RESULT:    -7.808      1.765      6.402
REMARK INTER + INTRA:         -10.366
REMARK INTER:                  -9.591
REMARK INTRA:                  -0.774
REMARK UNBOUND:                -0.732
REMARK  Name = 
REMARK  4 active torsions:
REMARK  status: ('A' for Active; 'I' for Inactive)
REMARK    1  A    between atoms: C_4  and  C_5
REMARK    2  A    between atoms: C_9  and  C_10
REMARK    3  A    between atoms: C_10  and  C_11
REMARK    4  A    between atoms: C_11  and  C_12
REMARK                            x       y       z     vdW  Elec       q    Type
REMARK                         _______ _______ _______ _____ _____    ______ ____
ROOT
ATOM      1  C   UNL     1      45.085   3.180   9.189  0.00  0.00    +0.000 A 
ATOM      2  C   UNL     1      44.224   2.351   9.907  0.00  0.00    +0.000 A 
ATOM      3  N   UNL     1      43.462   2.740  10.960  0.00  0.00    +0.000 NA
ATOM      4  C   UNL     1      43.556   4.033  11.334  0.00  0.00    +0.000 A 
ATOM      5  C   UNL     1      44.364   4.972  10.703  0.00  0.00    +0.000 A 
ATOM      6  C   UNL     1      45.135   4.514   9.626  0.00  0.00    +0.000 A 
ENDROOT
BRANCH   1  10
ATOM      7  C   UNL     1      47.504   1.829   5.883  0.00  0.00    +0.000 A 
ATOM      8  C   UNL     1      46.972   3.114   5.880  0.00  0.00    +0.000 A 
ATOM      9  C   UNL     1      46.179   3.552   6.947  0.00  0.00    +0.000 A 
ATOM     10  C   UNL     1      45.889   2.712   8.038  0.00  0.00    +0.000 A 
ATOM     11  C   UNL     1      46.422   1.407   8.000  0.00  0.00    +0.000 A 
ATOM     12  C   UNL     1      47.230   0.974   6.943  0.00  0.00    +0.000 A 
ENDBRANCH   1  10
BRANCH   5  13
ATOM     13  C   UNL     1      44.436   6.387  11.221  0.00  0.00    +0.000 C 
BRANCH  13  14
ATOM     14  C   UNL     1      44.974   6.520  12.653  0.00  0.00    +0.000 C 
BRANCH  14  15
ATOM     15  C   UNL     1      46.466   6.702  12.689  0.00  0.00    +0.000 A 
ATOM     16  C   UNL     1      47.111   7.580  11.820  0.00  0.00    +0.000 A 
ATOM     17  C   UNL     1      48.496   7.715  11.884  0.00  0.00    +0.000 A 
ATOM     18  C   UNL     1      49.185   6.968  12.824  0.00  0.00    +0.000 A 
ATOM     19  N   UNL     1      48.595   6.114  13.686  0.00  0.00    +0.000 NA
ATOM     20  C   UNL     1      47.251   6.002  13.601  0.00  0.00    +0.000 A 
ENDBRANCH  14  15
ENDBRANCH  13  14
ENDBRANCH   5  13
TORSDOF 4
ENDMDL
MODEL 3
REMARK VINA RESULT:    -6.939      2.245      6.656
REMARK INTER + INTRA:          -9.293
REMARK INTER:                  -8.610
REMARK INTRA:                  -0.683
REMARK UNBOUND:                -0.732
REMARK  Name = 
REMARK  4 active torsions:
REMARK  status: ('A' for Active; 'I' for Inactive)
REMARK    1  A    between atoms: C_4  and  C_5
REMARK    2  A    between atoms: C_9  and  C_10
REMARK    3  A    between atoms: C_10  and  C_11
REMARK    4  A    between atoms: C_11  and  C_12
REMARK                            x       y       z     vdW  Elec       q    Type
REMARK                         _______ _______ _______ _____ _____    ______ ____
ROOT
ATOM      1  C   UNL     1      44.881   4.315   9.947  0.00  0.00    +0.000 A 
ATOM      2  C   UNL     1      43.544   4.171  10.315  0.00  0.00    +0.000 A 
ATOM      3  N   UNL     1      42.914   4.900  11.270  0.00  0.00    +0.000 NA
ATOM      4  C   UNL     1      43.650   5.833  11.909  0.00  0.00    +0.000 A 
ATOM      5  C   UNL     1      44.989   6.091  11.636  0.00  0.00    +0.000 A 
ATOM      6  C   UNL     1      45.591   5.304  10.646  0.00  0.00    +0.000 A 
ENDROOT
BRANCH   1  10
ATOM      7  C   UNL     1      46.825   1.939   6.916  0.00  0.00    +0.000 A 
ATOM      8  C   UNL     1      46.782   3.324   6.797  0.00  0.00    +0.000 A 
ATOM      9  C   UNL     1      46.144   4.096   7.774  0.00  0.00    +0.000 A 
ATOM     10  C   UNL     1      45.523   3.503   8.889  0.00  0.00    +0.000 A 
ATOM     11  C   UNL     1      45.562   2.096   8.968  0.00  0.00    +0.000 A 
ATOM     12  C   UNL     1      46.216   1.324   8.002  0.00  0.00    +0.000 A 
ENDBRANCH   1  10
BRANCH   5  13
ATOM     13  C   UNL     1      45.742   7.127  12.434  0.00  0.00    +0.000 C 
BRANCH  13  14
ATOM     14  C   UNL     1      47.237   6.830  12.623  0.00  0.00    +0.000 C 
BRANCH  14  15
ATOM     15  C   UNL     1      47.517   6.100  13.907  0.00  0.00    +0.000 A 
ATOM     16  C   UNL     1      46.861   4.911  14.225  0.00  0.00    +0.000 A 
ATOM     17  C   UNL     1      47.148   4.270  15.428  0.00  0.00    +0.000 A 
ATOM     18  C   UNL     1      48.089   4.841  16.267  0.00  0.00    +0.000 A 
ATOM     19  N   UNL     1      48.750   5.985  15.991  0.00  0.00    +0.000 NA
ATOM     20  C   UNL     1      48.450   6.587  14.818  0.00  0.00    +0.000 A 
ENDBRANCH  14  15
ENDBRANCH  13  14
ENDBRANCH   5  13
TORSDOF 4
ENDMDL
MODEL 4
REMARK VINA RESULT:    -6.643      2.452      3.933
REMARK INTER + INTRA:          -8.928
REMARK INTER:                  -8.337
REMARK INTRA:                  -0.591
REMARK UNBOUND:                -0.732
REMARK  Name = 
REMARK  4 active torsions:
REMARK  status: ('A' for Active; 'I' for Inactive)
REMARK    1  A    between atoms: C_4  and  C_5
REMARK    2  A    between atoms: C_9  and  C_10
REMARK    3  A    between atoms: C_10  and  C_11
REMARK    4  A    between atoms: C_11  and  C_12
REMARK                            x       y       z     vdW  Elec       q    Type
REMARK                         _______ _______ _______ _____ _____    ______ ____
ROOT
ATOM      1  C   UNL     1      46.969   5.019  14.007  0.00  0.00    +0.000 A 
ATOM      2  C   UNL     1      47.363   6.165  13.316  0.00  0.00    +0.000 A 
ATOM      3  N   UNL     1      46.841   6.584  12.136  0.00  0.00    +0.000 NA
ATOM      4  C   UNL     1      45.866   5.823  11.597  0.00  0.00    +0.000 A 
ATOM      5  C   UNL     1      45.368   4.664  12.182  0.00  0.00    +0.000 A 
ATOM      6  C   UNL     1      45.949   4.273  13.395  0.00  0.00    +0.000 A 
ENDROOT
BRANCH   1  10
ATOM      7  C   UNL     1      48.779   3.823  17.735  0.00  0.00    +0.000 A 
ATOM      8  C   UNL     1      48.160   2.878  16.924  0.00  0.00    +0.000 A 
ATOM      9  C   UNL     1      47.563   3.265  15.719  0.00  0.00    +0.000 A 
ATOM     10  C   UNL     1      47.562   4.608  15.299  0.00  0.00    +0.000 A 
ATOM     11  C   UNL     1      48.176   5.546  16.155  0.00  0.00    +0.000 A 
ATOM     12  C   UNL     1      48.789   5.158  17.351  0.00  0.00    +0.000 A 
ENDBRANCH   1  10
BRANCH   5  13
ATOM     13  C   UNL     1      44.305   3.854  11.481  0.00  0.00    +0.000 C 
BRANCH  13  14
ATOM     14  C   UNL     1      44.093   4.214  10.003  0.00  0.00    +0.000 C 
BRANCH  14  15
ATOM     15  C   UNL     1      45.012   3.452   9.091  0.00  0.00    +0.000 A 
ATOM     16  C   UNL     1      45.732   4.093   8.083  0.00  0.00    +0.000 A 
ATOM     17  C   UNL     1      46.569   3.348   7.257  0.00  0.00    +0.000 A 
ATOM     18  C   UNL     1      46.660   1.984   7.475  0.00  0.00    +0.000 A 
ATOM     19  N   UNL     1      45.986   1.329   8.443  0.00  0.00    +0.000 NA
ATOM     20  C   UNL     1      45.180   2.077   9.229  0.00  0.00    +0.000 A 
ENDBRANCH  14  15
ENDBRANCH  13  14
ENDBRANCH   5  13
TORSDOF 4
ENDMDL
MODEL 5
REMARK VINA RESULT:    -6.323      2.322      7.064
REMARK INTER + INTRA:          -8.533
REMARK INTER:                  -7.864
REMARK INTRA:                  -0.669
REMARK UNBOUND:                -0.732
REMARK  Name = 
REMARK  4 active torsions:
REMARK  status: ('A' for Active; 'I' for Inactive)
REMARK    1  A    between atoms: C_4  and  C_5
REMARK    2  A    between atoms: C_9  and  C_10
REMARK    3  A    between atoms: C_10  and  C_11
REMARK    4  A    between atoms: C_11  and  C_12
REMARK                            x       y       z     vdW  Elec       q    Type
REMARK                         _______ _______ _______ _____ _____    ______ ____
ROOT
ATOM      1  C   UNL     1      44.812   4.371  10.184  0.00  0.00    +0.000 A 
ATOM      2  C   UNL     1      43.466   4.221  10.519  0.00  0.00    +0.000 A 
ATOM      3  N   UNL     1      42.829   4.891  11.511  0.00  0.00    +0.000 NA
ATOM      4  C   UNL     1      43.566   5.767  12.226  0.00  0.00    +0.000 A 
ATOM      5  C   UNL     1      44.912   6.025  11.994  0.00  0.00    +0.000 A 
ATOM      6  C   UNL     1      45.522   5.300  10.962  0.00  0.00    +0.000 A 
ENDROOT
BRANCH   1  10
ATOM      7  C   UNL     1      46.779   2.187   7.028  0.00  0.00    +0.000 A 
ATOM      8  C   UNL     1      46.715   3.575   6.981  0.00  0.00    +0.000 A 
ATOM      9  C   UNL     1      46.069   4.285   7.999  0.00  0.00    +0.000 A 
ATOM     10  C   UNL     1      45.461   3.625   9.083  0.00  0.00    +0.000 A 
ATOM     11  C   UNL     1      45.523   2.216   9.089  0.00  0.00    +0.000 A 
ATOM     12  C   UNL     1      46.184   1.506   8.082  0.00  0.00    +0.000 A 
ENDBRANCH   1  10
BRANCH   5  13
ATOM     13  C   UNL     1      45.664   6.992  12.875  0.00  0.00    +0.000 C 
BRANCH  13  14
ATOM     14  C   UNL     1      46.723   7.833  12.148  0.00  0.00    +0.000 C 
BRANCH  14  15
ATOM     15  C   UNL     1      46.301   9.266  11.981  0.00  0.00    +0.000 A 
ATOM     16  C   UNL     1      44.967   9.610  11.771  0.00  0.00    +0.000 A 
ATOM     17  C   UNL     1      44.620  10.950  11.617  0.00  0.00    +0.000 A 
ATOM     18  C   UNL     1      45.625  11.900  11.686  0.00  0.00    +0.000 A 
ATOM     19  N   UNL     1      46.925  11.606  11.896  0.00  0.00    +0.000 NA
ATOM     20  C   UNL     1      47.233  10.298  12.040  0.00  0.00    +0.000 A 
ENDBRANCH  14  15
ENDBRANCH  13  14
ENDBRANCH   5  13
TORSDOF 4
ENDMDL
MODEL 6
REMARK VINA RESULT:    -6.120      1.661      2.546
REMARK INTER + INTRA:          -8.283
REMARK INTER:                  -7.720
REMARK INTRA:                  -0.563
REMARK UNBOUND:                -0.732
REMARK  Name = 
REMARK  4 active torsions:
REMARK  status: ('A' for Active; 'I' for Inactive)
REMARK    1  A    between atoms: C_4  and  C_5
REMARK    2  A    between atoms: C_9  and  C_10
REMARK    3  A    between atoms: C_10  and  C_11
REMARK    4  A    between atoms: C_11  and  C_12
REMARK                            x       y       z     vdW  Elec       q    Type
REMARK                         _______ _______ _______ _____ _____    ______ ____
ROOT
ATOM      1  C   UNL     1      45.249   8.046  11.996  0.00  0.00    +0.000 A 
ATOM      2  C   UNL     1      46.022   7.402  12.962  0.00  0.00    +0.000 A 
ATOM      3  N   UNL     1      46.045   6.062  13.177  0.00  0.00    +0.000 NA
ATOM      4  C   UNL     1      45.251   5.305  12.392  0.00  0.00    +0.000 A 
ATOM      5  C   UNL     1      44.439   5.813  11.384  0.00  0.00    +0.000 A 
ATOM      6  C   UNL     1      44.448   7.203  11.210  0.00  0.00    +0.000 A 
ENDROOT
BRANCH   1  10
ATOM      7  C   UNL     1      45.296  12.329  11.488  0.00  0.00    +0.000 A 
ATOM      8  C   UNL     1      44.120  11.615  11.286  0.00  0.00    +0.000 A 
ATOM      9  C   UNL     1      44.105  10.225  11.441  0.00  0.00    +0.000 A 
ATOM     10  C   UNL     1      45.267   9.512  11.790  0.00  0.00    +0.000 A 
ATOM     11  C   UNL     1      46.449  10.262  11.964  0.00  0.00    +0.000 A 
ATOM     12  C   UNL     1      46.462  11.654  11.827  0.00  0.00    +0.000 A 
ENDBRANCH   1  10
BRANCH   5  13
ATOM     13  C   UNL     1      43.551   4.891  10.585  0.00  0.00    +0.000 C 
BRANCH  13  14
ATOM     14  C   UNL     1      44.030   3.433  10.523  0.00  0.00    +0.000 C 
BRANCH  14  15
ATOM     15  C   UNL     1      44.957   3.184   9.366  0.00  0.00    +0.000 A 
ATOM     16  C   UNL     1      45.430   4.231   8.576  0.00  0.00    +0.000 A 
ATOM     17  C   UNL     1      46.284   3.955   7.511  0.00  0.00    +0.000 A 
ATOM     18  C   UNL     1      46.639   2.637   7.279  0.00  0.00    +0.000 A 
ATOM     19  N   UNL     1      46.208   1.599   8.025  0.00  0.00    +0.000 NA
ATOM     20  C   UNL     1      45.379   1.896   9.051  0.00  0.00    +0.000 A 
ENDBRANCH  14  15
ENDBRANCH  13  14
ENDBRANCH   5  13
TORSDOF 4
ENDMDL
MODEL 7
REMARK VINA RESULT:    -6.051      2.040      6.452
REMARK INTER + INTRA:          -8.197
REMARK INTER:                  -7.417
REMARK INTRA:                  -0.780
REMARK UNBOUND:                -0.732
REMARK  Name = 
REMARK  4 active torsions:
REMARK  status: ('A' for Active; 'I' for Inactive)
REMARK    1  A    between atoms: C_4  and  C_5
REMARK    2  A    between atoms: C_9  and  C_10
REMARK    3  A    between atoms: C_10  and  C_11
REMARK    4  A    between atoms: C_11  and  C_12
REMARK                            x       y       z     vdW  Elec       q    Type
REMARK                         _______ _______ _______ _____ _____    ______ ____
ROOT
ATOM      1  C   UNL     1      44.897   4.489  10.649  0.00  0.00    +0.000 A 
ATOM      2  C   UNL     1      44.007   3.940  11.573  0.00  0.00    +0.000 A 
ATOM      3  N   UNL     1      43.497   4.592  12.647  0.00  0.00    +0.000 NA
ATOM      4  C   UNL     1      43.891   5.870  12.828  0.00  0.00    +0.000 A 
ATOM      5  C   UNL     1      44.762   6.545  11.980  0.00  0.00    +0.000 A 
ATOM      6  C   UNL     1      45.264   5.822  10.891  0.00  0.00    +0.000 A 
ENDROOT
BRANCH   1  10
ATOM      7  C   UNL     1      46.337   2.324   7.207  0.00  0.00    +0.000 A 
ATOM      8  C   UNL     1      45.842   1.634   8.309  0.00  0.00    +0.000 A 
ATOM      9  C   UNL     1      45.383   2.334   9.430  0.00  0.00    +0.000 A 
ATOM     10  C   UNL     1      45.418   3.740   9.483  0.00  0.00    +0.000 A 
ATOM     11  C   UNL     1      45.948   4.409   8.360  0.00  0.00    +0.000 A 
ATOM     12  C   UNL     1      46.390   3.712   7.231  0.00  0.00    +0.000 A 
ENDBRANCH   1  10
BRANCH   5  13
ATOM     13  C   UNL     1      45.178   7.962  12.289  0.00  0.00    +0.000 C 
BRANCH  13  14
ATOM     14  C   UNL     1      46.346   8.088  13.278  0.00  0.00    +0.000 C 
BRANCH  14  15
ATOM     15  C   UNL     1      47.645   8.404  12.593  0.00  0.00    +0.000 A 
ATOM     16  C   UNL     1      48.572   7.406  12.295  0.00  0.00    +0.000 A 
ATOM     17  C   UNL     1      49.766   7.744  11.664  0.00  0.00    +0.000 A 
ATOM     18  C   UNL     1      49.986   9.073  11.346  0.00  0.00    +0.000 A 
ATOM     19  N   UNL     1      49.111  10.065  11.611  0.00  0.00    +0.000 NA
ATOM     20  C   UNL     1      47.962   9.709  12.226  0.00  0.00    +0.000 A 
ENDBRANCH  14  15
ENDBRANCH  13  14
ENDBRANCH   5  13
TORSDOF 4
ENDMDL
MODEL 8
REMARK VINA RESULT:    -6.011      2.815      6.975
REMARK INTER + INTRA:          -8.149
REMARK INTER:                  -7.574
REMARK INTRA:                  -0.575
REMARK UNBOUND:                -0.732
REMARK  Name = 
REMARK  4 active torsions:
REMARK  status: ('A' for Active; 'I' for Inactive)
REMARK    1  A    between atoms: C_4  and  C_5
REMARK    2  A    between atoms: C_9  and  C_10
REMARK    3  A    between atoms: C_10  and  C_11
REMARK    4  A    between atoms: C_11  and  C_12
REMARK                            x       y       z     vdW  Elec       q    Type
REMARK                         _______ _______ _______ _____ _____    ______ ____
ROOT
ATOM      1  C   UNL     1      45.826   6.191  11.694  0.00  0.00    +0.000 A 
ATOM      2  C   UNL     1      45.182   7.417  11.860  0.00  0.00    +0.000 A 
ATOM      3  N   UNL     1      45.617   8.425  12.656  0.00  0.00    +0.000 NA
ATOM      4  C   UNL     1      46.761   8.212  13.339  0.00  0.00    +0.000 A 
ATOM      5  C   UNL     1      47.510   7.045  13.260  0.00  0.00    +0.000 A 
ATOM      6  C   UNL     1      47.012   6.033  12.429  0.00  0.00    +0.000 A 
ENDROOT
BRANCH   1  10
ATOM      7  C   UNL     1      44.420   3.028   9.120  0.00  0.00    +0.000 A 
ATOM      8  C   UNL     1      45.092   4.119   8.581  0.00  0.00    +0.000 A 
ATOM      9  C   UNL     1      45.541   5.151   9.413  0.00  0.00    +0.000 A 
ATOM     10  C   UNL     1      45.319   5.123  10.803  0.00  0.00    +0.000 A 
ATOM     11  C   UNL     1      44.613   4.015  11.315  0.00  0.00    +0.000 A 
ATOM     12  C   UNL     1      44.180   2.974  10.487  0.00  0.00    +0.000 A 
ENDBRANCH   1  10
BRANCH   5  13
ATOM     13  C   UNL     1      48.756   6.881  14.096  0.00  0.00    +0.000 C 
BRANCH  13  14
ATOM     14  C   UNL     1      48.518   6.893  15.613  0.00  0.00    +0.000 C 
BRANCH  14  15
ATOM     15  C   UNL     1      48.428   5.508  16.189  0.00  0.00    +0.000 A 
ATOM     16  C   UNL     1      49.345   5.055  17.137  0.00  0.00    +0.000 A 
ATOM     17  C   UNL     1      49.228   3.762  17.641  0.00  0.00    +0.000 A 
ATOM     18  C   UNL     1      48.190   2.970  17.181  0.00  0.00    +0.000 A 
ATOM     19  N   UNL     1      47.280   3.375  16.271  0.00  0.00    +0.000 NA
ATOM     20  C   UNL     1      47.418   4.633  15.797  0.00  0.00    +0.000 A 
ENDBRANCH  14  15
ENDBRANCH  13  14
ENDBRANCH   5  13
TORSDOF 4
ENDMDL
MODEL 9
REMARK VINA RESULT:    -5.880      3.133      5.076
REMARK INTER + INTRA:          -7.987
REMARK INTER:                  -7.341
REMARK INTRA:                  -0.646
REMARK UNBOUND:                -0.732
REMARK  Name = 
REMARK  4 active torsions:
REMARK  status: ('A' for Active; 'I' for Inactive)
REMARK    1  A    between atoms: C_4  and  C_5
REMARK    2  A    between atoms: C_9  and  C_10
REMARK    3  A    between atoms: C_10  and  C_11
REMARK    4  A    between atoms: C_11  and  C_12
REMARK                            x       y       z     vdW  Elec       q    Type
REMARK                         _______ _______ _______ _____ _____    ______ ____
ROOT
ATOM      1  C   UNL     1      48.191   6.133  14.914  0.00  0.00    +0.000 A 
ATOM      2  C   UNL     1      48.953   7.300  14.879  0.00  0.00    +0.000 A 
ATOM      3  N   UNL     1      48.987   8.180  13.847  0.00  0.00    +0.000 NA
ATOM      4  C   UNL     1      48.220   7.891  12.775  0.00  0.00    +0.000 A 
ATOM      5  C   UNL     1      47.404   6.770  12.679  0.00  0.00    +0.000 A 
ATOM      6  C   UNL     1      47.413   5.891  13.770  0.00  0.00    +0.000 A 
ENDROOT
BRANCH   1  10
ATOM      7  C   UNL     1      48.226   3.393  18.245  0.00  0.00    +0.000 A 
ATOM      8  C   UNL     1      47.300   3.234  17.220  0.00  0.00    +0.000 A 
ATOM      9  C   UNL     1      47.280   4.128  16.143  0.00  0.00    +0.000 A 
ATOM     10  C   UNL     1      48.179   5.208  16.070  0.00  0.00    +0.000 A 
ATOM     11  C   UNL     1      49.089   5.356  17.136  0.00  0.00    +0.000 A 
ATOM     12  C   UNL     1      49.122   4.454  18.204  0.00  0.00    +0.000 A 
ENDBRANCH   1  10
BRANCH   5  13
ATOM     13  C   UNL     1      46.614   6.508  11.420  0.00  0.00    +0.000 C 
BRANCH  13  14
ATOM     14  C   UNL     1      45.270   5.800  11.641  0.00  0.00    +0.000 C 
BRANCH  14  15
ATOM     15  C   UNL     1      45.016   4.723  10.624  0.00  0.00    +0.000 A 
ATOM     16  C   UNL     1      45.496   4.829   9.319  0.00  0.00    +0.000 A 
ATOM     17  C   UNL     1      45.234   3.810   8.407  0.00  0.00    +0.000 A 
ATOM     18  C   UNL     1      44.504   2.715   8.838  0.00  0.00    +0.000 A 
ATOM     19  N   UNL     1      44.029   2.574  10.093  0.00  0.00    +0.000 NA
ATOM     20  C   UNL     1      44.297   3.579  10.956  0.00  0.00    +0.000 A 
ENDBRANCH  14  15
ENDBRANCH  13  14
ENDBRANCH   5  13
TORSDOF 4
ENDMDL
