MODEL 1
REMARK VINA RESULT:    -7.761      0.000      0.000
REMARK INTER + INTRA:         -11.189
REMARK INTER:                 -10.257
REMARK INTRA:                  -0.933
REMARK UNBOUND:                -0.933
REMARK  Name = 
REMARK  6 active torsions:
REMARK  status: ('A' for Active; 'I' for Inactive)
REMARK    1  A    between atoms: C_2  and  C_19
REMARK    2  A    between atoms: N_3  and  C_4
REMARK    3  A    between atoms: C_4  and  C_5
REMARK    4  A    between atoms: C_8  and  C_9
REMARK    5  A    between atoms: C_9  and  O_10
REMARK    6  A    between atoms: C_9  and  C_11
REMARK                            x       y       z     vdW  Elec       q    Type
REMARK                         _______ _______ _______ _____ _____    ______ ____
ROOT
ATOM      1  C   UNL     1      47.955   7.512  14.159  0.00  0.00    +0.000 C 
ENDROOT
BRANCH   1   2
ATOM      2  C   UNL     1      47.048   6.728  13.242  0.00  0.00    +0.000 A 
ATOM      3  C   UNL     1      46.410   7.353  12.165  0.00  0.00    +0.000 A 
ATOM      4  C   UNL     1      45.532   6.639  11.343  0.00  0.00    +0.000 A 
ATOM      5  C   UNL     1      45.253   5.287  11.597  0.00  0.00    +0.000 A 
ATOM      6  C   UNL     1      45.868   4.671  12.699  0.00  0.00    +0.000 A 
ATOM      7  C   UNL     1      46.753   5.383  13.512  0.00  0.00    +0.000 A 
BRANCH   5   8
ATOM      8  C   UNL     1      44.302   4.510  10.699  0.00  0.00    +0.000 C 
BRANCH   8   9
ATOM      9  C   UNL     1      44.993   3.829   9.550  0.00  0.00    +0.000 A 
ATOM     10  C   UNL     1      45.129   2.455   9.489  0.00  0.00    +0.000 A 
ATOM     11  N   UNL     1      45.794   1.798   8.510  0.00  0.00    +0.000 NA
ATOM     12  C   UNL     1      46.321   2.579   7.556  0.00  0.00    +0.000 A 
ATOM     13  N   UNL     1      46.230   3.911   7.486  0.00  0.00    +0.000 NA
ATOM     14  C   UNL     1      45.560   4.510   8.491  0.00  0.00    +0.000 A 
ENDBRANCH   8   9
BRANCH   8  15
ATOM     15  O   UNL     1      43.285   5.384  10.205  0.00  0.00    +0.000 OA
ATOM     16  H   UNL     1      42.431   4.924  10.269  0.00  0.00    +0.000 HD
ENDBRANCH   8  15
ENDBRANCH   5   8
ENDBRANCH   1   2
BRANCH   1  19
ATOM     17  O   UNL     1      48.497   8.176  16.902  0.00  0.00    +0.000 OA
ATOM     18  C   UNL     1      48.751   7.064  16.459  0.00  0.00    +0.000 C 
ATOM     19  N   UNL     1      48.444   6.638  15.189  0.00  0.00    +0.000 N 
ATOM     20  H   UNL     1      48.864   5.784  14.865  0.00  0.00    +0.000 HD
BRANCH  18  21
ATOM     21  C   UNL     1      49.605   6.093  17.137  0.00  0.00    +0.000 A 
ATOM     22  C   UNL     1      50.850   6.418  17.646  0.00  0.00    +0.000 A 
ATOM     23  S   UNL     1      51.826   5.023  17.866  0.00  0.00    +0.000 S 
ATOM     24  C   UNL     1      50.554   3.986  17.400  0.00  0.00    +0.000 A 
ATOM     25  N   UNL     1      50.731   2.653  17.204  0.00  0.00    +0.000 NA
ATOM     26  C   UNL     1      49.651   2.016  16.883  0.00  0.00    +0.000 A 
ATOM     27  N   UNL     1      48.400   2.578  16.797  0.00  0.00    +0.000 N 
ATOM     28  C   UNL     1      48.168   3.916  17.008  0.00  0.00    +0.000 A 
ATOM     29  O   UNL     1      47.038   4.389  17.002  0.00  0.00    +0.000 OA
ATOM     30  C   UNL     1      49.376   4.682  17.234  0.00  0.00    +0.000 A 
ATOM     31  H   UNL     1      47.586   2.008  16.619  0.00  0.00    +0.000 HD
ENDBRANCH  18  21
ENDBRANCH   1  19
TORSDOF 6
ENDMDL
MODEL 2
REMARK VINA RESULT:    -7.588      2.740      8.248
REMARK INTER + INTRA:         -10.960
REMARK INTER:                 -10.021
REMARK INTRA:                  -0.939
REMARK UNBOUND:                -0.933
REMARK  Name = 
REMARK  6 active torsions:
REMARK  status: ('A' for Active; 'I' for Inactive)
REMARK    1  A    between atoms: C_2  and  C_19
REMARK    2  A    between atoms: N_3  and  C_4
REMARK    3  A    between atoms: C_4  and  C_5
REMARK    4  A    between atoms: C_8  and  C_9
REMARK    5  A    between atoms: C_9  and  O_10
REMARK    6  A    between atoms: C_9  and  C_11
REMARK                            x       y       z     vdW  Elec       q    Type
REMARK                         _______ _______ _______ _____ _____    ______ ____
ROOT
ATOM      1  C   UNL     1      47.316   6.752  12.685  0.00  0.00    +0.000 C 
ENDROOT
BRANCH   1   2
ATOM      2  C   UNL     1      47.607   6.117  14.023  0.00  0.00    +0.000 A 
ATOM      3  C   UNL     1      48.548   6.684  14.891  0.00  0.00    +0.000 A 
ATOM      4  C   UNL     1      48.853   6.071  16.111  0.00  0.00    +0.000 A 
ATOM      5  C   UNL     1      48.241   4.862  16.479  0.00  0.00    +0.000 A 
ATOM      6  C   UNL     1      47.323   4.279  15.591  0.00  0.00    +0.000 A 
ATOM      7  C   UNL     1      47.012   4.898  14.378  0.00  0.00    +0.000 A 
BRANCH   5   8
ATOM      8  C   UNL     1      48.570   4.200  17.808  0.00  0.00    +0.000 C 
BRANCH   8   9
ATOM      9  C   UNL     1      49.831   3.382  17.769  0.00  0.00    +0.000 A 
ATOM     10  C   UNL     1      51.030   3.864  18.258  0.00  0.00    +0.000 A 
ATOM     11  N   UNL     1      52.205   3.194  18.192  0.00  0.00    +0.000 NA
ATOM     12  C   UNL     1      52.138   1.984  17.618  0.00  0.00    +0.000 A 
ATOM     13  N   UNL     1      51.037   1.396  17.137  0.00  0.00    +0.000 NA
ATOM     14  C   UNL     1      49.899   2.114  17.228  0.00  0.00    +0.000 A 
ENDBRANCH   8   9
BRANCH   8  15
ATOM     15  O   UNL     1      47.473   3.381  18.220  0.00  0.00    +0.000 OA
ATOM     16  H   UNL     1      47.400   3.436  19.188  0.00  0.00    +0.000 HD
ENDBRANCH   8  15
ENDBRANCH   5   8
ENDBRANCH   1   2
BRANCH   1  19
ATOM     17  O   UNL     1      44.808   7.305  11.395  0.00  0.00    +0.000 OA
ATOM     18  C   UNL     1      45.285   6.179  11.391  0.00  0.00    +0.000 C 
ATOM     19  N   UNL     1      46.516   5.847  11.905  0.00  0.00    +0.000 N 
ATOM     20  H   UNL     1      46.729   4.872  12.026  0.00  0.00    +0.000 HD
BRANCH  18  21
ATOM     21  C   UNL     1      44.536   4.978  11.032  0.00  0.00    +0.000 A 
ATOM     22  C   UNL     1      43.528   4.460  11.826  0.00  0.00    +0.000 A 
ATOM     23  S   UNL     1      43.227   2.809  11.466  0.00  0.00    +0.000 S 
ATOM     24  C   UNL     1      44.349   2.822  10.182  0.00  0.00    +0.000 A 
ATOM     25  N   UNL     1      44.722   1.693   9.523  0.00  0.00    +0.000 NA
ATOM     26  C   UNL     1      45.559   1.893   8.557  0.00  0.00    +0.000 A 
ATOM     27  N   UNL     1      46.012   3.125   8.150  0.00  0.00    +0.000 N 
ATOM     28  C   UNL     1      45.647   4.296   8.769  0.00  0.00    +0.000 A 
ATOM     29  O   UNL     1      45.999   5.392   8.349  0.00  0.00    +0.000 OA
ATOM     30  C   UNL     1      44.819   4.094   9.941  0.00  0.00    +0.000 A 
ATOM     31  H   UNL     1      46.603   3.218   7.336  0.00  0.00    +0.000 HD
ENDBRANCH  18  21
ENDBRANCH   1  19
TORSDOF 6
ENDMDL
MODEL 3
REMARK VINA RESULT:    -7.397      1.552      2.025
REMARK INTER + INTRA:         -10.708
REMARK INTER:                  -9.832
REMARK INTRA:                  -0.876
REMARK UNBOUND:                -0.933
REMARK  Name = 
REMARK  6 active torsions:
REMARK  status: ('A' for Active; 'I' for Inactive)
REMARK    1  A    between atoms: C_2  and  C_19
REMARK    2  A    between atoms: N_3  and  C_4
REMARK    3  A    between atoms: C_4  and  C_5
REMARK    4  A    between atoms: C_8  and  C_9
REMARK    5  A    between atoms: C_9  and  O_10
REMARK    6  A    between atoms: C_9  and  C_11
REMARK                            x       y       z     vdW  Elec       q    Type
REMARK                         _______ _______ _______ _____ _____    ______ ____
ROOT
ATOM      1  C   UNL     1      47.991   8.461  13.715  0.00  0.00    +0.000 C 
ENDROOT
BRANCH   1   2
ATOM      2  C   UNL     1      46.997   7.544  13.044  0.00  0.00    +0.000 A 
ATOM      3  C   UNL     1      47.332   6.214  12.762  0.00  0.00    +0.000 A 
ATOM      4  C   UNL     1      46.429   5.377  12.098  0.00  0.00    +0.000 A 
ATOM      5  C   UNL     1      45.180   5.859  11.677  0.00  0.00    +0.000 A 
ATOM      6  C   UNL     1      44.861   7.203  11.930  0.00  0.00    +0.000 A 
ATOM      7  C   UNL     1      45.759   8.035  12.604  0.00  0.00    +0.000 A 
BRANCH   5   8
ATOM      8  C   UNL     1      44.198   4.946  10.960  0.00  0.00    +0.000 C 
BRANCH   8   9
ATOM      9  C   UNL     1      44.835   4.123   9.874  0.00  0.00    +0.000 A 
ATOM     10  C   UNL     1      45.452   4.705   8.783  0.00  0.00    +0.000 A 
ATOM     11  N   UNL     1      45.985   4.011   7.750  0.00  0.00    +0.000 NA
ATOM     12  C   UNL     1      45.894   2.678   7.852  0.00  0.00    +0.000 A 
ATOM     13  N   UNL     1      45.352   1.998   8.868  0.00  0.00    +0.000 NA
ATOM     14  C   UNL     1      44.834   2.743   9.865  0.00  0.00    +0.000 A 
ENDBRANCH   8   9
BRANCH   8  15
ATOM     15  O   UNL     1      43.129   5.724  10.415  0.00  0.00    +0.000 OA
ATOM     16  H   UNL     1      43.430   6.646  10.345  0.00  0.00    +0.000 HD
ENDBRANCH   8  15
ENDBRANCH   5   8
ENDBRANCH   1   2
BRANCH   1  19
ATOM     17  O   UNL     1      49.957   6.868  15.077  0.00  0.00    +0.000 OA
ATOM     18  C   UNL     1      48.980   7.306  15.668  0.00  0.00    +0.000 C 
ATOM     19  N   UNL     1      48.042   8.145  15.116  0.00  0.00    +0.000 N 
ATOM     20  H   UNL     1      47.185   8.291  15.621  0.00  0.00    +0.000 HD
BRANCH  18  21
ATOM     21  C   UNL     1      48.545   6.839  16.981  0.00  0.00    +0.000 A 
ATOM     22  C   UNL     1      48.502   7.665  18.091  0.00  0.00    +0.000 A 
ATOM     23  S   UNL     1      48.504   6.760  19.551  0.00  0.00    +0.000 S 
ATOM     24  C   UNL     1      48.441   5.280  18.704  0.00  0.00    +0.000 A 
ATOM     25  N   UNL     1      48.577   4.077  19.321  0.00  0.00    +0.000 NA
ATOM     26  C   UNL     1      48.473   3.059  18.529  0.00  0.00    +0.000 A 
ATOM     27  N   UNL     1      48.188   3.132  17.187  0.00  0.00    +0.000 N 
ATOM     28  C   UNL     1      48.020   4.323  16.523  0.00  0.00    +0.000 A 
ATOM     29  O   UNL     1      47.691   4.370  15.343  0.00  0.00    +0.000 OA
ATOM     30  C   UNL     1      48.266   5.484  17.352  0.00  0.00    +0.000 A 
ATOM     31  H   UNL     1      48.041   2.294  16.641  0.00  0.00    +0.000 HD
ENDBRANCH  18  21
ENDBRANCH   1  19
TORSDOF 6
ENDMDL
MODEL 4
REMARK VINA RESULT:    -7.175      2.811      4.546
REMARK INTER + INTRA:         -10.414
REMARK INTER:                  -9.425
REMARK INTRA:                  -0.989
REMARK UNBOUND:                -0.933
REMARK  Name = 
REMARK  6 active torsions:
REMARK  status: ('A' for Active; 'I' for Inactive)
REMARK    1  A    between atoms: C_2  and  C_19
REMARK    2  A    between atoms: N_3  and  C_4
REMARK    3  A    between atoms: C_4  and  C_5
REMARK    4  A    between atoms: C_8  and  C_9
REMARK    5  A    between atoms: C_9  and  O_10
REMARK    6  A    between atoms: C_9  and  C_11
REMARK                            x       y       z     vdW  Elec       q    Type
REMARK                         _______ _______ _______ _____ _____    ______ ____
ROOT
ATOM      1  C   UNL     1      46.979   5.409  14.591  0.00  0.00    +0.000 C 
ENDROOT
BRANCH   1   2
ATOM      2  C   UNL     1      46.345   4.946  13.301  0.00  0.00    +0.000 A 
ATOM      3  C   UNL     1      46.174   5.833  12.232  0.00  0.00    +0.000 A 
ATOM      4  C   UNL     1      45.544   5.418  11.054  0.00  0.00    +0.000 A 
ATOM      5  C   UNL     1      45.047   4.111  10.929  0.00  0.00    +0.000 A 
ATOM      6  C   UNL     1      45.189   3.234  12.016  0.00  0.00    +0.000 A 
ATOM      7  C   UNL     1      45.829   3.646  13.188  0.00  0.00    +0.000 A 
BRANCH   5   8
ATOM      8  C   UNL     1      44.367   3.659   9.646  0.00  0.00    +0.000 C 
BRANCH   8   9
ATOM      9  C   UNL     1      45.308   3.003   8.674  0.00  0.00    +0.000 A 
ATOM     10  C   UNL     1      45.598   1.653   8.735  0.00  0.00    +0.000 A 
ATOM     11  N   UNL     1      46.483   1.027   7.925  0.00  0.00    +0.000 NA
ATOM     12  C   UNL     1      47.076   1.812   7.013  0.00  0.00    +0.000 A 
ATOM     13  N   UNL     1      46.857   3.118   6.834  0.00  0.00    +0.000 NA
ATOM     14  C   UNL     1      45.968   3.688   7.673  0.00  0.00    +0.000 A 
ENDBRANCH   8   9
BRANCH   8  15
ATOM     15  O   UNL     1      43.727   4.775   9.023  0.00  0.00    +0.000 OA
ATOM     16  H   UNL     1      44.238   5.016   8.232  0.00  0.00    +0.000 HD
ENDBRANCH   8  15
ENDBRANCH   5   8
ENDBRANCH   1   2
BRANCH   1  19
ATOM     17  O   UNL     1      49.564   6.128  15.617  0.00  0.00    +0.000 OA
ATOM     18  C   UNL     1      48.913   6.912  14.942  0.00  0.00    +0.000 C 
ATOM     19  N   UNL     1      47.712   6.619  14.340  0.00  0.00    +0.000 N 
ATOM     20  H   UNL     1      47.170   7.382  13.973  0.00  0.00    +0.000 HD
BRANCH  18  21
ATOM     21  C   UNL     1      49.203   8.340  14.843  0.00  0.00    +0.000 A 
ATOM     22  C   UNL     1      49.448   9.132  15.952  0.00  0.00    +0.000 A 
ATOM     23  S   UNL     1      49.203  10.795  15.606  0.00  0.00    +0.000 S 
ATOM     24  C   UNL     1      48.890  10.469  13.961  0.00  0.00    +0.000 A 
ATOM     25  N   UNL     1      48.446  11.420  13.098  0.00  0.00    +0.000 NA
ATOM     26  C   UNL     1      48.291  11.002  11.882  0.00  0.00    +0.000 A 
ATOM     27  N   UNL     1      48.596   9.739  11.438  0.00  0.00    +0.000 N 
ATOM     28  C   UNL     1      49.069   8.751  12.268  0.00  0.00    +0.000 A 
ATOM     29  O   UNL     1      49.408   7.652  11.844  0.00  0.00    +0.000 OA
ATOM     30  C   UNL     1      49.123   9.144  13.661  0.00  0.00    +0.000 A 
ATOM     31  H   UNL     1      48.527   9.501  10.459  0.00  0.00    +0.000 HD
ENDBRANCH  18  21
ENDBRANCH   1  19
TORSDOF 6
ENDMDL
MODEL 5
REMARK VINA RESULT:    -7.000      2.600      3.042
REMARK INTER + INTRA:         -10.184
REMARK INTER:                  -9.237
REMARK INTRA:                  -0.947
REMARK UNBOUND:                -0.933
REMARK  Name = 
REMARK  6 active torsions:
REMARK  status: ('A' for Active; 'I' for Inactive)
REMARK    1  A    between atoms: C_2  and  C_19
REMARK    2  A    between atoms: N_3  and  C_4
REMARK    3  A    between atoms: C_4  and  C_5
REMARK    4  A    between atoms: C_8  and  C_9
REMARK    5  A    between atoms: C_9  and  O_10
REMARK    6  A    between atoms: C_9  and  C_11
REMARK                            x       y       z     vdW  Elec       q    Type
REMARK                         _______ _______ _______ _____ _____    ______ ____
ROOT
ATOM      1  C   UNL     1      48.760   6.542  14.732  0.00  0.00    +0.000 C 
ENDROOT
BRANCH   1   2
ATOM      2  C   UNL     1      47.666   6.121  13.781  0.00  0.00    +0.000 A 
ATOM      3  C   UNL     1      47.319   6.928  12.691  0.00  0.00    +0.000 A 
ATOM      4  C   UNL     1      46.274   6.562  11.836  0.00  0.00    +0.000 A 
ATOM      5  C   UNL     1      45.535   5.392  12.068  0.00  0.00    +0.000 A 
ATOM      6  C   UNL     1      45.864   4.602  13.181  0.00  0.00    +0.000 A 
ATOM      7  C   UNL     1      46.915   4.962  14.027  0.00  0.00    +0.000 A 
BRANCH   5   8
ATOM      8  C   UNL     1      44.403   4.992  11.134  0.00  0.00    +0.000 C 
BRANCH   8   9
ATOM      9  C   UNL     1      44.863   4.179   9.956  0.00  0.00    +0.000 A 
ATOM     10  C   UNL     1      44.724   2.805   9.917  0.00  0.00    +0.000 A 
ATOM     11  N   UNL     1      45.175   2.021   8.910  0.00  0.00    +0.000 NA
ATOM     12  C   UNL     1      45.774   2.675   7.904  0.00  0.00    +0.000 A 
ATOM     13  N   UNL     1      45.941   3.999   7.810  0.00  0.00    +0.000 NA
ATOM     14  C   UNL     1      45.474   4.726   8.845  0.00  0.00    +0.000 A 
ENDBRANCH   8   9
BRANCH   8  15
ATOM     15  O   UNL     1      43.720   6.163  10.679  0.00  0.00    +0.000 OA
ATOM     16  H   UNL     1      43.819   6.855  11.355  0.00  0.00    +0.000 HD
ENDBRANCH   8  15
ENDBRANCH   5   8
ENDBRANCH   1   2
BRANCH   1  19
ATOM     17  O   UNL     1      50.139   8.116  16.701  0.00  0.00    +0.000 OA
ATOM     18  C   UNL     1      48.925   7.975  16.743  0.00  0.00    +0.000 C 
ATOM     19  N   UNL     1      48.180   7.315  15.796  0.00  0.00    +0.000 N 
ATOM     20  H   UNL     1      47.226   7.091  16.019  0.00  0.00    +0.000 HD
BRANCH  18  21
ATOM     21  C   UNL     1      48.107   8.301  17.907  0.00  0.00    +0.000 A 
ATOM     22  C   UNL     1      47.769   9.601  18.244  0.00  0.00    +0.000 A 
ATOM     23  S   UNL     1      47.308   9.727  19.893  0.00  0.00    +0.000 S 
ATOM     24  C   UNL     1      47.444   8.041  20.121  0.00  0.00    +0.000 A 
ATOM     25  N   UNL     1      47.348   7.458  21.345  0.00  0.00    +0.000 NA
ATOM     26  C   UNL     1      47.445   6.168  21.328  0.00  0.00    +0.000 A 
ATOM     27  N   UNL     1      47.570   5.403  20.194  0.00  0.00    +0.000 N 
ATOM     28  C   UNL     1      47.648   5.944  18.933  0.00  0.00    +0.000 A 
ATOM     29  O   UNL     1      47.683   5.247  17.926  0.00  0.00    +0.000 OA
ATOM     30  C   UNL     1      47.681   7.392  18.929  0.00  0.00    +0.000 A 
ATOM     31  H   UNL     1      47.560   4.394  20.244  0.00  0.00    +0.000 HD
ENDBRANCH  18  21
ENDBRANCH   1  19
TORSDOF 6
ENDMDL
MODEL 6
REMARK VINA RESULT:    -6.975      1.904      2.415
REMARK INTER + INTRA:         -10.150
REMARK INTER:                  -9.231
REMARK INTRA:                  -0.919
REMARK UNBOUND:                -0.933
REMARK  Name = 
REMARK  6 active torsions:
REMARK  status: ('A' for Active; 'I' for Inactive)
REMARK    1  A    between atoms: C_2  and  C_19
REMARK    2  A    between atoms: N_3  and  C_4
REMARK    3  A    between atoms: C_4  and  C_5
REMARK    4  A    between atoms: C_8  and  C_9
REMARK    5  A    between atoms: C_9  and  O_10
REMARK    6  A    between atoms: C_9  and  C_11
REMARK                            x       y       z     vdW  Elec       q    Type
REMARK                         _______ _______ _______ _____ _____    ______ ____
ROOT
ATOM      1  C   UNL     1      48.442   6.740  14.410  0.00  0.00    +0.000 C 
ENDROOT
BRANCH   1   2
ATOM      2  C   UNL     1      47.372   6.175  13.507  0.00  0.00    +0.000 A 
ATOM      3  C   UNL     1      46.815   4.917  13.763  0.00  0.00    +0.000 A 
ATOM      4  C   UNL     1      45.858   4.371  12.900  0.00  0.00    +0.000 A 
ATOM      5  C   UNL     1      45.456   5.062  11.747  0.00  0.00    +0.000 A 
ATOM      6  C   UNL     1      46.042   6.309  11.474  0.00  0.00    +0.000 A 
ATOM      7  C   UNL     1      46.989   6.857  12.342  0.00  0.00    +0.000 A 
BRANCH   5   8
ATOM      8  C   UNL     1      44.412   4.471  10.813  0.00  0.00    +0.000 C 
BRANCH   8   9
ATOM      9  C   UNL     1      45.006   3.794   9.609  0.00  0.00    +0.000 A 
ATOM     10  C   UNL     1      45.122   2.419   9.527  0.00  0.00    +0.000 A 
ATOM     11  N   UNL     1      45.704   1.764   8.495  0.00  0.00    +0.000 NA
ATOM     12  C   UNL     1      46.166   2.548   7.510  0.00  0.00    +0.000 A 
ATOM     13  N   UNL     1      46.086   3.882   7.459  0.00  0.00    +0.000 NA
ATOM     14  C   UNL     1      45.499   4.478   8.516  0.00  0.00    +0.000 A 
ENDBRANCH   8   9
BRANCH   8  15
ATOM     15  O   UNL     1      43.505   5.495  10.395  0.00  0.00    +0.000 OA
ATOM     16  H   UNL     1      42.973   5.148   9.659  0.00  0.00    +0.000 HD
ENDBRANCH   8  15
ENDBRANCH   5   8
ENDBRANCH   1   2
BRANCH   1  19
ATOM     17  O   UNL     1      48.863   8.321  16.772  0.00  0.00    +0.000 OA
ATOM     18  C   UNL     1      48.454   7.171  16.847  0.00  0.00    +0.000 C 
ATOM     19  N   UNL     1      48.143   6.379  15.768  0.00  0.00    +0.000 N 
ATOM     20  H   UNL     1      48.001   5.396  15.930  0.00  0.00    +0.000 HD
BRANCH  18  21
ATOM     21  C   UNL     1      48.434   6.392  18.082  0.00  0.00    +0.000 A 
ATOM     22  C   UNL     1      47.393   6.460  18.992  0.00  0.00    +0.000 A 
ATOM     23  S   UNL     1      47.875   5.906  20.544  0.00  0.00    +0.000 S 
ATOM     24  C   UNL     1      49.422   5.469  19.973  0.00  0.00    +0.000 A 
ATOM     25  N   UNL     1      50.423   5.071  20.803  0.00  0.00    +0.000 NA
ATOM     26  C   UNL     1      51.519   4.748  20.195  0.00  0.00    +0.000 A 
ATOM     27  N   UNL     1      51.688   4.730  18.832  0.00  0.00    +0.000 N 
ATOM     28  C   UNL     1      50.700   5.101  17.953  0.00  0.00    +0.000 A 
ATOM     29  O   UNL     1      50.840   5.007  16.739  0.00  0.00    +0.000 OA
ATOM     30  C   UNL     1      49.506   5.599  18.604  0.00  0.00    +0.000 A 
ATOM     31  H   UNL     1      52.546   4.391  18.420  0.00  0.00    +0.000 HD
ENDBRANCH  18  21
ENDBRANCH   1  19
TORSDOF 6
ENDMDL
MODEL 7
REMARK VINA RESULT:    -6.801      2.675      3.875
REMARK INTER + INTRA:          -9.921
REMARK INTER:                  -8.929
REMARK INTRA:                  -0.992
REMARK UNBOUND:                -0.933
REMARK  Name = 
REMARK  6 active torsions:
REMARK  status: ('A' for Active; 'I' for Inactive)
REMARK    1  A    between atoms: C_2  and  C_19
REMARK    2  A    between atoms: N_3  and  C_4
REMARK    3  A    between atoms: C_4  and  C_5
REMARK    4  A    between atoms: C_8  and  C_9
REMARK    5  A    between atoms: C_9  and  O_10
REMARK    6  A    between atoms: C_9  and  C_11
REMARK                            x       y       z     vdW  Elec       q    Type
REMARK                         _______ _______ _______ _____ _____    ______ ____
ROOT
ATOM      1  C   UNL     1      47.607   5.367  14.913  0.00  0.00    +0.000 C 
ENDROOT
BRANCH   1   2
ATOM      2  C   UNL     1      46.787   5.004  13.699  0.00  0.00    +0.000 A 
ATOM      3  C   UNL     1      46.384   5.990  12.791  0.00  0.00    +0.000 A 
ATOM      4  C   UNL     1      45.584   5.662  11.691  0.00  0.00    +0.000 A 
ATOM      5  C   UNL     1      45.148   4.343  11.489  0.00  0.00    +0.000 A 
ATOM      6  C   UNL     1      45.527   3.363  12.420  0.00  0.00    +0.000 A 
ATOM      7  C   UNL     1      46.334   3.690  13.512  0.00  0.00    +0.000 A 
BRANCH   5   8
ATOM      8  C   UNL     1      44.284   3.988  10.289  0.00  0.00    +0.000 C 
BRANCH   8   9
ATOM      9  C   UNL     1      45.075   3.481   9.115  0.00  0.00    +0.000 A 
ATOM     10  C   UNL     1      45.365   2.139   8.953  0.00  0.00    +0.000 A 
ATOM     11  N   UNL     1      46.123   1.639   7.950  0.00  0.00    +0.000 NA
ATOM     12  C   UNL     1      46.585   2.547   7.078  0.00  0.00    +0.000 A 
ATOM     13  N   UNL     1      46.349   3.863   7.108  0.00  0.00    +0.000 NA
ATOM     14  C   UNL     1      45.590   4.302   8.133  0.00  0.00    +0.000 A 
ENDBRANCH   8   9
BRANCH   8  15
ATOM     15  O   UNL     1      43.512   5.126   9.899  0.00  0.00    +0.000 OA
ATOM     16  H   UNL     1      43.079   4.924   9.052  0.00  0.00    +0.000 HD
ENDBRANCH   8  15
ENDBRANCH   5   8
ENDBRANCH   1   2
BRANCH   1  19
ATOM     17  O   UNL     1      50.089   6.811  15.022  0.00  0.00    +0.000 OA
ATOM     18  C   UNL     1      49.016   7.395  15.077  0.00  0.00    +0.000 C 
ATOM     19  N   UNL     1      47.788   6.792  14.944  0.00  0.00    +0.000 N 
ATOM     20  H   UNL     1      46.973   7.323  15.196  0.00  0.00    +0.000 HD
BRANCH  18  21
ATOM     21  C   UNL     1      48.866   8.783  15.502  0.00  0.00    +0.000 A 
ATOM     22  C   UNL     1      48.939   9.848  14.620  0.00  0.00    +0.000 A 
ATOM     23  S   UNL     1      49.283  11.319  15.434  0.00  0.00    +0.000 S 
ATOM     24  C   UNL     1      49.216  10.561  16.960  0.00  0.00    +0.000 A 
ATOM     25  N   UNL     1      49.573  11.194  18.109  0.00  0.00    +0.000 NA
ATOM     26  C   UNL     1      49.430  10.476  19.177  0.00  0.00    +0.000 A 
ATOM     27  N   UNL     1      48.908   9.206  19.208  0.00  0.00    +0.000 N 
ATOM     28  C   UNL     1      48.513   8.533  18.078  0.00  0.00    +0.000 A 
ATOM     29  O   UNL     1      47.980   7.431  18.128  0.00  0.00    +0.000 OA
ATOM     30  C   UNL     1      48.787   9.255  16.852  0.00  0.00    +0.000 A 
ATOM     31  H   UNL     1      48.750   8.731  20.086  0.00  0.00    +0.000 HD
ENDBRANCH  18  21
ENDBRANCH   1  19
TORSDOF 6
ENDMDL
MODEL 8
REMARK VINA RESULT:    -6.672      3.352      4.347
REMARK INTER + INTRA:          -9.751
REMARK INTER:                  -8.870
REMARK INTRA:                  -0.881
REMARK UNBOUND:                -0.933
REMARK  Name = 
REMARK  6 active torsions:
REMARK  status: ('A' for Active; 'I' for Inactive)
REMARK    1  A    between atoms: C_2  and  C_19
REMARK    2  A    between atoms: N_3  and  C_4
REMARK    3  A    between atoms: C_4  and  C_5
REMARK    4  A    between atoms: C_8  and  C_9
REMARK    5  A    between atoms: C_9  and  O_10
REMARK    6  A    between atoms: C_9  and  C_11
REMARK                            x       y       z     vdW  Elec       q    Type
REMARK                         _______ _______ _______ _____ _____    ______ ____
ROOT
ATOM      1  C   UNL     1      46.757   5.947  13.984  0.00  0.00    +0.000 C 
ENDROOT
BRANCH   1   2
ATOM      2  C   UNL     1      46.205   5.297  12.738  0.00  0.00    +0.000 A 
ATOM      3  C   UNL     1      46.119   6.012  11.538  0.00  0.00    +0.000 A 
ATOM      4  C   UNL     1      45.564   5.425  10.396  0.00  0.00    +0.000 A 
ATOM      5  C   UNL     1      45.059   4.116  10.436  0.00  0.00    +0.000 A 
ATOM      6  C   UNL     1      45.116   3.413  11.650  0.00  0.00    +0.000 A 
ATOM      7  C   UNL     1      45.681   3.996  12.787  0.00  0.00    +0.000 A 
BRANCH   5   8
ATOM      8  C   UNL     1      44.462   3.478   9.192  0.00  0.00    +0.000 C 
BRANCH   8   9
ATOM      9  C   UNL     1      45.472   2.739   8.359  0.00  0.00    +0.000 A 
ATOM     10  C   UNL     1      45.713   1.388   8.530  0.00  0.00    +0.000 A 
ATOM     11  N   UNL     1      46.652   0.690   7.851  0.00  0.00    +0.000 NA
ATOM     12  C   UNL     1      47.355   1.401   6.956  0.00  0.00    +0.000 A 
ATOM     13  N   UNL     1      47.195   2.699   6.678  0.00  0.00    +0.000 NA
ATOM     14  C   UNL     1      46.247   3.342   7.389  0.00  0.00    +0.000 A 
ENDBRANCH   8   9
BRANCH   8  15
ATOM     15  O   UNL     1      43.819   4.480   8.399  0.00  0.00    +0.000 OA
ATOM     16  H   UNL     1      44.376   5.277   8.407  0.00  0.00    +0.000 HD
ENDBRANCH   8  15
ENDBRANCH   5   8
ENDBRANCH   1   2
BRANCH   1  19
ATOM     17  O   UNL     1      47.429   8.736  14.144  0.00  0.00    +0.000 OA
ATOM     18  C   UNL     1      48.223   7.921  13.698  0.00  0.00    +0.000 C 
ATOM     19  N   UNL     1      48.017   6.562  13.668  0.00  0.00    +0.000 N 
ATOM     20  H   UNL     1      48.641   6.003  13.112  0.00  0.00    +0.000 HD
BRANCH  18  21
ATOM     21  C   UNL     1      49.419   8.277  12.940  0.00  0.00    +0.000 A 
ATOM     22  C   UNL     1      49.539   8.045  11.580  0.00  0.00    +0.000 A 
ATOM     23  S   UNL     1      51.182   8.037  11.084  0.00  0.00    +0.000 S 
ATOM     24  C   UNL     1      51.719   8.457  12.648  0.00  0.00    +0.000 A 
ATOM     25  N   UNL     1      53.034   8.467  12.993  0.00  0.00    +0.000 NA
ATOM     26  C   UNL     1      53.260   8.840  14.212  0.00  0.00    +0.000 A 
ATOM     27  N   UNL     1      52.298   9.260  15.098  0.00  0.00    +0.000 N 
ATOM     28  C   UNL     1      50.960   9.289  14.789  0.00  0.00    +0.000 A 
ATOM     29  O   UNL     1      50.122   9.738  15.563  0.00  0.00    +0.000 OA
ATOM     30  C   UNL     1      50.660   8.748  13.480  0.00  0.00    +0.000 A 
ATOM     31  H   UNL     1      52.552   9.614  16.010  0.00  0.00    +0.000 HD
ENDBRANCH  18  21
ENDBRANCH   1  19
TORSDOF 6
ENDMDL
MODEL 9
REMARK VINA RESULT:    -6.509      2.179      3.317
REMARK INTER + INTRA:          -9.534
REMARK INTER:                  -8.684
REMARK INTRA:                  -0.850
REMARK UNBOUND:                -0.933
REMARK  Name = 
REMARK  6 active torsions:
REMARK  status: ('A' for Active; 'I' for Inactive)
REMARK    1  A    between atoms: C_2  and  C_19
REMARK    2  A    between atoms: N_3  and  C_4
REMARK    3  A    between atoms: C_4  and  C_5
REMARK    4  A    between atoms: C_8  and  C_9
REMARK    5  A    between atoms: C_9  and  O_10
REMARK    6  A    between atoms: C_9  and  C_11
REMARK                            x       y       z     vdW  Elec       q    Type
REMARK                         _______ _______ _______ _____ _____    ______ ____
ROOT
ATOM      1  C   UNL     1      44.970   4.827  13.944  0.00  0.00    +0.000 C 
ENDROOT
BRANCH   1   2
ATOM      2  C   UNL     1      44.811   4.406  12.503  0.00  0.00    +0.000 A 
ATOM      3  C   UNL     1      44.220   3.179  12.180  0.00  0.00    +0.000 A 
ATOM      4  C   UNL     1      44.115   2.767  10.847  0.00  0.00    +0.000 A 
ATOM      5  C   UNL     1      44.624   3.562   9.809  0.00  0.00    +0.000 A 
ATOM      6  C   UNL     1      45.248   4.776  10.139  0.00  0.00    +0.000 A 
ATOM      7  C   UNL     1      45.341   5.192  11.469  0.00  0.00    +0.000 A 
BRANCH   5   8
ATOM      8  C   UNL     1      44.505   3.116   8.360  0.00  0.00    +0.000 C 
BRANCH   8   9
ATOM      9  C   UNL     1      45.779   2.536   7.810  0.00  0.00    +0.000 A 
ATOM     10  C   UNL     1      46.622   3.268   6.995  0.00  0.00    +0.000 A 
ATOM     11  N   UNL     1      47.747   2.775   6.424  0.00  0.00    +0.000 NA
ATOM     12  C   UNL     1      48.019   1.495   6.715  0.00  0.00    +0.000 A 
ATOM     13  N   UNL     1      47.302   0.695   7.512  0.00  0.00    +0.000 NA
ATOM     14  C   UNL     1      46.191   1.240   8.048  0.00  0.00    +0.000 A 
ENDBRANCH   8   9
BRANCH   8  15
ATOM     15  O   UNL     1      44.084   4.217   7.551  0.00  0.00    +0.000 OA
ATOM     16  H   UNL     1      44.674   4.270   6.780  0.00  0.00    +0.000 HD
ENDBRANCH   8  15
ENDBRANCH   5   8
ENDBRANCH   1   2
BRANCH   1  19
ATOM     17  O   UNL     1      47.553   3.827  14.709  0.00  0.00    +0.000 OA
ATOM     18  C   UNL     1      47.366   5.022  14.530  0.00  0.00    +0.000 C 
ATOM     19  N   UNL     1      46.191   5.573  14.080  0.00  0.00    +0.000 N 
ATOM     20  H   UNL     1      46.080   6.570  14.150  0.00  0.00    +0.000 HD
BRANCH  18  21
ATOM     21  C   UNL     1      48.290   6.066  14.967  0.00  0.00    +0.000 A 
ATOM     22  C   UNL     1      48.841   6.989  14.095  0.00  0.00    +0.000 A 
ATOM     23  S   UNL     1      50.262   7.700  14.744  0.00  0.00    +0.000 S 
ATOM     24  C   UNL     1      50.075   6.870  16.222  0.00  0.00    +0.000 A 
ATOM     25  N   UNL     1      51.025   6.881  17.194  0.00  0.00    +0.000 NA
ATOM     26  C   UNL     1      50.702   6.222  18.260  0.00  0.00    +0.000 A 
ATOM     27  N   UNL     1      49.493   5.603  18.467  0.00  0.00    +0.000 N 
ATOM     28  C   UNL     1      48.494   5.584  17.525  0.00  0.00    +0.000 A 
ATOM     29  O   UNL     1      47.394   5.093  17.752  0.00  0.00    +0.000 OA
ATOM     30  C   UNL     1      48.875   6.194  16.268  0.00  0.00    +0.000 A 
ATOM     31  H   UNL     1      49.275   5.174  19.355  0.00  0.00    +0.000 HD
ENDBRANCH  18  21
ENDBRANCH   1  19
TORSDOF 6
ENDMDL
