MODEL 1
REMARK VINA RESULT:    -7.200      0.000      0.000
REMARK INTER + INTRA:         -11.897
REMARK INTER:                 -10.146
REMARK INTRA:                  -1.751
REMARK UNBOUND:                -1.751
REMARK  Name = 
REMARK  7 active torsions:
REMARK  status: ('A' for Active; 'I' for Inactive)
REMARK    1  A    between atoms: C_2  and  C_4
REMARK    2  A    between atoms: C_8  and  S_9
REMARK    3  A    between atoms: S_9  and  C_10
REMARK    4  A    between atoms: C_10  and  C_11
REMARK    5  A    between atoms: C_16  and  C_17
REMARK    6  A    between atoms: C_22  and  O_23
REMARK    7  A    between atoms: O_23  and  C_24
REMARK                            x       y       z     vdW  Elec       q    Type
REMARK                         _______ _______ _______ _____ _____    ______ ____
ROOT
ATOM      1  C   UNL     1      47.805   7.702  12.516  0.00  0.00    +0.000 A 
ATOM      2  C   UNL     1      46.965   8.783  12.793  0.00  0.00    +0.000 A 
ATOM      3  C   UNL     1      45.626   8.733  12.432  0.00  0.00    +0.000 A 
ATOM      4  F   UNL     1      44.829   9.764  12.742  0.00  0.00    +0.000 F 
ATOM      5  C   UNL     1      45.089   7.627  11.777  0.00  0.00    +0.000 A 
ATOM      6  C   UNL     1      45.893   6.535  11.419  0.00  0.00    +0.000 A 
ATOM      7  C   UNL     1      47.262   6.615  11.789  0.00  0.00    +0.000 A 
ENDROOT
BRANCH   6   8
ATOM      8  C   UNL     1      45.327   5.311  10.761  0.00  0.00    +0.000 A 
ATOM      9  C   UNL     1      45.485   5.156   9.363  0.00  0.00    +0.000 A 
ATOM     10  C   UNL     1      45.032   4.027   8.675  0.00  0.00    +0.000 A 
ATOM     11  C   UNL     1      44.440   2.989   9.373  0.00  0.00    +0.000 A 
ATOM     12  C   UNL     1      44.268   3.097  10.751  0.00  0.00    +0.000 A 
ATOM     13  C   UNL     1      44.663   4.257  11.445  0.00  0.00    +0.000 A 
BRANCH  13  14
ATOM     14  O   UNL     1      44.439   4.401  12.794  0.00  0.00    +0.000 OA
BRANCH  14  15
ATOM     15  C   UNL     1      43.090   4.574  13.214  0.00  0.00    +0.000 C 
ATOM     16  F   UNL     1      42.479   5.447  12.368  0.00  0.00    +0.000 F 
ENDBRANCH  14  15
ENDBRANCH  13  14
ENDBRANCH   6   8
BRANCH   1  17
ATOM     17  C   UNL     1      49.268   7.672  12.920  0.00  0.00    +0.000 C 
BRANCH  17  18
ATOM     18  S   UNL     1      49.609   8.410  14.565  0.00  0.00    +0.000 S 
BRANCH  18  23
ATOM     19  C   UNL     1      48.297   4.997  16.366  0.00  0.00    +0.000 A 
ATOM     20  C   UNL     1      49.255   4.794  17.365  0.00  0.00    +0.000 A 
ATOM     21  C   UNL     1      50.314   5.693  17.499  0.00  0.00    +0.000 A 
ATOM     22  C   UNL     1      50.421   6.784  16.635  0.00  0.00    +0.000 A 
ATOM     23  C   UNL     1      49.481   6.981  15.616  0.00  0.00    +0.000 A 
ATOM     24  C   UNL     1      48.414   6.086  15.492  0.00  0.00    +0.000 A 
BRANCH  19  26
ATOM     25  N   UNL     1      46.628   3.969  14.917  0.00  0.00    +0.000 N 
ATOM     26  C   UNL     1      47.148   4.078  16.177  0.00  0.00    +0.000 C 
ATOM     27  O   UNL     1      46.703   3.412  17.103  0.00  0.00    +0.000 OA
ATOM     28  H   UNL     1      45.929   3.247  14.787  0.00  0.00    +0.000 HD
ATOM     29  H   UNL     1      47.123   4.292  14.100  0.00  0.00    +0.000 HD
ENDBRANCH  19  26
ENDBRANCH  18  23
ENDBRANCH  17  18
ENDBRANCH   1  17
TORSDOF 7
ENDMDL
MODEL 2
REMARK VINA RESULT:    -6.678      1.888      2.315
REMARK INTER + INTRA:         -11.162
REMARK INTER:                  -9.840
REMARK INTRA:                  -1.322
REMARK UNBOUND:                -1.751
REMARK  Name = 
REMARK  7 active torsions:
REMARK  status: ('A' for Active; 'I' for Inactive)
REMARK    1  A    between atoms: C_2  and  C_4
REMARK    2  A    between atoms: C_8  and  S_9
REMARK    3  A    between atoms: S_9  and  C_10
REMARK    4  A    between atoms: C_10  and  C_11
REMARK    5  A    between atoms: C_16  and  C_17
REMARK    6  A    between atoms: C_22  and  O_23
REMARK    7  A    between atoms: O_23  and  C_24
REMARK                            x       y       z     vdW  Elec       q    Type
REMARK                         _______ _______ _______ _____ _____    ______ ____
ROOT
ATOM      1  C   UNL     1      47.632   7.244  13.386  0.00  0.00    +0.000 A 
ATOM      2  C   UNL     1      46.875   8.414  13.492  0.00  0.00    +0.000 A 
ATOM      3  C   UNL     1      45.676   8.530  12.804  0.00  0.00    +0.000 A 
ATOM      4  F   UNL     1      44.947   9.644  12.950  0.00  0.00    +0.000 F 
ATOM      5  C   UNL     1      45.204   7.506  11.985  0.00  0.00    +0.000 A 
ATOM      6  C   UNL     1      45.945   6.332  11.791  0.00  0.00    +0.000 A 
ATOM      7  C   UNL     1      47.174   6.242  12.497  0.00  0.00    +0.000 A 
ENDROOT
BRANCH   6   8
ATOM      8  C   UNL     1      45.433   5.195  10.956  0.00  0.00    +0.000 A 
ATOM      9  C   UNL     1      45.590   5.259   9.551  0.00  0.00    +0.000 A 
ATOM     10  C   UNL     1      45.185   4.225   8.701  0.00  0.00    +0.000 A 
ATOM     11  C   UNL     1      44.647   3.068   9.236  0.00  0.00    +0.000 A 
ATOM     12  C   UNL     1      44.479   2.961  10.614  0.00  0.00    +0.000 A 
ATOM     13  C   UNL     1      44.823   4.020  11.474  0.00  0.00    +0.000 A 
BRANCH  13  14
ATOM     14  O   UNL     1      44.601   3.950  12.829  0.00  0.00    +0.000 OA
BRANCH  14  15
ATOM     15  C   UNL     1      43.260   4.113  13.277  0.00  0.00    +0.000 C 
ATOM     16  F   UNL     1      42.870   5.393  13.032  0.00  0.00    +0.000 F 
ENDBRANCH  14  15
ENDBRANCH  13  14
ENDBRANCH   6   8
BRANCH   1  17
ATOM     17  C   UNL     1      48.931   7.033  14.144  0.00  0.00    +0.000 C 
BRANCH  17  18
ATOM     18  S   UNL     1      48.786   7.253  15.960  0.00  0.00    +0.000 S 
BRANCH  18  23
ATOM     19  C   UNL     1      50.063   3.665  17.412  0.00  0.00    +0.000 A 
ATOM     20  C   UNL     1      48.924   2.863  17.285  0.00  0.00    +0.000 A 
ATOM     21  C   UNL     1      47.752   3.408  16.758  0.00  0.00    +0.000 A 
ATOM     22  C   UNL     1      47.715   4.748  16.368  0.00  0.00    +0.000 A 
ATOM     23  C   UNL     1      48.843   5.564  16.516  0.00  0.00    +0.000 A 
ATOM     24  C   UNL     1      50.020   5.012  17.031  0.00  0.00    +0.000 A 
BRANCH  19  26
ATOM     25  N   UNL     1      51.554   1.794  17.879  0.00  0.00    +0.000 N 
ATOM     26  C   UNL     1      51.338   3.141  17.961  0.00  0.00    +0.000 C 
ATOM     27  O   UNL     1      52.185   3.888  18.436  0.00  0.00    +0.000 OA
ATOM     28  H   UNL     1      52.478   1.475  18.145  0.00  0.00    +0.000 HD
ATOM     29  H   UNL     1      51.012   1.197  17.273  0.00  0.00    +0.000 HD
ENDBRANCH  19  26
ENDBRANCH  18  23
ENDBRANCH  17  18
ENDBRANCH   1  17
TORSDOF 7
ENDMDL
MODEL 3
REMARK VINA RESULT:    -6.630      1.567      2.193
REMARK INTER + INTRA:         -11.093
REMARK INTER:                  -9.847
REMARK INTRA:                  -1.247
REMARK UNBOUND:                -1.751
REMARK  Name = 
REMARK  7 active torsions:
REMARK  status: ('A' for Active; 'I' for Inactive)
REMARK    1  A    between atoms: C_2  and  C_4
REMARK    2  A    between atoms: C_8  and  S_9
REMARK    3  A    between atoms: S_9  and  C_10
REMARK    4  A    between atoms: C_10  and  C_11
REMARK    5  A    between atoms: C_16  and  C_17
REMARK    6  A    between atoms: C_22  and  O_23
REMARK    7  A    between atoms: O_23  and  C_24
REMARK                            x       y       z     vdW  Elec       q    Type
REMARK                         _______ _______ _______ _____ _____    ______ ____
ROOT
ATOM      1  C   UNL     1      47.805   7.655  12.651  0.00  0.00    +0.000 A 
ATOM      2  C   UNL     1      47.130   8.872  12.530  0.00  0.00    +0.000 A 
ATOM      3  C   UNL     1      45.793   8.891  12.162  0.00  0.00    +0.000 A 
ATOM      4  F   UNL     1      45.153  10.066  12.090  0.00  0.00    +0.000 F 
ATOM      5  C   UNL     1      45.096   7.716  11.889  0.00  0.00    +0.000 A 
ATOM      6  C   UNL     1      45.732   6.468  11.935  0.00  0.00    +0.000 A 
ATOM      7  C   UNL     1      47.104   6.476  12.303  0.00  0.00    +0.000 A 
ENDROOT
BRANCH   6   8
ATOM      8  C   UNL     1      44.991   5.185  11.696  0.00  0.00    +0.000 A 
ATOM      9  C   UNL     1      44.302   4.586  12.779  0.00  0.00    +0.000 A 
ATOM     10  C   UNL     1      43.548   3.418  12.637  0.00  0.00    +0.000 A 
ATOM     11  C   UNL     1      43.421   2.830  11.391  0.00  0.00    +0.000 A 
ATOM     12  C   UNL     1      44.078   3.388  10.297  0.00  0.00    +0.000 A 
ATOM     13  C   UNL     1      44.892   4.527  10.440  0.00  0.00    +0.000 A 
BRANCH  13  14
ATOM     14  O   UNL     1      45.597   5.048   9.381  0.00  0.00    +0.000 OA
BRANCH  14  15
ATOM     15  C   UNL     1      45.695   4.245   8.209  0.00  0.00    +0.000 C 
ATOM     16  F   UNL     1      46.917   4.445   7.645  0.00  0.00    +0.000 F 
ENDBRANCH  14  15
ENDBRANCH  13  14
ENDBRANCH   6   8
BRANCH   1  17
ATOM     17  C   UNL     1      49.256   7.558  13.090  0.00  0.00    +0.000 C 
BRANCH  17  18
ATOM     18  S   UNL     1      49.607   8.357  14.704  0.00  0.00    +0.000 S 
BRANCH  18  23
ATOM     19  C   UNL     1      48.331   4.963  16.565  0.00  0.00    +0.000 A 
ATOM     20  C   UNL     1      49.217   4.857  17.642  0.00  0.00    +0.000 A 
ATOM     21  C   UNL     1      50.216   5.816  17.812  0.00  0.00    +0.000 A 
ATOM     22  C   UNL     1      50.335   6.872  16.907  0.00  0.00    +0.000 A 
ATOM     23  C   UNL     1      49.469   6.972  15.811  0.00  0.00    +0.000 A 
ATOM     24  C   UNL     1      48.461   6.017  15.651  0.00  0.00    +0.000 A 
BRANCH  19  26
ATOM     25  N   UNL     1      46.942   3.666  15.039  0.00  0.00    +0.000 N 
ATOM     26  C   UNL     1      47.247   3.976  16.335  0.00  0.00    +0.000 C 
ATOM     27  O   UNL     1      46.672   3.429  17.267  0.00  0.00    +0.000 OA
ATOM     28  H   UNL     1      46.288   2.903  14.908  0.00  0.00    +0.000 HD
ATOM     29  H   UNL     1      47.555   3.891  14.271  0.00  0.00    +0.000 HD
ENDBRANCH  19  26
ENDBRANCH  18  23
ENDBRANCH  17  18
ENDBRANCH   1  17
TORSDOF 7
ENDMDL
MODEL 4
REMARK VINA RESULT:    -6.390      4.628      7.111
REMARK INTER + INTRA:         -10.756
REMARK INTER:                  -9.660
REMARK INTRA:                  -1.097
REMARK UNBOUND:                -1.751
REMARK  Name = 
REMARK  7 active torsions:
REMARK  status: ('A' for Active; 'I' for Inactive)
REMARK    1  A    between atoms: C_2  and  C_4
REMARK    2  A    between atoms: C_8  and  S_9
REMARK    3  A    between atoms: S_9  and  C_10
REMARK    4  A    between atoms: C_10  and  C_11
REMARK    5  A    between atoms: C_16  and  C_17
REMARK    6  A    between atoms: C_22  and  O_23
REMARK    7  A    between atoms: O_23  and  C_24
REMARK                            x       y       z     vdW  Elec       q    Type
REMARK                         _______ _______ _______ _____ _____    ______ ____
ROOT
ATOM      1  C   UNL     1      45.169   9.056  11.816  0.00  0.00    +0.000 A 
ATOM      2  C   UNL     1      46.456   9.169  12.348  0.00  0.00    +0.000 A 
ATOM      3  C   UNL     1      47.315   8.080  12.327  0.00  0.00    +0.000 A 
ATOM      4  F   UNL     1      48.558   8.221  12.807  0.00  0.00    +0.000 F 
ATOM      5  C   UNL     1      46.922   6.853  11.798  0.00  0.00    +0.000 A 
ATOM      6  C   UNL     1      45.625   6.658  11.303  0.00  0.00    +0.000 A 
ATOM      7  C   UNL     1      44.761   7.785  11.346  0.00  0.00    +0.000 A 
ENDROOT
BRANCH   6   8
ATOM      8  C   UNL     1      45.195   5.362  10.680  0.00  0.00    +0.000 A 
ATOM      9  C   UNL     1      45.492   5.132   9.315  0.00  0.00    +0.000 A 
ATOM     10  C   UNL     1      45.171   3.936   8.667  0.00  0.00    +0.000 A 
ATOM     11  C   UNL     1      44.577   2.908   9.377  0.00  0.00    +0.000 A 
ATOM     12  C   UNL     1      44.271   3.090  10.723  0.00  0.00    +0.000 A 
ATOM     13  C   UNL     1      44.531   4.312  11.371  0.00  0.00    +0.000 A 
BRANCH  13  14
ATOM     14  O   UNL     1      44.173   4.525  12.681  0.00  0.00    +0.000 OA
BRANCH  14  15
ATOM     15  C   UNL     1      42.856   5.007  12.925  0.00  0.00    +0.000 C 
ATOM     16  F   UNL     1      42.249   5.240  11.731  0.00  0.00    +0.000 F 
ENDBRANCH  14  15
ENDBRANCH  13  14
ENDBRANCH   6   8
BRANCH   1  17
ATOM     17  C   UNL     1      44.193  10.218  11.768  0.00  0.00    +0.000 C 
BRANCH  17  18
ATOM     18  S   UNL     1      42.932  10.086  10.441  0.00  0.00    +0.000 S 
BRANCH  18  23
ATOM     19  C   UNL     1      39.084  10.489  11.723  0.00  0.00    +0.000 A 
ATOM     20  C   UNL     1      39.167  11.582  12.592  0.00  0.00    +0.000 A 
ATOM     21  C   UNL     1      40.398  12.207  12.800  0.00  0.00    +0.000 A 
ATOM     22  C   UNL     1      41.541  11.738  12.151  0.00  0.00    +0.000 A 
ATOM     23  C   UNL     1      41.472  10.628  11.300  0.00  0.00    +0.000 A 
ATOM     24  C   UNL     1      40.235  10.013  11.082  0.00  0.00    +0.000 A 
BRANCH  19  26
ATOM     25  N   UNL     1      36.964  10.337  10.532  0.00  0.00    +0.000 N 
ATOM     26  C   UNL     1      37.804   9.787  11.459  0.00  0.00    +0.000 C 
ATOM     27  O   UNL     1      37.524   8.735  12.020  0.00  0.00    +0.000 OA
ATOM     28  H   UNL     1      36.157   9.779  10.279  0.00  0.00    +0.000 HD
ATOM     29  H   UNL     1      37.269  11.039   9.876  0.00  0.00    +0.000 HD
ENDBRANCH  19  26
ENDBRANCH  18  23
ENDBRANCH  17  18
ENDBRANCH   1  17
TORSDOF 7
ENDMDL
MODEL 5
REMARK VINA RESULT:    -6.162      2.680      3.338
REMARK INTER + INTRA:         -10.435
REMARK INTER:                  -8.948
REMARK INTRA:                  -1.487
REMARK UNBOUND:                -1.751
REMARK  Name = 
REMARK  7 active torsions:
REMARK  status: ('A' for Active; 'I' for Inactive)
REMARK    1  A    between atoms: C_2  and  C_4
REMARK    2  A    between atoms: C_8  and  S_9
REMARK    3  A    between atoms: S_9  and  C_10
REMARK    4  A    between atoms: C_10  and  C_11
REMARK    5  A    between atoms: C_16  and  C_17
REMARK    6  A    between atoms: C_22  and  O_23
REMARK    7  A    between atoms: O_23  and  C_24
REMARK                            x       y       z     vdW  Elec       q    Type
REMARK                         _______ _______ _______ _____ _____    ______ ____
ROOT
ATOM      1  C   UNL     1      48.903   7.890  14.648  0.00  0.00    +0.000 A 
ATOM      2  C   UNL     1      49.865   7.899  13.635  0.00  0.00    +0.000 A 
ATOM      3  C   UNL     1      49.553   7.403  12.377  0.00  0.00    +0.000 A 
ATOM      4  F   UNL     1      50.478   7.456  11.409  0.00  0.00    +0.000 F 
ATOM      5  C   UNL     1      48.296   6.874  12.093  0.00  0.00    +0.000 A 
ATOM      6  C   UNL     1      47.307   6.783  13.083  0.00  0.00    +0.000 A 
ATOM      7  C   UNL     1      47.654   7.286  14.365  0.00  0.00    +0.000 A 
ENDROOT
BRANCH   6   8
ATOM      8  C   UNL     1      45.929   6.266  12.788  0.00  0.00    +0.000 A 
ATOM      9  C   UNL     1      45.162   6.908  11.787  0.00  0.00    +0.000 A 
ATOM     10  C   UNL     1      43.889   6.466  11.416  0.00  0.00    +0.000 A 
ATOM     11  C   UNL     1      43.357   5.334  12.006  0.00  0.00    +0.000 A 
ATOM     12  C   UNL     1      44.079   4.667  12.992  0.00  0.00    +0.000 A 
ATOM     13  C   UNL     1      45.334   5.140  13.420  0.00  0.00    +0.000 A 
BRANCH  13  14
ATOM     14  O   UNL     1      46.027   4.528  14.437  0.00  0.00    +0.000 OA
BRANCH  14  15
ATOM     15  C   UNL     1      46.970   3.527  14.071  0.00  0.00    +0.000 C 
ATOM     16  F   UNL     1      46.496   2.856  12.987  0.00  0.00    +0.000 F 
ENDBRANCH  14  15
ENDBRANCH  13  14
ENDBRANCH   6   8
BRANCH   1  17
ATOM     17  C   UNL     1      49.161   8.454  16.034  0.00  0.00    +0.000 C 
BRANCH  17  18
ATOM     18  S   UNL     1      50.379   7.498  17.019  0.00  0.00    +0.000 S 
BRANCH  18  23
ATOM     19  C   UNL     1      49.216   3.601  17.289  0.00  0.00    +0.000 A 
ATOM     20  C   UNL     1      47.926   3.706  17.821  0.00  0.00    +0.000 A 
ATOM     21  C   UNL     1      47.398   4.966  18.107  0.00  0.00    +0.000 A 
ATOM     22  C   UNL     1      48.155   6.114  17.871  0.00  0.00    +0.000 A 
ATOM     23  C   UNL     1      49.457   6.017  17.363  0.00  0.00    +0.000 A 
ATOM     24  C   UNL     1      49.979   4.755  17.064  0.00  0.00    +0.000 A 
BRANCH  19  26
ATOM     25  N   UNL     1      50.761   1.797  17.830  0.00  0.00    +0.000 N 
ATOM     26  C   UNL     1      49.830   2.291  16.961  0.00  0.00    +0.000 C 
ATOM     27  O   UNL     1      49.489   1.655  15.971  0.00  0.00    +0.000 OA
ATOM     28  H   UNL     1      51.075   0.849  17.653  0.00  0.00    +0.000 HD
ATOM     29  H   UNL     1      50.872   2.156  18.765  0.00  0.00    +0.000 HD
ENDBRANCH  19  26
ENDBRANCH  18  23
ENDBRANCH  17  18
ENDBRANCH   1  17
TORSDOF 7
ENDMDL
MODEL 6
REMARK VINA RESULT:    -6.034      2.640      3.669
REMARK INTER + INTRA:         -10.254
REMARK INTER:                  -8.855
REMARK INTRA:                  -1.399
REMARK UNBOUND:                -1.751
REMARK  Name = 
REMARK  7 active torsions:
REMARK  status: ('A' for Active; 'I' for Inactive)
REMARK    1  A    between atoms: C_2  and  C_4
REMARK    2  A    between atoms: C_8  and  S_9
REMARK    3  A    between atoms: S_9  and  C_10
REMARK    4  A    between atoms: C_10  and  C_11
REMARK    5  A    between atoms: C_16  and  C_17
REMARK    6  A    between atoms: C_22  and  O_23
REMARK    7  A    between atoms: O_23  and  C_24
REMARK                            x       y       z     vdW  Elec       q    Type
REMARK                         _______ _______ _______ _____ _____    ______ ____
ROOT
ATOM      1  C   UNL     1      49.508   7.236  14.639  0.00  0.00    +0.000 A 
ATOM      2  C   UNL     1      50.106   7.840  13.531  0.00  0.00    +0.000 A 
ATOM      3  C   UNL     1      49.498   7.763  12.286  0.00  0.00    +0.000 A 
ATOM      4  F   UNL     1      50.068   8.384  11.243  0.00  0.00    +0.000 F 
ATOM      5  C   UNL     1      48.300   7.076  12.101  0.00  0.00    +0.000 A 
ATOM      6  C   UNL     1      47.681   6.399  13.161  0.00  0.00    +0.000 A 
ATOM      7  C   UNL     1      48.329   6.483  14.423  0.00  0.00    +0.000 A 
ENDROOT
BRANCH   6   8
ATOM      8  C   UNL     1      46.365   5.697  12.999  0.00  0.00    +0.000 A 
ATOM      9  C   UNL     1      46.350   4.283  12.944  0.00  0.00    +0.000 A 
ATOM     10  C   UNL     1      45.167   3.546  12.841  0.00  0.00    +0.000 A 
ATOM     11  C   UNL     1      43.949   4.202  12.834  0.00  0.00    +0.000 A 
ATOM     12  C   UNL     1      43.916   5.592  12.891  0.00  0.00    +0.000 A 
ATOM     13  C   UNL     1      45.103   6.348  12.930  0.00  0.00    +0.000 A 
BRANCH  13  14
ATOM     14  O   UNL     1      45.084   7.723  12.922  0.00  0.00    +0.000 OA
BRANCH  14  15
ATOM     15  C   UNL     1      44.795   8.360  11.682  0.00  0.00    +0.000 C 
ATOM     16  F   UNL     1      45.141   7.521  10.669  0.00  0.00    +0.000 F 
ENDBRANCH  14  15
ENDBRANCH  13  14
ENDBRANCH   6   8
BRANCH   1  17
ATOM     17  C   UNL     1      50.096   7.316  16.037  0.00  0.00    +0.000 C 
BRANCH  17  18
ATOM     18  S   UNL     1      48.862   7.124  17.382  0.00  0.00    +0.000 S 
BRANCH  18  23
ATOM     19  C   UNL     1      49.622   3.119  17.401  0.00  0.00    +0.000 A 
ATOM     20  C   UNL     1      48.337   2.567  17.386  0.00  0.00    +0.000 A 
ATOM     21  C   UNL     1      47.224   3.409  17.374  0.00  0.00    +0.000 A 
ATOM     22  C   UNL     1      47.393   4.794  17.385  0.00  0.00    +0.000 A 
ATOM     23  C   UNL     1      48.675   5.355  17.426  0.00  0.00    +0.000 A 
ATOM     24  C   UNL     1      49.788   4.510  17.424  0.00  0.00    +0.000 A 
BRANCH  19  26
ATOM     25  N   UNL     1      51.877   2.674  18.211  0.00  0.00    +0.000 N 
ATOM     26  C   UNL     1      50.843   2.276  17.411  0.00  0.00    +0.000 C 
ATOM     27  O   UNL     1      50.911   1.242  16.759  0.00  0.00    +0.000 OA
ATOM     28  H   UNL     1      52.648   2.021  18.297  0.00  0.00    +0.000 HD
ATOM     29  H   UNL     1      51.761   3.356  18.944  0.00  0.00    +0.000 HD
ENDBRANCH  19  26
ENDBRANCH  18  23
ENDBRANCH  17  18
ENDBRANCH   1  17
TORSDOF 7
ENDMDL
MODEL 7
REMARK VINA RESULT:    -6.006      2.896      6.920
REMARK INTER + INTRA:         -10.214
REMARK INTER:                  -8.835
REMARK INTRA:                  -1.380
REMARK UNBOUND:                -1.751
REMARK  Name = 
REMARK  7 active torsions:
REMARK  status: ('A' for Active; 'I' for Inactive)
REMARK    1  A    between atoms: C_2  and  C_4
REMARK    2  A    between atoms: C_8  and  S_9
REMARK    3  A    between atoms: S_9  and  C_10
REMARK    4  A    between atoms: C_10  and  C_11
REMARK    5  A    between atoms: C_16  and  C_17
REMARK    6  A    between atoms: C_22  and  O_23
REMARK    7  A    between atoms: O_23  and  C_24
REMARK                            x       y       z     vdW  Elec       q    Type
REMARK                         _______ _______ _______ _____ _____    ______ ____
ROOT
ATOM      1  C   UNL     1      48.757   7.527  13.120  0.00  0.00    +0.000 A 
ATOM      2  C   UNL     1      50.081   7.947  12.976  0.00  0.00    +0.000 A 
ATOM      3  C   UNL     1      50.922   7.983  14.078  0.00  0.00    +0.000 A 
ATOM      4  F   UNL     1      52.200   8.352  13.911  0.00  0.00    +0.000 F 
ATOM      5  C   UNL     1      50.475   7.624  15.348  0.00  0.00    +0.000 A 
ATOM      6  C   UNL     1      49.142   7.250  15.568  0.00  0.00    +0.000 A 
ATOM      7  C   UNL     1      48.298   7.232  14.426  0.00  0.00    +0.000 A 
ENDROOT
BRANCH   6   8
ATOM      8  C   UNL     1      48.650   6.808  16.916  0.00  0.00    +0.000 A 
ATOM      9  C   UNL     1      48.432   7.787  17.915  0.00  0.00    +0.000 A 
ATOM     10  C   UNL     1      47.932   7.472  19.181  0.00  0.00    +0.000 A 
ATOM     11  C   UNL     1      47.590   6.164  19.478  0.00  0.00    +0.000 A 
ATOM     12  C   UNL     1      47.784   5.169  18.523  0.00  0.00    +0.000 A 
ATOM     13  C   UNL     1      48.346   5.465  17.267  0.00  0.00    +0.000 A 
BRANCH  13  14
ATOM     14  O   UNL     1      48.602   4.481  16.342  0.00  0.00    +0.000 OA
BRANCH  14  15
ATOM     15  C   UNL     1      47.509   3.658  15.950  0.00  0.00    +0.000 C 
ATOM     16  F   UNL     1      46.706   4.368  15.112  0.00  0.00    +0.000 F 
ENDBRANCH  14  15
ENDBRANCH  13  14
ENDBRANCH   6   8
BRANCH   1  17
ATOM     17  C   UNL     1      47.794   7.423  11.950  0.00  0.00    +0.000 C 
BRANCH  17  18
ATOM     18  S   UNL     1      46.062   7.868  12.361  0.00  0.00    +0.000 S 
BRANCH  18  23
ATOM     19  C   UNL     1      44.651   4.614  10.351  0.00  0.00    +0.000 A 
ATOM     20  C   UNL     1      43.770   4.045  11.277  0.00  0.00    +0.000 A 
ATOM     21  C   UNL     1      43.598   4.645  12.525  0.00  0.00    +0.000 A 
ATOM     22  C   UNL     1      44.308   5.801  12.851  0.00  0.00    +0.000 A 
ATOM     23  C   UNL     1      45.212   6.363  11.941  0.00  0.00    +0.000 A 
ATOM     24  C   UNL     1      45.372   5.768  10.686  0.00  0.00    +0.000 A 
BRANCH  19  26
ATOM     25  N   UNL     1      44.310   2.806   8.754  0.00  0.00    +0.000 N 
ATOM     26  C   UNL     1      44.873   4.025   9.008  0.00  0.00    +0.000 C 
ATOM     27  O   UNL     1      45.502   4.622   8.143  0.00  0.00    +0.000 OA
ATOM     28  H   UNL     1      44.369   2.481   7.796  0.00  0.00    +0.000 HD
ATOM     29  H   UNL     1      43.584   2.415   9.335  0.00  0.00    +0.000 HD
ENDBRANCH  19  26
ENDBRANCH  18  23
ENDBRANCH  17  18
ENDBRANCH   1  17
TORSDOF 7
ENDMDL
MODEL 8
REMARK VINA RESULT:    -5.990      2.900      4.367
REMARK INTER + INTRA:         -10.193
REMARK INTER:                  -8.766
REMARK INTRA:                  -1.427
REMARK UNBOUND:                -1.751
REMARK  Name = 
REMARK  7 active torsions:
REMARK  status: ('A' for Active; 'I' for Inactive)
REMARK    1  A    between atoms: C_2  and  C_4
REMARK    2  A    between atoms: C_8  and  S_9
REMARK    3  A    between atoms: S_9  and  C_10
REMARK    4  A    between atoms: C_10  and  C_11
REMARK    5  A    between atoms: C_16  and  C_17
REMARK    6  A    between atoms: C_22  and  O_23
REMARK    7  A    between atoms: O_23  and  C_24
REMARK                            x       y       z     vdW  Elec       q    Type
REMARK                         _______ _______ _______ _____ _____    ______ ____
ROOT
ATOM      1  C   UNL     1      47.321   7.178  13.094  0.00  0.00    +0.000 A 
ATOM      2  C   UNL     1      46.549   8.342  13.133  0.00  0.00    +0.000 A 
ATOM      3  C   UNL     1      45.418   8.453  12.337  0.00  0.00    +0.000 A 
ATOM      4  F   UNL     1      44.671   9.562  12.418  0.00  0.00    +0.000 F 
ATOM      5  C   UNL     1      45.032   7.429  11.474  0.00  0.00    +0.000 A 
ATOM      6  C   UNL     1      45.796   6.261  11.346  0.00  0.00    +0.000 A 
ATOM      7  C   UNL     1      46.955   6.177  12.162  0.00  0.00    +0.000 A 
ENDROOT
BRANCH   6   8
ATOM      8  C   UNL     1      45.372   5.124  10.463  0.00  0.00    +0.000 A 
ATOM      9  C   UNL     1      45.766   5.134   9.104  0.00  0.00    +0.000 A 
ATOM     10  C   UNL     1      45.456   4.095   8.223  0.00  0.00    +0.000 A 
ATOM     11  C   UNL     1      44.774   2.983   8.685  0.00  0.00    +0.000 A 
ATOM     12  C   UNL     1      44.371   2.929  10.016  0.00  0.00    +0.000 A 
ATOM     13  C   UNL     1      44.622   3.997  10.898  0.00  0.00    +0.000 A 
BRANCH  13  14
ATOM     14  O   UNL     1      44.171   3.982  12.197  0.00  0.00    +0.000 OA
BRANCH  14  15
ATOM     15  C   UNL     1      42.895   4.560  12.449  0.00  0.00    +0.000 C 
ATOM     16  F   UNL     1      43.035   5.531  13.392  0.00  0.00    +0.000 F 
ENDBRANCH  14  15
ENDBRANCH  13  14
ENDBRANCH   6   8
BRANCH   1  17
ATOM     17  C   UNL     1      48.545   6.972  13.968  0.00  0.00    +0.000 C 
BRANCH  17  18
ATOM     18  S   UNL     1      49.417   8.523  14.417  0.00  0.00    +0.000 S 
BRANCH  18  23
ATOM     19  C   UNL     1      51.580   8.407  10.964  0.00  0.00    +0.000 A 
ATOM     20  C   UNL     1      51.433   9.707  10.470  0.00  0.00    +0.000 A 
ATOM     21  C   UNL     1      50.669  10.634  11.182  0.00  0.00    +0.000 A 
ATOM     22  C   UNL     1      50.050  10.262  12.376  0.00  0.00    +0.000 A 
ATOM     23  C   UNL     1      50.171   8.955  12.864  0.00  0.00    +0.000 A 
ATOM     24  C   UNL     1      50.947   8.033  12.156  0.00  0.00    +0.000 A 
BRANCH  19  26
ATOM     25  N   UNL     1      53.423   6.813  10.934  0.00  0.00    +0.000 N 
ATOM     26  C   UNL     1      52.382   7.380  10.254  0.00  0.00    +0.000 C 
ATOM     27  O   UNL     1      52.101   7.023   9.117  0.00  0.00    +0.000 OA
ATOM     28  H   UNL     1      53.877   6.030  10.477  0.00  0.00    +0.000 HD
ATOM     29  H   UNL     1      53.519   6.888  11.935  0.00  0.00    +0.000 HD
ENDBRANCH  19  26
ENDBRANCH  18  23
ENDBRANCH  17  18
ENDBRANCH   1  17
TORSDOF 7
ENDMDL
MODEL 9
REMARK VINA RESULT:    -5.904      2.794      4.881
REMARK INTER + INTRA:         -10.070
REMARK INTER:                  -8.866
REMARK INTRA:                  -1.204
REMARK UNBOUND:                -1.751
REMARK  Name = 
REMARK  7 active torsions:
REMARK  status: ('A' for Active; 'I' for Inactive)
REMARK    1  A    between atoms: C_2  and  C_4
REMARK    2  A    between atoms: C_8  and  S_9
REMARK    3  A    between atoms: S_9  and  C_10
REMARK    4  A    between atoms: C_10  and  C_11
REMARK    5  A    between atoms: C_16  and  C_17
REMARK    6  A    between atoms: C_22  and  O_23
REMARK    7  A    between atoms: O_23  and  C_24
REMARK                            x       y       z     vdW  Elec       q    Type
REMARK                         _______ _______ _______ _____ _____    ______ ____
ROOT
ATOM      1  C   UNL     1      46.778   4.389  13.731  0.00  0.00    +0.000 A 
ATOM      2  C   UNL     1      45.724   4.005  12.899  0.00  0.00    +0.000 A 
ATOM      3  C   UNL     1      45.311   4.841  11.871  0.00  0.00    +0.000 A 
ATOM      4  F   UNL     1      44.324   4.437  11.059  0.00  0.00    +0.000 F 
ATOM      5  C   UNL     1      45.914   6.078  11.651  0.00  0.00    +0.000 A 
ATOM      6  C   UNL     1      46.937   6.545  12.488  0.00  0.00    +0.000 A 
ATOM      7  C   UNL     1      47.333   5.677  13.539  0.00  0.00    +0.000 A 
ENDROOT
BRANCH   6   8
ATOM      8  C   UNL     1      47.637   7.849  12.240  0.00  0.00    +0.000 A 
ATOM      9  C   UNL     1      48.971   7.825  11.768  0.00  0.00    +0.000 A 
ATOM     10  C   UNL     1      49.683   8.989  11.466  0.00  0.00    +0.000 A 
ATOM     11  C   UNL     1      49.066  10.222  11.585  0.00  0.00    +0.000 A 
ATOM     12  C   UNL     1      47.753  10.292  12.042  0.00  0.00    +0.000 A 
ATOM     13  C   UNL     1      47.047   9.131  12.409  0.00  0.00    +0.000 A 
BRANCH  13  14
ATOM     14  O   UNL     1      45.773   9.194  12.922  0.00  0.00    +0.000 OA
BRANCH  14  15
ATOM     15  C   UNL     1      44.786   9.851  12.133  0.00  0.00    +0.000 C 
ATOM     16  F   UNL     1      44.423   9.026  11.114  0.00  0.00    +0.000 F 
ENDBRANCH  14  15
ENDBRANCH  13  14
ENDBRANCH   6   8
BRANCH   1  17
ATOM     17  C   UNL     1      47.308   3.506  14.847  0.00  0.00    +0.000 C 
BRANCH  17  18
ATOM     18  S   UNL     1      47.212   4.264  16.515  0.00  0.00    +0.000 S 
BRANCH  18  23
ATOM     19  C   UNL     1      50.998   3.189  17.576  0.00  0.00    +0.000 A 
ATOM     20  C   UNL     1      51.614   4.426  17.795  0.00  0.00    +0.000 A 
ATOM     21  C   UNL     1      50.883   5.602  17.619  0.00  0.00    +0.000 A 
ATOM     22  C   UNL     1      49.548   5.544  17.218  0.00  0.00    +0.000 A 
ATOM     23  C   UNL     1      48.931   4.312  16.971  0.00  0.00    +0.000 A 
ATOM     24  C   UNL     1      49.660   3.135  17.162  0.00  0.00    +0.000 A 
BRANCH  19  26
ATOM     25  N   UNL     1      52.816   1.906  18.569  0.00  0.00    +0.000 N 
ATOM     26  C   UNL     1      51.721   1.905  17.751  0.00  0.00    +0.000 C 
ATOM     27  O   UNL     1      51.333   0.875  17.216  0.00  0.00    +0.000 OA
ATOM     28  H   UNL     1      53.219   0.998  18.772  0.00  0.00    +0.000 HD
ATOM     29  H   UNL     1      53.005   2.654  19.218  0.00  0.00    +0.000 HD
ENDBRANCH  19  26
ENDBRANCH  18  23
ENDBRANCH  17  18
ENDBRANCH   1  17
TORSDOF 7
ENDMDL
