MODEL 1
REMARK VINA RESULT:    -7.165      0.000      0.000
REMARK INTER + INTRA:         -10.114
REMARK INTER:                  -9.259
REMARK INTRA:                  -0.855
REMARK UNBOUND:                -0.855
REMARK  Name = 
REMARK  7 active torsions:
REMARK  status: ('A' for Active; 'I' for Inactive)
REMARK    1  A    between atoms: C_1  and  C_2
REMARK    2  A    between atoms: C_2  and  C_3
REMARK    3  A    between atoms: C_2  and  C_4
REMARK    4  A    between atoms: C_2  and  C_15
REMARK    5  A    between atoms: C_5  and  C_6
REMARK    6  A    between atoms: C_10  and  C_11
REMARK    7  A    between atoms: C_19  and  C_20
REMARK                            x       y       z     vdW  Elec       q    Type
REMARK                         _______ _______ _______ _____ _____    ______ ____
ROOT
ATOM      1  C   UNL     1      47.722   5.025  18.536  0.00  0.00    +0.000 C 
ATOM      2  C   UNL     1      48.122   4.180  17.304  0.00  0.00    +0.000 C 
ATOM      3  C   UNL     1      47.370   2.830  17.390  0.00  0.00    +0.000 C 
ENDROOT
BRANCH   2   4
ATOM      4  C   UNL     1      49.656   4.020  17.379  0.00  0.00    +0.000 A 
ATOM      5  C   UNL     1      50.492   5.126  17.625  0.00  0.00    +0.000 A 
ATOM      6  C   UNL     1      51.866   4.971  17.829  0.00  0.00    +0.000 A 
ATOM      7  C   UNL     1      52.432   3.701  17.827  0.00  0.00    +0.000 A 
ATOM      8  C   UNL     1      51.628   2.581  17.607  0.00  0.00    +0.000 A 
ATOM      9  C   UNL     1      50.257   2.746  17.352  0.00  0.00    +0.000 A 
BRANCH   8  10
ATOM     10  C   UNL     1      52.252   1.234  17.700  0.00  0.00    +0.000 C 
ATOM     11  N   UNL     1      51.467   0.207  18.146  0.00  0.00    +0.000 N 
ATOM     12  O   UNL     1      53.437   1.052  17.446  0.00  0.00    +0.000 OA
ATOM     13  H   UNL     1      50.576   0.358  18.598  0.00  0.00    +0.000 HD
ATOM     14  H   UNL     1      51.944  -0.664  18.340  0.00  0.00    +0.000 HD
ENDBRANCH   8  10
ENDBRANCH   2   4
BRANCH   2  15
ATOM     15  C   UNL     1      47.675   4.806  15.979  0.00  0.00    +0.000 C 
ATOM     16  C   UNL     1      46.970   4.204  15.005  0.00  0.00    +0.000 C 
BRANCH  16  17
ATOM     17  C   UNL     1      46.563   4.832  13.740  0.00  0.00    +0.000 A 
ATOM     18  C   UNL     1      47.239   5.931  13.194  0.00  0.00    +0.000 A 
ATOM     19  C   UNL     1      46.837   6.481  11.977  0.00  0.00    +0.000 A 
ATOM     20  C   UNL     1      45.770   5.921  11.277  0.00  0.00    +0.000 A 
ATOM     21  C   UNL     1      45.110   4.797  11.787  0.00  0.00    +0.000 A 
ATOM     22  C   UNL     1      45.498   4.265  13.023  0.00  0.00    +0.000 A 
BRANCH  21  23
ATOM     23  C   UNL     1      44.007   4.209  10.985  0.00  0.00    +0.000 C 
ATOM     24  N   UNL     1      43.854   4.642   9.697  0.00  0.00    +0.000 N 
ATOM     25  O   UNL     1      43.225   3.397  11.467  0.00  0.00    +0.000 OA
ATOM     26  H   UNL     1      44.306   5.475   9.347  0.00  0.00    +0.000 HD
ATOM     27  H   UNL     1      43.020   4.328   9.222  0.00  0.00    +0.000 HD
ENDBRANCH  21  23
ENDBRANCH  16  17
ENDBRANCH   2  15
TORSDOF 5
ENDMDL
MODEL 2
REMARK VINA RESULT:    -6.876      2.707      8.323
REMARK INTER + INTRA:          -9.740
REMARK INTER:                  -8.888
REMARK INTRA:                  -0.852
REMARK UNBOUND:                -0.855
REMARK  Name = 
REMARK  7 active torsions:
REMARK  status: ('A' for Active; 'I' for Inactive)
REMARK    1  A    between atoms: C_1  and  C_2
REMARK    2  A    between atoms: C_2  and  C_3
REMARK    3  A    between atoms: C_2  and  C_4
REMARK    4  A    between atoms: C_2  and  C_15
REMARK    5  A    between atoms: C_5  and  C_6
REMARK    6  A    between atoms: C_10  and  C_11
REMARK    7  A    between atoms: C_19  and  C_20
REMARK                            x       y       z     vdW  Elec       q    Type
REMARK                         _______ _______ _______ _____ _____    ______ ____
ROOT
ATOM      1  C   UNL     1      45.929   8.472  12.668  0.00  0.00    +0.000 C 
ATOM      2  C   UNL     1      46.631   7.116  12.415  0.00  0.00    +0.000 C 
ATOM      3  C   UNL     1      47.860   7.379  11.512  0.00  0.00    +0.000 C 
ENDROOT
BRANCH   2   4
ATOM      4  C   UNL     1      45.575   6.211  11.745  0.00  0.00    +0.000 A 
ATOM      5  C   UNL     1      44.248   6.166  12.218  0.00  0.00    +0.000 A 
ATOM      6  C   UNL     1      43.255   5.456  11.538  0.00  0.00    +0.000 A 
ATOM      7  C   UNL     1      43.557   4.802  10.348  0.00  0.00    +0.000 A 
ATOM      8  C   UNL     1      44.857   4.844   9.840  0.00  0.00    +0.000 A 
ATOM      9  C   UNL     1      45.862   5.516  10.554  0.00  0.00    +0.000 A 
BRANCH   8  10
ATOM     10  C   UNL     1      45.120   4.209   8.522  0.00  0.00    +0.000 C 
ATOM     11  N   UNL     1      44.347   3.134   8.177  0.00  0.00    +0.000 N 
ATOM     12  O   UNL     1      46.029   4.586   7.793  0.00  0.00    +0.000 OA
ATOM     13  H   UNL     1      43.769   2.643   8.843  0.00  0.00    +0.000 HD
ATOM     14  H   UNL     1      44.634   2.629   7.349  0.00  0.00    +0.000 HD
ENDBRANCH   8  10
ENDBRANCH   2   4
BRANCH   2  15
ATOM     15  C   UNL     1      47.196   6.489  13.693  0.00  0.00    +0.000 C 
ATOM     16  C   UNL     1      48.300   6.877  14.356  0.00  0.00    +0.000 C 
BRANCH  16  17
ATOM     17  C   UNL     1      48.821   6.248  15.578  0.00  0.00    +0.000 A 
ATOM     18  C   UNL     1      49.985   6.695  16.217  0.00  0.00    +0.000 A 
ATOM     19  C   UNL     1      50.431   6.087  17.391  0.00  0.00    +0.000 A 
ATOM     20  C   UNL     1      49.701   5.043  17.956  0.00  0.00    +0.000 A 
ATOM     21  C   UNL     1      48.514   4.611  17.354  0.00  0.00    +0.000 A 
ATOM     22  C   UNL     1      48.084   5.204  16.160  0.00  0.00    +0.000 A 
BRANCH  21  23
ATOM     23  C   UNL     1      47.749   3.524  18.016  0.00  0.00    +0.000 C 
ATOM     24  N   UNL     1      48.239   3.022  19.190  0.00  0.00    +0.000 N 
ATOM     25  O   UNL     1      46.736   3.052  17.511  0.00  0.00    +0.000 OA
ATOM     26  H   UNL     1      49.182   3.201  19.504  0.00  0.00    +0.000 HD
ATOM     27  H   UNL     1      47.776   2.198  19.545  0.00  0.00    +0.000 HD
ENDBRANCH  21  23
ENDBRANCH  16  17
ENDBRANCH   2  15
TORSDOF 5
ENDMDL
MODEL 3
REMARK VINA RESULT:    -6.856      2.491      7.934
REMARK INTER + INTRA:          -9.714
REMARK INTER:                  -8.763
REMARK INTRA:                  -0.951
REMARK UNBOUND:                -0.855
REMARK  Name = 
REMARK  7 active torsions:
REMARK  status: ('A' for Active; 'I' for Inactive)
REMARK    1  A    between atoms: C_1  and  C_2
REMARK    2  A    between atoms: C_2  and  C_3
REMARK    3  A    between atoms: C_2  and  C_4
REMARK    4  A    between atoms: C_2  and  C_15
REMARK    5  A    between atoms: C_5  and  C_6
REMARK    6  A    between atoms: C_10  and  C_11
REMARK    7  A    between atoms: C_19  and  C_20
REMARK                            x       y       z     vdW  Elec       q    Type
REMARK                         _______ _______ _______ _____ _____    ______ ____
ROOT
ATOM      1  C   UNL     1      45.888   8.310  12.763  0.00  0.00    +0.000 C 
ATOM      2  C   UNL     1      46.822   7.130  12.404  0.00  0.00    +0.000 C 
ATOM      3  C   UNL     1      48.052   7.706  11.663  0.00  0.00    +0.000 C 
ENDROOT
BRANCH   2   4
ATOM      4  C   UNL     1      45.983   6.177  11.527  0.00  0.00    +0.000 A 
ATOM      5  C   UNL     1      46.204   6.080  10.139  0.00  0.00    +0.000 A 
ATOM      6  C   UNL     1      45.545   5.125   9.359  0.00  0.00    +0.000 A 
ATOM      7  C   UNL     1      44.673   4.220   9.956  0.00  0.00    +0.000 A 
ATOM      8  C   UNL     1      44.448   4.275  11.333  0.00  0.00    +0.000 A 
ATOM      9  C   UNL     1      45.074   5.267  12.103  0.00  0.00    +0.000 A 
BRANCH   8  10
ATOM     10  C   UNL     1      43.580   3.235  11.947  0.00  0.00    +0.000 C 
ATOM     11  N   UNL     1      43.503   3.208  13.313  0.00  0.00    +0.000 N 
ATOM     12  O   UNL     1      43.000   2.395  11.271  0.00  0.00    +0.000 OA
ATOM     13  H   UNL     1      44.149   3.709  13.905  0.00  0.00    +0.000 HD
ATOM     14  H   UNL     1      43.028   2.410  13.714  0.00  0.00    +0.000 HD
ENDBRANCH   8  10
ENDBRANCH   2   4
BRANCH   2  15
ATOM     15  C   UNL     1      47.390   6.423  13.638  0.00  0.00    +0.000 C 
ATOM     16  C   UNL     1      48.373   6.872  14.440  0.00  0.00    +0.000 C 
BRANCH  16  17
ATOM     17  C   UNL     1      48.901   6.164  15.614  0.00  0.00    +0.000 A 
ATOM     18  C   UNL     1      50.113   6.516  16.222  0.00  0.00    +0.000 A 
ATOM     19  C   UNL     1      50.566   5.836  17.352  0.00  0.00    +0.000 A 
ATOM     20  C   UNL     1      49.797   4.814  17.906  0.00  0.00    +0.000 A 
ATOM     21  C   UNL     1      48.563   4.478  17.338  0.00  0.00    +0.000 A 
ATOM     22  C   UNL     1      48.125   5.143  16.185  0.00  0.00    +0.000 A 
BRANCH  21  23
ATOM     23  C   UNL     1      47.760   3.412  17.988  0.00  0.00    +0.000 C 
ATOM     24  N   UNL     1      48.174   2.954  19.208  0.00  0.00    +0.000 N 
ATOM     25  O   UNL     1      46.783   2.917  17.436  0.00  0.00    +0.000 OA
ATOM     26  H   UNL     1      49.096   3.149  19.576  0.00  0.00    +0.000 HD
ATOM     27  H   UNL     1      47.691   2.142  19.562  0.00  0.00    +0.000 HD
ENDBRANCH  21  23
ENDBRANCH  16  17
ENDBRANCH   2  15
TORSDOF 5
ENDMDL
MODEL 4
REMARK VINA RESULT:    -6.854      2.826      4.043
REMARK INTER + INTRA:          -9.712
REMARK INTER:                  -8.759
REMARK INTRA:                  -0.953
REMARK UNBOUND:                -0.855
REMARK  Name = 
REMARK  7 active torsions:
REMARK  status: ('A' for Active; 'I' for Inactive)
REMARK    1  A    between atoms: C_1  and  C_2
REMARK    2  A    between atoms: C_2  and  C_3
REMARK    3  A    between atoms: C_2  and  C_4
REMARK    4  A    between atoms: C_2  and  C_15
REMARK    5  A    between atoms: C_5  and  C_6
REMARK    6  A    between atoms: C_10  and  C_11
REMARK    7  A    between atoms: C_19  and  C_20
REMARK                            x       y       z     vdW  Elec       q    Type
REMARK                         _______ _______ _______ _____ _____    ______ ____
ROOT
ATOM      1  C   UNL     1      49.733   7.676  13.208  0.00  0.00    +0.000 C 
ATOM      2  C   UNL     1      48.449   7.316  13.993  0.00  0.00    +0.000 C 
ATOM      3  C   UNL     1      47.700   8.633  14.308  0.00  0.00    +0.000 C 
ENDROOT
BRANCH   2   4
ATOM      4  C   UNL     1      48.921   6.574  15.261  0.00  0.00    +0.000 A 
ATOM      5  C   UNL     1      50.045   7.015  15.987  0.00  0.00    +0.000 A 
ATOM      6  C   UNL     1      50.400   6.434  17.208  0.00  0.00    +0.000 A 
ATOM      7  C   UNL     1      49.617   5.420  17.750  0.00  0.00    +0.000 A 
ATOM      8  C   UNL     1      48.483   4.974  17.067  0.00  0.00    +0.000 A 
ATOM      9  C   UNL     1      48.161   5.526  15.818  0.00  0.00    +0.000 A 
BRANCH   8  10
ATOM     10  C   UNL     1      47.622   3.953  17.720  0.00  0.00    +0.000 C 
ATOM     11  N   UNL     1      47.994   3.520  18.964  0.00  0.00    +0.000 N 
ATOM     12  O   UNL     1      46.651   3.468  17.154  0.00  0.00    +0.000 OA
ATOM     13  H   UNL     1      48.908   3.702  19.353  0.00  0.00    +0.000 HD
ATOM     14  H   UNL     1      47.483   2.727  19.328  0.00  0.00    +0.000 HD
ENDBRANCH   8  10
ENDBRANCH   2   4
BRANCH   2  15
ATOM     15  C   UNL     1      47.463   6.479  13.172  0.00  0.00    +0.000 C 
ATOM     16  C   UNL     1      46.150   6.718  13.007  0.00  0.00    +0.000 C 
BRANCH  16  17
ATOM     17  C   UNL     1      45.229   5.889  12.217  0.00  0.00    +0.000 A 
ATOM     18  C   UNL     1      43.959   5.524  12.681  0.00  0.00    +0.000 A 
ATOM     19  C   UNL     1      43.104   4.758  11.889  0.00  0.00    +0.000 A 
ATOM     20  C   UNL     1      43.498   4.373  10.609  0.00  0.00    +0.000 A 
ATOM     21  C   UNL     1      44.746   4.765  10.112  0.00  0.00    +0.000 A 
ATOM     22  C   UNL     1      45.614   5.509  10.921  0.00  0.00    +0.000 A 
BRANCH  21  23
ATOM     23  C   UNL     1      45.105   4.367   8.727  0.00  0.00    +0.000 C 
ATOM     24  N   UNL     1      44.351   3.397   8.126  0.00  0.00    +0.000 N 
ATOM     25  O   UNL     1      46.073   4.850   8.150  0.00  0.00    +0.000 OA
ATOM     26  H   UNL     1      43.717   2.804   8.644  0.00  0.00    +0.000 HD
ATOM     27  H   UNL     1      44.698   3.052   7.243  0.00  0.00    +0.000 HD
ENDBRANCH  21  23
ENDBRANCH  16  17
ENDBRANCH   2  15
TORSDOF 5
ENDMDL
MODEL 5
REMARK VINA RESULT:    -6.711      5.797      8.416
REMARK INTER + INTRA:          -9.527
REMARK INTER:                  -8.525
REMARK INTRA:                  -1.001
REMARK UNBOUND:                -0.855
REMARK  Name = 
REMARK  7 active torsions:
REMARK  status: ('A' for Active; 'I' for Inactive)
REMARK    1  A    between atoms: C_1  and  C_2
REMARK    2  A    between atoms: C_2  and  C_3
REMARK    3  A    between atoms: C_2  and  C_4
REMARK    4  A    between atoms: C_2  and  C_15
REMARK    5  A    between atoms: C_5  and  C_6
REMARK    6  A    between atoms: C_10  and  C_11
REMARK    7  A    between atoms: C_19  and  C_20
REMARK                            x       y       z     vdW  Elec       q    Type
REMARK                         _______ _______ _______ _____ _____    ______ ____
ROOT
ATOM      1  C   UNL     1      47.700   8.482  14.148  0.00  0.00    +0.000 C 
ATOM      2  C   UNL     1      47.705   8.330  12.608  0.00  0.00    +0.000 C 
ATOM      3  C   UNL     1      49.156   8.018  12.168  0.00  0.00    +0.000 C 
ENDROOT
BRANCH   2   4
ATOM      4  C   UNL     1      47.182   9.669  12.047  0.00  0.00    +0.000 A 
ATOM      5  C   UNL     1      48.040  10.564  11.379  0.00  0.00    +0.000 A 
ATOM      6  C   UNL     1      47.550  11.713  10.751  0.00  0.00    +0.000 A 
ATOM      7  C   UNL     1      46.184  11.976  10.746  0.00  0.00    +0.000 A 
ATOM      8  C   UNL     1      45.304  11.097  11.381  0.00  0.00    +0.000 A 
ATOM      9  C   UNL     1      45.806   9.972  12.054  0.00  0.00    +0.000 A 
BRANCH   8  10
ATOM     10  C   UNL     1      43.844  11.365  11.278  0.00  0.00    +0.000 C 
ATOM     11  N   UNL     1      43.016  10.658  12.107  0.00  0.00    +0.000 N 
ATOM     12  O   UNL     1      43.386  12.140  10.449  0.00  0.00    +0.000 OA
ATOM     13  H   UNL     1      43.323   9.842  12.617  0.00  0.00    +0.000 HD
ATOM     14  H   UNL     1      42.026  10.746  11.924  0.00  0.00    +0.000 HD
ENDBRANCH   8  10
ENDBRANCH   2   4
BRANCH   2  15
ATOM     15  C   UNL     1      46.872   7.139  12.124  0.00  0.00    +0.000 C 
ATOM     16  C   UNL     1      46.635   6.793  10.846  0.00  0.00    +0.000 C 
BRANCH  16  17
ATOM     17  C   UNL     1      45.823   5.647  10.414  0.00  0.00    +0.000 A 
ATOM     18  C   UNL     1      45.813   5.189   9.090  0.00  0.00    +0.000 A 
ATOM     19  C   UNL     1      45.049   4.079   8.727  0.00  0.00    +0.000 A 
ATOM     20  C   UNL     1      44.308   3.397   9.690  0.00  0.00    +0.000 A 
ATOM     21  C   UNL     1      44.340   3.815  11.025  0.00  0.00    +0.000 A 
ATOM     22  C   UNL     1      45.085   4.947  11.381  0.00  0.00    +0.000 A 
BRANCH  21  23
ATOM     23  C   UNL     1      43.568   3.032  12.023  0.00  0.00    +0.000 C 
ATOM     24  N   UNL     1      43.642   3.417  13.332  0.00  0.00    +0.000 N 
ATOM     25  O   UNL     1      42.922   2.040  11.701  0.00  0.00    +0.000 OA
ATOM     26  H   UNL     1      44.348   4.057  13.670  0.00  0.00    +0.000 HD
ATOM     27  H   UNL     1      43.220   2.790  14.002  0.00  0.00    +0.000 HD
ENDBRANCH  21  23
ENDBRANCH  16  17
ENDBRANCH   2  15
TORSDOF 5
ENDMDL
MODEL 6
REMARK VINA RESULT:    -6.666      3.007      4.753
REMARK INTER + INTRA:          -9.469
REMARK INTER:                  -8.491
REMARK INTRA:                  -0.978
REMARK UNBOUND:                -0.855
REMARK  Name = 
REMARK  7 active torsions:
REMARK  status: ('A' for Active; 'I' for Inactive)
REMARK    1  A    between atoms: C_1  and  C_2
REMARK    2  A    between atoms: C_2  and  C_3
REMARK    3  A    between atoms: C_2  and  C_4
REMARK    4  A    between atoms: C_2  and  C_15
REMARK    5  A    between atoms: C_5  and  C_6
REMARK    6  A    between atoms: C_10  and  C_11
REMARK    7  A    between atoms: C_19  and  C_20
REMARK                            x       y       z     vdW  Elec       q    Type
REMARK                         _______ _______ _______ _____ _____    ______ ____
ROOT
ATOM      1  C   UNL     1      49.754   8.192  12.078  0.00  0.00    +0.000 C 
ATOM      2  C   UNL     1      48.359   7.976  12.711  0.00  0.00    +0.000 C 
ATOM      3  C   UNL     1      47.509   9.238  12.427  0.00  0.00    +0.000 C 
ENDROOT
BRANCH   2   4
ATOM      4  C   UNL     1      48.608   7.744  14.216  0.00  0.00    +0.000 A 
ATOM      5  C   UNL     1      48.764   8.827  15.104  0.00  0.00    +0.000 A 
ATOM      6  C   UNL     1      48.855   8.631  16.485  0.00  0.00    +0.000 A 
ATOM      7  C   UNL     1      48.756   7.349  17.015  0.00  0.00    +0.000 A 
ATOM      8  C   UNL     1      48.579   6.256  16.164  0.00  0.00    +0.000 A 
ATOM      9  C   UNL     1      48.540   6.453  14.775  0.00  0.00    +0.000 A 
BRANCH   8  10
ATOM     10  C   UNL     1      48.388   4.912  16.773  0.00  0.00    +0.000 C 
ATOM     11  N   UNL     1      47.138   4.606  17.239  0.00  0.00    +0.000 N 
ATOM     12  O   UNL     1      49.317   4.127  16.910  0.00  0.00    +0.000 OA
ATOM     13  H   UNL     1      46.421   5.303  17.373  0.00  0.00    +0.000 HD
ATOM     14  H   UNL     1      47.063   3.752  17.776  0.00  0.00    +0.000 HD
ENDBRANCH   8  10
ENDBRANCH   2   4
BRANCH   2  15
ATOM     15  C   UNL     1      47.587   6.818  12.072  0.00  0.00    +0.000 C 
ATOM     16  C   UNL     1      46.465   6.911  11.335  0.00  0.00    +0.000 C 
BRANCH  16  17
ATOM     17  C   UNL     1      45.743   5.777  10.741  0.00  0.00    +0.000 A 
ATOM     18  C   UNL     1      45.860   5.437   9.388  0.00  0.00    +0.000 A 
ATOM     19  C   UNL     1      45.178   4.336   8.869  0.00  0.00    +0.000 A 
ATOM     20  C   UNL     1      44.394   3.544   9.705  0.00  0.00    +0.000 A 
ATOM     21  C   UNL     1      44.301   3.843  11.069  0.00  0.00    +0.000 A 
ATOM     22  C   UNL     1      44.963   4.967  11.581  0.00  0.00    +0.000 A 
BRANCH  21  23
ATOM     23  C   UNL     1      43.489   2.946  11.929  0.00  0.00    +0.000 C 
ATOM     24  N   UNL     1      43.509   3.164  13.278  0.00  0.00    +0.000 N 
ATOM     25  O   UNL     1      42.856   2.006  11.459  0.00  0.00    +0.000 OA
ATOM     26  H   UNL     1      44.200   3.753  13.722  0.00  0.00    +0.000 HD
ATOM     27  H   UNL     1      43.059   2.461  13.847  0.00  0.00    +0.000 HD
ENDBRANCH  21  23
ENDBRANCH  16  17
ENDBRANCH   2  15
TORSDOF 5
ENDMDL
MODEL 7
REMARK VINA RESULT:    -6.472      3.268      5.032
REMARK INTER + INTRA:          -9.218
REMARK INTER:                  -8.236
REMARK INTRA:                  -0.981
REMARK UNBOUND:                -0.855
REMARK  Name = 
REMARK  7 active torsions:
REMARK  status: ('A' for Active; 'I' for Inactive)
REMARK    1  A    between atoms: C_1  and  C_2
REMARK    2  A    between atoms: C_2  and  C_3
REMARK    3  A    between atoms: C_2  and  C_4
REMARK    4  A    between atoms: C_2  and  C_15
REMARK    5  A    between atoms: C_5  and  C_6
REMARK    6  A    between atoms: C_10  and  C_11
REMARK    7  A    between atoms: C_19  and  C_20
REMARK                            x       y       z     vdW  Elec       q    Type
REMARK                         _______ _______ _______ _____ _____    ______ ____
ROOT
ATOM      1  C   UNL     1      49.936   8.289  11.859  0.00  0.00    +0.000 C 
ATOM      2  C   UNL     1      48.536   8.325  12.518  0.00  0.00    +0.000 C 
ATOM      3  C   UNL     1      47.893   9.695  12.192  0.00  0.00    +0.000 C 
ENDROOT
BRANCH   2   4
ATOM      4  C   UNL     1      48.773   8.116  14.028  0.00  0.00    +0.000 A 
ATOM      5  C   UNL     1      48.915   9.212  14.902  0.00  0.00    +0.000 A 
ATOM      6  C   UNL     1      48.994   9.036  16.287  0.00  0.00    +0.000 A 
ATOM      7  C   UNL     1      48.898   7.760  16.833  0.00  0.00    +0.000 A 
ATOM      8  C   UNL     1      48.735   6.654  15.996  0.00  0.00    +0.000 A 
ATOM      9  C   UNL     1      48.707   6.832  14.605  0.00  0.00    +0.000 A 
BRANCH   8  10
ATOM     10  C   UNL     1      48.547   5.318  16.622  0.00  0.00    +0.000 C 
ATOM     11  N   UNL     1      47.300   5.018  17.099  0.00  0.00    +0.000 N 
ATOM     12  O   UNL     1      49.476   4.533  16.763  0.00  0.00    +0.000 OA
ATOM     13  H   UNL     1      46.584   5.718  17.230  0.00  0.00    +0.000 HD
ATOM     14  H   UNL     1      47.227   4.171  17.646  0.00  0.00    +0.000 HD
ENDBRANCH   8  10
ENDBRANCH   2   4
BRANCH   2  15
ATOM     15  C   UNL     1      47.576   7.282  11.937  0.00  0.00    +0.000 C 
ATOM     16  C   UNL     1      46.232   7.330  11.955  0.00  0.00    +0.000 C 
BRANCH  16  17
ATOM     17  C   UNL     1      45.339   6.307  11.394  0.00  0.00    +0.000 A 
ATOM     18  C   UNL     1      44.100   5.994  11.968  0.00  0.00    +0.000 A 
ATOM     19  C   UNL     1      43.269   5.035  11.389  0.00  0.00    +0.000 A 
ATOM     20  C   UNL     1      43.655   4.397  10.212  0.00  0.00    +0.000 A 
ATOM     21  C   UNL     1      44.870   4.727   9.601  0.00  0.00    +0.000 A 
ATOM     22  C   UNL     1      45.715   5.670  10.201  0.00  0.00    +0.000 A 
BRANCH  21  23
ATOM     23  C   UNL     1      45.219   4.053   8.326  0.00  0.00    +0.000 C 
ATOM     24  N   UNL     1      44.415   3.031   7.903  0.00  0.00    +0.000 N 
ATOM     25  O   UNL     1      46.221   4.360   7.689  0.00  0.00    +0.000 OA
ATOM     26  H   UNL     1      43.740   2.585   8.509  0.00  0.00    +0.000 HD
ATOM     27  H   UNL     1      44.749   2.505   7.109  0.00  0.00    +0.000 HD
ENDBRANCH  21  23
ENDBRANCH  16  17
ENDBRANCH   2  15
TORSDOF 5
ENDMDL
MODEL 8
REMARK VINA RESULT:    -6.371      2.885      8.478
REMARK INTER + INTRA:          -9.088
REMARK INTER:                  -8.138
REMARK INTRA:                  -0.950
REMARK UNBOUND:                -0.855
REMARK  Name = 
REMARK  7 active torsions:
REMARK  status: ('A' for Active; 'I' for Inactive)
REMARK    1  A    between atoms: C_1  and  C_2
REMARK    2  A    between atoms: C_2  and  C_3
REMARK    3  A    between atoms: C_2  and  C_4
REMARK    4  A    between atoms: C_2  and  C_15
REMARK    5  A    between atoms: C_5  and  C_6
REMARK    6  A    between atoms: C_10  and  C_11
REMARK    7  A    between atoms: C_19  and  C_20
REMARK                            x       y       z     vdW  Elec       q    Type
REMARK                         _______ _______ _______ _____ _____    ______ ____
ROOT
ATOM      1  C   UNL     1      45.707   8.341  12.835  0.00  0.00    +0.000 C 
ATOM      2  C   UNL     1      46.472   7.008  12.658  0.00  0.00    +0.000 C 
ATOM      3  C   UNL     1      47.742   7.297  11.822  0.00  0.00    +0.000 C 
ENDROOT
BRANCH   2   4
ATOM      4  C   UNL     1      45.492   6.048  11.951  0.00  0.00    +0.000 A 
ATOM      5  C   UNL     1      44.196   5.826  12.458  0.00  0.00    +0.000 A 
ATOM      6  C   UNL     1      43.258   5.066  11.754  0.00  0.00    +0.000 A 
ATOM      7  C   UNL     1      43.582   4.538  10.508  0.00  0.00    +0.000 A 
ATOM      8  C   UNL     1      44.851   4.757   9.967  0.00  0.00    +0.000 A 
ATOM      9  C   UNL     1      45.806   5.478  10.701  0.00  0.00    +0.000 A 
BRANCH   8  10
ATOM     10  C   UNL     1      45.129   4.253   8.596  0.00  0.00    +0.000 C 
ATOM     11  N   UNL     1      44.279   3.309   8.089  0.00  0.00    +0.000 N 
ATOM     12  O   UNL     1      46.111   4.618   7.961  0.00  0.00    +0.000 OA
ATOM     13  H   UNL     1      43.619   2.805   8.664  0.00  0.00    +0.000 HD
ATOM     14  H   UNL     1      44.565   2.876   7.221  0.00  0.00    +0.000 HD
ENDBRANCH   8  10
ENDBRANCH   2   4
BRANCH   2  15
ATOM     15  C   UNL     1      46.984   6.434  13.982  0.00  0.00    +0.000 C 
ATOM     16  C   UNL     1      47.185   5.135  14.269  0.00  0.00    +0.000 C 
BRANCH  16  17
ATOM     17  C   UNL     1      47.671   4.615  15.555  0.00  0.00    +0.000 A 
ATOM     18  C   UNL     1      47.632   3.253  15.878  0.00  0.00    +0.000 A 
ATOM     19  C   UNL     1      48.129   2.797  17.100  0.00  0.00    +0.000 A 
ATOM     20  C   UNL     1      48.697   3.695  18.001  0.00  0.00    +0.000 A 
ATOM     21  C   UNL     1      48.783   5.054  17.676  0.00  0.00    +0.000 A 
ATOM     22  C   UNL     1      48.257   5.512  16.461  0.00  0.00    +0.000 A 
BRANCH  21  23
ATOM     23  C   UNL     1      49.435   5.966  18.649  0.00  0.00    +0.000 C 
ATOM     24  N   UNL     1      49.699   7.246  18.246  0.00  0.00    +0.000 N 
ATOM     25  O   UNL     1      49.775   5.581  19.763  0.00  0.00    +0.000 OA
ATOM     26  H   UNL     1      49.669   7.526  17.275  0.00  0.00    +0.000 HD
ATOM     27  H   UNL     1      50.261   7.800  18.875  0.00  0.00    +0.000 HD
ENDBRANCH  21  23
ENDBRANCH  16  17
ENDBRANCH   2  15
TORSDOF 5
ENDMDL
MODEL 9
REMARK VINA RESULT:    -6.324      2.541      3.334
REMARK INTER + INTRA:          -9.027
REMARK INTER:                  -8.193
REMARK INTRA:                  -0.834
REMARK UNBOUND:                -0.855
REMARK  Name = 
REMARK  7 active torsions:
REMARK  status: ('A' for Active; 'I' for Inactive)
REMARK    1  A    between atoms: C_1  and  C_2
REMARK    2  A    between atoms: C_2  and  C_3
REMARK    3  A    between atoms: C_2  and  C_4
REMARK    4  A    between atoms: C_2  and  C_15
REMARK    5  A    between atoms: C_5  and  C_6
REMARK    6  A    between atoms: C_10  and  C_11
REMARK    7  A    between atoms: C_19  and  C_20
REMARK                            x       y       z     vdW  Elec       q    Type
REMARK                         _______ _______ _______ _____ _____    ______ ____
ROOT
ATOM      1  C   UNL     1      50.648   7.870  14.628  0.00  0.00    +0.000 C 
ATOM      2  C   UNL     1      49.401   7.541  15.484  0.00  0.00    +0.000 C 
ATOM      3  C   UNL     1      49.135   8.746  16.418  0.00  0.00    +0.000 C 
ENDROOT
BRANCH   2   4
ATOM      4  C   UNL     1      49.744   6.248  16.253  0.00  0.00    +0.000 A 
ATOM      5  C   UNL     1      51.060   5.980  16.678  0.00  0.00    +0.000 A 
ATOM      6  C   UNL     1      51.356   4.881  17.490  0.00  0.00    +0.000 A 
ATOM      7  C   UNL     1      50.336   4.042  17.925  0.00  0.00    +0.000 A 
ATOM      8  C   UNL     1      49.017   4.291  17.540  0.00  0.00    +0.000 A 
ATOM      9  C   UNL     1      48.732   5.366  16.683  0.00  0.00    +0.000 A 
BRANCH   8  10
ATOM     10  C   UNL     1      47.944   3.426  18.098  0.00  0.00    +0.000 C 
ATOM     11  N   UNL     1      48.141   2.909  19.349  0.00  0.00    +0.000 N 
ATOM     12  O   UNL     1      46.946   3.134  17.450  0.00  0.00    +0.000 OA
ATOM     13  H   UNL     1      49.041   2.917  19.806  0.00  0.00    +0.000 HD
ATOM     14  H   UNL     1      47.473   2.212  19.651  0.00  0.00    +0.000 HD
ENDBRANCH   8  10
ENDBRANCH   2   4
BRANCH   2  15
ATOM     15  C   UNL     1      48.127   7.390  14.647  0.00  0.00    +0.000 C 
ATOM     16  C   UNL     1      47.910   6.493  13.669  0.00  0.00    +0.000 C 
BRANCH  16  17
ATOM     17  C   UNL     1      46.677   6.379  12.879  0.00  0.00    +0.000 A 
ATOM     18  C   UNL     1      46.116   7.469  12.200  0.00  0.00    +0.000 A 
ATOM     19  C   UNL     1      44.958   7.313  11.438  0.00  0.00    +0.000 A 
ATOM     20  C   UNL     1      44.362   6.058  11.323  0.00  0.00    +0.000 A 
ATOM     21  C   UNL     1      44.933   4.950  11.960  0.00  0.00    +0.000 A 
ATOM     22  C   UNL     1      46.079   5.116  12.748  0.00  0.00    +0.000 A 
BRANCH  21  23
ATOM     23  C   UNL     1      44.287   3.626  11.773  0.00  0.00    +0.000 C 
ATOM     24  N   UNL     1      44.810   2.560  12.452  0.00  0.00    +0.000 N 
ATOM     25  O   UNL     1      43.347   3.473  11.000  0.00  0.00    +0.000 OA
ATOM     26  H   UNL     1      45.719   2.590  12.891  0.00  0.00    +0.000 HD
ATOM     27  H   UNL     1      44.439   1.654  12.204  0.00  0.00    +0.000 HD
ENDBRANCH  21  23
ENDBRANCH  16  17
ENDBRANCH   2  15
TORSDOF 5
ENDMDL
