MODEL 1
REMARK VINA RESULT:    -8.354      0.000      0.000
REMARK INTER + INTRA:         -13.086
REMARK INTER:                 -12.017
REMARK INTRA:                  -1.069
REMARK UNBOUND:                -1.069
REMARK  Name = 
REMARK  8 active torsions:
REMARK  status: ('A' for Active; 'I' for Inactive)
REMARK    1  A    between atoms: C_2  and  C_4
REMARK    2  A    between atoms: C_7  and  O_8
REMARK    3  A    between atoms: O_8  and  C_9
REMARK    4  A    between atoms: C_9  and  C_10
REMARK    5  A    between atoms: C_10  and  C_11
REMARK    6  A    between atoms: C_15  and  O_16
REMARK    7  A    between atoms: O_16  and  C_17
REMARK    8  A    between atoms: C_19  and  O_20
REMARK                            x       y       z     vdW  Elec       q    Type
REMARK                         _______ _______ _______ _____ _____    ______ ____
ROOT
ATOM      1  C   UNL     1      43.887   4.360  12.528  0.00  0.00    +0.000 C 
ENDROOT
BRANCH   1   2
ATOM      2  C   UNL     1      45.256   4.959  12.724  0.00  0.00    +0.000 A 
ATOM      3  C   UNL     1      45.736   5.910  11.814  0.00  0.00    +0.000 A 
ATOM      4  C   UNL     1      46.985   6.497  12.001  0.00  0.00    +0.000 A 
ATOM      5  C   UNL     1      47.756   6.157  13.113  0.00  0.00    +0.000 A 
ATOM      6  C   UNL     1      47.274   5.242  14.046  0.00  0.00    +0.000 A 
ATOM      7  C   UNL     1      46.038   4.625  13.841  0.00  0.00    +0.000 A 
BRANCH   6   8
ATOM      8  O   UNL     1      47.955   4.899  15.192  0.00  0.00    +0.000 OA
BRANCH   8   9
ATOM      9  C   UNL     1      47.242   4.084  16.156  0.00  0.00    +0.000 C 
ATOM     10  C   UNL     1      47.204   4.606  17.612  0.00  0.00    +0.000 C 
ATOM     11  C   UNL     1      48.392   3.683  17.931  0.00  0.00    +0.000 C 
ATOM     12  C   UNL     1      48.005   2.852  16.694  0.00  0.00    +0.000 C 
BRANCH  11  13
ATOM     13  O   UNL     1      48.352   3.011  19.204  0.00  0.00    +0.000 OA
ATOM     14  H   UNL     1      49.085   2.372  19.194  0.00  0.00    +0.000 HD
ENDBRANCH  11  13
ENDBRANCH   8   9
ENDBRANCH   6   8
ENDBRANCH   1   2
BRANCH   1  15
ATOM     15  C   UNL     1      43.938   3.142  11.606  0.00  0.00    +0.000 C 
BRANCH  15  16
ATOM     16  O   UNL     1      43.668   3.570  10.269  0.00  0.00    +0.000 OA
BRANCH  16  20
ATOM     17  C   UNL     1      46.540   2.399   7.475  0.00  0.00    +0.000 A 
ATOM     18  C   UNL     1      46.187   3.751   7.543  0.00  0.00    +0.000 A 
ATOM     19  C   UNL     1      45.228   4.185   8.466  0.00  0.00    +0.000 A 
ATOM     20  C   UNL     1      44.613   3.272   9.326  0.00  0.00    +0.000 A 
ATOM     21  C   UNL     1      44.954   1.920   9.242  0.00  0.00    +0.000 A 
ATOM     22  C   UNL     1      45.907   1.481   8.319  0.00  0.00    +0.000 A 
BRANCH  17  24
ATOM     23  N   UNL     1      48.713   2.624   6.400  0.00  0.00    +0.000 N 
ATOM     24  C   UNL     1      47.558   1.901   6.515  0.00  0.00    +0.000 C 
ATOM     25  O   UNL     1      47.395   0.867   5.880  0.00  0.00    +0.000 OA
ATOM     26  H   UNL     1      49.443   2.209   5.835  0.00  0.00    +0.000 HD
ATOM     27  H   UNL     1      48.990   3.311   7.088  0.00  0.00    +0.000 HD
ENDBRANCH  17  24
ENDBRANCH  16  20
ENDBRANCH  15  16
ENDBRANCH   1  15
TORSDOF 8
ENDMDL
MODEL 2
REMARK VINA RESULT:    -7.318      2.480      4.132
REMARK INTER + INTRA:         -11.596
REMARK INTER:                 -10.403
REMARK INTRA:                  -1.193
REMARK UNBOUND:                -1.069
REMARK  Name = 
REMARK  8 active torsions:
REMARK  status: ('A' for Active; 'I' for Inactive)
REMARK    1  A    between atoms: C_2  and  C_4
REMARK    2  A    between atoms: C_7  and  O_8
REMARK    3  A    between atoms: O_8  and  C_9
REMARK    4  A    between atoms: C_9  and  C_10
REMARK    5  A    between atoms: C_10  and  C_11
REMARK    6  A    between atoms: C_15  and  O_16
REMARK    7  A    between atoms: O_16  and  C_17
REMARK    8  A    between atoms: C_19  and  O_20
REMARK                            x       y       z     vdW  Elec       q    Type
REMARK                         _______ _______ _______ _____ _____    ______ ____
ROOT
ATOM      1  C   UNL     1      43.247   5.322  12.363  0.00  0.00    +0.000 C 
ENDROOT
BRANCH   1   2
ATOM      2  C   UNL     1      44.679   5.389  12.830  0.00  0.00    +0.000 A 
ATOM      3  C   UNL     1      45.347   4.214  13.197  0.00  0.00    +0.000 A 
ATOM      4  C   UNL     1      46.680   4.257  13.600  0.00  0.00    +0.000 A 
ATOM      5  C   UNL     1      47.365   5.472  13.614  0.00  0.00    +0.000 A 
ATOM      6  C   UNL     1      46.724   6.642  13.215  0.00  0.00    +0.000 A 
ATOM      7  C   UNL     1      45.377   6.607  12.847  0.00  0.00    +0.000 A 
BRANCH   6   8
ATOM      8  O   UNL     1      47.352   7.866  13.154  0.00  0.00    +0.000 OA
BRANCH   8   9
ATOM      9  C   UNL     1      47.888   8.262  11.866  0.00  0.00    +0.000 C 
ATOM     10  C   UNL     1      49.333   7.808  11.549  0.00  0.00    +0.000 C 
ATOM     11  C   UNL     1      49.825   9.190  12.012  0.00  0.00    +0.000 C 
ATOM     12  C   UNL     1      48.399   9.717  11.765  0.00  0.00    +0.000 C 
BRANCH  11  13
ATOM     13  O   UNL     1      50.881   9.783  11.234  0.00  0.00    +0.000 OA
ATOM     14  H   UNL     1      50.900  10.724  11.479  0.00  0.00    +0.000 HD
ENDBRANCH  11  13
ENDBRANCH   8   9
ENDBRANCH   6   8
ENDBRANCH   1   2
BRANCH   1  15
ATOM     15  C   UNL     1      43.072   4.293  11.247  0.00  0.00    +0.000 C 
BRANCH  15  16
ATOM     16  O   UNL     1      43.676   4.805  10.057  0.00  0.00    +0.000 OA
BRANCH  16  20
ATOM     17  C   UNL     1      46.362   2.460   7.884  0.00  0.00    +0.000 A 
ATOM     18  C   UNL     1      45.481   1.824   8.765  0.00  0.00    +0.000 A 
ATOM     19  C   UNL     1      44.565   2.574   9.512  0.00  0.00    +0.000 A 
ATOM     20  C   UNL     1      44.524   3.964   9.387  0.00  0.00    +0.000 A 
ATOM     21  C   UNL     1      45.418   4.598   8.521  0.00  0.00    +0.000 A 
ATOM     22  C   UNL     1      46.338   3.854   7.777  0.00  0.00    +0.000 A 
BRANCH  17  24
ATOM     23  N   UNL     1      48.377   2.405   6.519  0.00  0.00    +0.000 N 
ATOM     24  C   UNL     1      47.343   1.699   7.069  0.00  0.00    +0.000 C 
ATOM     25  O   UNL     1      47.260   0.487   6.925  0.00  0.00    +0.000 OA
ATOM     26  H   UNL     1      49.100   1.857   6.070  0.00  0.00    +0.000 HD
ATOM     27  H   UNL     1      48.623   3.334   6.832  0.00  0.00    +0.000 HD
ENDBRANCH  17  24
ENDBRANCH  16  20
ENDBRANCH  15  16
ENDBRANCH   1  15
TORSDOF 8
ENDMDL
MODEL 3
REMARK VINA RESULT:    -6.799      2.940      8.395
REMARK INTER + INTRA:         -10.849
REMARK INTER:                 -10.209
REMARK INTRA:                  -0.639
REMARK UNBOUND:                -1.069
REMARK  Name = 
REMARK  8 active torsions:
REMARK  status: ('A' for Active; 'I' for Inactive)
REMARK    1  A    between atoms: C_2  and  C_4
REMARK    2  A    between atoms: C_7  and  O_8
REMARK    3  A    between atoms: O_8  and  C_9
REMARK    4  A    between atoms: C_9  and  C_10
REMARK    5  A    between atoms: C_10  and  C_11
REMARK    6  A    between atoms: C_15  and  O_16
REMARK    7  A    between atoms: O_16  and  C_17
REMARK    8  A    between atoms: C_19  and  O_20
REMARK                            x       y       z     vdW  Elec       q    Type
REMARK                         _______ _______ _______ _____ _____    ______ ____
ROOT
ATOM      1  C   UNL     1      44.808   6.577  12.236  0.00  0.00    +0.000 C 
ENDROOT
BRANCH   1   2
ATOM      2  C   UNL     1      44.719   5.377  11.328  0.00  0.00    +0.000 A 
ATOM      3  C   UNL     1      43.930   4.281  11.699  0.00  0.00    +0.000 A 
ATOM      4  C   UNL     1      43.813   3.179  10.855  0.00  0.00    +0.000 A 
ATOM      5  C   UNL     1      44.463   3.173   9.621  0.00  0.00    +0.000 A 
ATOM      6  C   UNL     1      45.219   4.273   9.223  0.00  0.00    +0.000 A 
ATOM      7  C   UNL     1      45.368   5.363  10.083  0.00  0.00    +0.000 A 
BRANCH   6   8
ATOM      8  O   UNL     1      45.844   4.359   7.999  0.00  0.00    +0.000 OA
BRANCH   8   9
ATOM      9  C   UNL     1      45.844   3.161   7.181  0.00  0.00    +0.000 C 
ATOM     10  C   UNL     1      46.823   2.038   7.598  0.00  0.00    +0.000 C 
ATOM     11  C   UNL     1      47.817   2.573   6.553  0.00  0.00    +0.000 C 
ATOM     12  C   UNL     1      46.626   3.252   5.851  0.00  0.00    +0.000 C 
BRANCH  11  13
ATOM     13  O   UNL     1      48.539   1.584   5.796  0.00  0.00    +0.000 OA
ATOM     14  H   UNL     1      48.242   1.680   4.876  0.00  0.00    +0.000 HD
ENDBRANCH  11  13
ENDBRANCH   8   9
ENDBRANCH   6   8
ENDBRANCH   1   2
BRANCH   1  15
ATOM     15  C   UNL     1      46.260   6.982  12.486  0.00  0.00    +0.000 C 
BRANCH  15  16
ATOM     16  O   UNL     1      47.042   5.796  12.644  0.00  0.00    +0.000 OA
BRANCH  16  20
ATOM     17  C   UNL     1      48.165   4.933  16.572  0.00  0.00    +0.000 A 
ATOM     18  C   UNL     1      47.362   4.014  15.890  0.00  0.00    +0.000 A 
ATOM     19  C   UNL     1      46.963   4.265  14.572  0.00  0.00    +0.000 A 
ATOM     20  C   UNL     1      47.362   5.438  13.926  0.00  0.00    +0.000 A 
ATOM     21  C   UNL     1      48.148   6.363  14.617  0.00  0.00    +0.000 A 
ATOM     22  C   UNL     1      48.545   6.119  15.935  0.00  0.00    +0.000 A 
BRANCH  17  24
ATOM     23  N   UNL     1      47.913   3.784  18.703  0.00  0.00    +0.000 N 
ATOM     24  C   UNL     1      48.615   4.699  17.968  0.00  0.00    +0.000 C 
ATOM     25  O   UNL     1      49.594   5.266  18.435  0.00  0.00    +0.000 OA
ATOM     26  H   UNL     1      48.303   3.547  19.607  0.00  0.00    +0.000 HD
ATOM     27  H   UNL     1      47.287   3.116  18.276  0.00  0.00    +0.000 HD
ENDBRANCH  17  24
ENDBRANCH  16  20
ENDBRANCH  15  16
ENDBRANCH   1  15
TORSDOF 8
ENDMDL
MODEL 4
REMARK VINA RESULT:    -6.537      3.330      4.058
REMARK INTER + INTRA:         -10.471
REMARK INTER:                  -9.648
REMARK INTRA:                  -0.823
REMARK UNBOUND:                -1.069
REMARK  Name = 
REMARK  8 active torsions:
REMARK  status: ('A' for Active; 'I' for Inactive)
REMARK    1  A    between atoms: C_2  and  C_4
REMARK    2  A    between atoms: C_7  and  O_8
REMARK    3  A    between atoms: O_8  and  C_9
REMARK    4  A    between atoms: C_9  and  C_10
REMARK    5  A    between atoms: C_10  and  C_11
REMARK    6  A    between atoms: C_15  and  O_16
REMARK    7  A    between atoms: O_16  and  C_17
REMARK    8  A    between atoms: C_19  and  O_20
REMARK                            x       y       z     vdW  Elec       q    Type
REMARK                         _______ _______ _______ _____ _____    ______ ____
ROOT
ATOM      1  C   UNL     1      44.240   5.633  12.102  0.00  0.00    +0.000 C 
ENDROOT
BRANCH   1   2
ATOM      2  C   UNL     1      44.796   7.033  12.094  0.00  0.00    +0.000 A 
ATOM      3  C   UNL     1      44.144   8.038  11.368  0.00  0.00    +0.000 A 
ATOM      4  C   UNL     1      44.628   9.343  11.378  0.00  0.00    +0.000 A 
ATOM      5  C   UNL     1      45.755   9.663  12.135  0.00  0.00    +0.000 A 
ATOM      6  C   UNL     1      46.391   8.683  12.893  0.00  0.00    +0.000 A 
ATOM      7  C   UNL     1      45.929   7.365  12.855  0.00  0.00    +0.000 A 
BRANCH   6   8
ATOM      8  O   UNL     1      47.475   8.937  13.703  0.00  0.00    +0.000 OA
BRANCH   8   9
ATOM      9  C   UNL     1      48.714   9.296  13.042  0.00  0.00    +0.000 C 
ATOM     10  C   UNL     1      48.954   8.683  11.641  0.00  0.00    +0.000 C 
ATOM     11  C   UNL     1      49.802   7.588  12.312  0.00  0.00    +0.000 C 
ATOM     12  C   UNL     1      49.976   8.537  13.512  0.00  0.00    +0.000 C 
BRANCH  11  13
ATOM     13  O   UNL     1      50.999   7.195  11.616  0.00  0.00    +0.000 OA
ATOM     14  H   UNL     1      51.396   6.483  12.145  0.00  0.00    +0.000 HD
ENDBRANCH  11  13
ENDBRANCH   8   9
ENDBRANCH   6   8
ENDBRANCH   1   2
BRANCH   1  15
ATOM     15  C   UNL     1      43.564   5.293  10.774  0.00  0.00    +0.000 C 
BRANCH  15  16
ATOM     16  O   UNL     1      43.650   3.881  10.568  0.00  0.00    +0.000 OA
BRANCH  16  20
ATOM     17  C   UNL     1      46.446   2.828   7.652  0.00  0.00    +0.000 A 
ATOM     18  C   UNL     1      45.873   1.812   8.424  0.00  0.00    +0.000 A 
ATOM     19  C   UNL     1      44.931   2.123   9.413  0.00  0.00    +0.000 A 
ATOM     20  C   UNL     1      44.557   3.450   9.638  0.00  0.00    +0.000 A 
ATOM     21  C   UNL     1      45.147   4.463   8.878  0.00  0.00    +0.000 A 
ATOM     22  C   UNL     1      46.091   4.159   7.894  0.00  0.00    +0.000 A 
BRANCH  17  24
ATOM     23  N   UNL     1      47.200   3.058   5.348  0.00  0.00    +0.000 N 
ATOM     24  C   UNL     1      47.443   2.537   6.589  0.00  0.00    +0.000 C 
ATOM     25  O   UNL     1      48.460   1.896   6.817  0.00  0.00    +0.000 OA
ATOM     26  H   UNL     1      47.945   2.954   4.670  0.00  0.00    +0.000 HD
ATOM     27  H   UNL     1      46.531   3.799   5.196  0.00  0.00    +0.000 HD
ENDBRANCH  17  24
ENDBRANCH  16  20
ENDBRANCH  15  16
ENDBRANCH   1  15
TORSDOF 8
ENDMDL
MODEL 5
REMARK VINA RESULT:    -6.489      3.916      7.673
REMARK INTER + INTRA:         -10.403
REMARK INTER:                  -9.187
REMARK INTRA:                  -1.216
REMARK UNBOUND:                -1.069
REMARK  Name = 
REMARK  8 active torsions:
REMARK  status: ('A' for Active; 'I' for Inactive)
REMARK    1  A    between atoms: C_2  and  C_4
REMARK    2  A    between atoms: C_7  and  O_8
REMARK    3  A    between atoms: O_8  and  C_9
REMARK    4  A    between atoms: C_9  and  C_10
REMARK    5  A    between atoms: C_10  and  C_11
REMARK    6  A    between atoms: C_15  and  O_16
REMARK    7  A    between atoms: O_16  and  C_17
REMARK    8  A    between atoms: C_19  and  O_20
REMARK                            x       y       z     vdW  Elec       q    Type
REMARK                         _______ _______ _______ _____ _____    ______ ____
ROOT
ATOM      1  C   UNL     1      49.130   8.256  12.092  0.00  0.00    +0.000 C 
ENDROOT
BRANCH   1   2
ATOM      2  C   UNL     1      47.630   8.143  11.999  0.00  0.00    +0.000 A 
ATOM      3  C   UNL     1      46.831   9.272  12.224  0.00  0.00    +0.000 A 
ATOM      4  C   UNL     1      45.446   9.191  12.109  0.00  0.00    +0.000 A 
ATOM      5  C   UNL     1      44.846   7.986  11.744  0.00  0.00    +0.000 A 
ATOM      6  C   UNL     1      45.630   6.865  11.479  0.00  0.00    +0.000 A 
ATOM      7  C   UNL     1      47.017   6.935  11.631  0.00  0.00    +0.000 A 
BRANCH   6   8
ATOM      8  O   UNL     1      45.111   5.659  11.064  0.00  0.00    +0.000 OA
BRANCH   8   9
ATOM      9  C   UNL     1      44.497   4.829  12.082  0.00  0.00    +0.000 C 
ATOM     10  C   UNL     1      44.947   3.349  12.133  0.00  0.00    +0.000 C 
ATOM     11  C   UNL     1      43.708   2.985  11.297  0.00  0.00    +0.000 C 
ATOM     12  C   UNL     1      43.076   4.310  11.764  0.00  0.00    +0.000 C 
BRANCH  11  13
ATOM     13  O   UNL     1      43.024   1.774  11.667  0.00  0.00    +0.000 OA
ATOM     14  H   UNL     1      42.077   1.948  11.533  0.00  0.00    +0.000 HD
ENDBRANCH  11  13
ENDBRANCH   8   9
ENDBRANCH   6   8
ENDBRANCH   1   2
BRANCH   1  15
ATOM     15  C   UNL     1      49.691   7.344  13.182  0.00  0.00    +0.000 C 
BRANCH  15  16
ATOM     16  O   UNL     1      49.011   7.627  14.407  0.00  0.00    +0.000 OA
BRANCH  16  20
ATOM     17  C   UNL     1      47.916   4.426  16.854  0.00  0.00    +0.000 A 
ATOM     18  C   UNL     1      47.364   4.505  15.571  0.00  0.00    +0.000 A 
ATOM     19  C   UNL     1      47.705   5.562  14.719  0.00  0.00    +0.000 A 
ATOM     20  C   UNL     1      48.597   6.549  15.143  0.00  0.00    +0.000 A 
ATOM     21  C   UNL     1      49.131   6.478  16.432  0.00  0.00    +0.000 A 
ATOM     22  C   UNL     1      48.790   5.427  17.288  0.00  0.00    +0.000 A 
BRANCH  17  24
ATOM     23  N   UNL     1      48.376   3.172  18.890  0.00  0.00    +0.000 N 
ATOM     24  C   UNL     1      47.584   3.316  17.784  0.00  0.00    +0.000 C 
ATOM     25  O   UNL     1      46.622   2.583  17.597  0.00  0.00    +0.000 OA
ATOM     26  H   UNL     1      48.066   2.492  19.572  0.00  0.00    +0.000 HD
ATOM     27  H   UNL     1      48.994   3.905  19.209  0.00  0.00    +0.000 HD
ENDBRANCH  17  24
ENDBRANCH  16  20
ENDBRANCH  15  16
ENDBRANCH   1  15
TORSDOF 8
ENDMDL
MODEL 6
REMARK VINA RESULT:    -6.391      3.530      4.891
REMARK INTER + INTRA:         -10.262
REMARK INTER:                  -9.470
REMARK INTRA:                  -0.792
REMARK UNBOUND:                -1.069
REMARK  Name = 
REMARK  8 active torsions:
REMARK  status: ('A' for Active; 'I' for Inactive)
REMARK    1  A    between atoms: C_2  and  C_4
REMARK    2  A    between atoms: C_7  and  O_8
REMARK    3  A    between atoms: O_8  and  C_9
REMARK    4  A    between atoms: C_9  and  C_10
REMARK    5  A    between atoms: C_10  and  C_11
REMARK    6  A    between atoms: C_15  and  O_16
REMARK    7  A    between atoms: O_16  and  C_17
REMARK    8  A    between atoms: C_19  and  O_20
REMARK                            x       y       z     vdW  Elec       q    Type
REMARK                         _______ _______ _______ _____ _____    ______ ____
ROOT
ATOM      1  C   UNL     1      44.589   3.315   9.194  0.00  0.00    +0.000 C 
ENDROOT
BRANCH   1   2
ATOM      2  C   UNL     1      44.522   4.086  10.488  0.00  0.00    +0.000 A 
ATOM      3  C   UNL     1      43.672   3.653  11.513  0.00  0.00    +0.000 A 
ATOM      4  C   UNL     1      43.624   4.336  12.726  0.00  0.00    +0.000 A 
ATOM      5  C   UNL     1      44.444   5.445  12.934  0.00  0.00    +0.000 A 
ATOM      6  C   UNL     1      45.322   5.864  11.937  0.00  0.00    +0.000 A 
ATOM      7  C   UNL     1      45.345   5.203  10.707  0.00  0.00    +0.000 A 
BRANCH   6   8
ATOM      8  O   UNL     1      46.197   6.916  12.092  0.00  0.00    +0.000 OA
BRANCH   8   9
ATOM      9  C   UNL     1      45.719   8.055  12.852  0.00  0.00    +0.000 C 
ATOM     10  C   UNL     1      45.304   9.305  12.041  0.00  0.00    +0.000 C 
ATOM     11  C   UNL     1      46.698   9.895  12.313  0.00  0.00    +0.000 C 
ATOM     12  C   UNL     1      46.808   8.932  13.511  0.00  0.00    +0.000 C 
BRANCH  11  13
ATOM     13  O   UNL     1      46.747  11.303  12.606  0.00  0.00    +0.000 OA
ATOM     14  H   UNL     1      46.446  11.756  11.800  0.00  0.00    +0.000 HD
ENDBRANCH  11  13
ENDBRANCH   8   9
ENDBRANCH   6   8
ENDBRANCH   1   2
BRANCH   1  15
ATOM     15  C   UNL     1      45.372   4.081   8.128  0.00  0.00    +0.000 C 
BRANCH  15  16
ATOM     16  O   UNL     1      46.665   3.486   7.998  0.00  0.00    +0.000 OA
BRANCH  16  20
ATOM     17  C   UNL     1      47.030   0.702   4.908  0.00  0.00    +0.000 A 
ATOM     18  C   UNL     1      47.141   0.252   6.228  0.00  0.00    +0.000 A 
ATOM     19  C   UNL     1      47.025   1.154   7.293  0.00  0.00    +0.000 A 
ATOM     20  C   UNL     1      46.800   2.510   7.047  0.00  0.00    +0.000 A 
ATOM     21  C   UNL     1      46.709   2.959   5.728  0.00  0.00    +0.000 A 
ATOM     22  C   UNL     1      46.830   2.064   4.661  0.00  0.00    +0.000 A 
BRANCH  17  24
ATOM     23  N   UNL     1      46.710  -1.509   3.939  0.00  0.00    +0.000 N 
ATOM     24  C   UNL     1      47.141  -0.224   3.751  0.00  0.00    +0.000 C 
ATOM     25  O   UNL     1      47.560   0.149   2.664  0.00  0.00    +0.000 OA
ATOM     26  H   UNL     1      46.678  -2.091   3.112  0.00  0.00    +0.000 HD
ATOM     27  H   UNL     1      46.122  -1.772   4.717  0.00  0.00    +0.000 HD
ENDBRANCH  17  24
ENDBRANCH  16  20
ENDBRANCH  15  16
ENDBRANCH   1  15
TORSDOF 8
ENDMDL
MODEL 7
REMARK VINA RESULT:    -6.363      2.519      3.727
REMARK INTER + INTRA:         -10.221
REMARK INTER:                  -9.405
REMARK INTRA:                  -0.817
REMARK UNBOUND:                -1.069
REMARK  Name = 
REMARK  8 active torsions:
REMARK  status: ('A' for Active; 'I' for Inactive)
REMARK    1  A    between atoms: C_2  and  C_4
REMARK    2  A    between atoms: C_7  and  O_8
REMARK    3  A    between atoms: O_8  and  C_9
REMARK    4  A    between atoms: C_9  and  C_10
REMARK    5  A    between atoms: C_10  and  C_11
REMARK    6  A    between atoms: C_15  and  O_16
REMARK    7  A    between atoms: O_16  and  C_17
REMARK    8  A    between atoms: C_19  and  O_20
REMARK                            x       y       z     vdW  Elec       q    Type
REMARK                         _______ _______ _______ _____ _____    ______ ____
ROOT
ATOM      1  C   UNL     1      44.465   3.646   9.158  0.00  0.00    +0.000 C 
ENDROOT
BRANCH   1   2
ATOM      2  C   UNL     1      44.303   4.408  10.448  0.00  0.00    +0.000 A 
ATOM      3  C   UNL     1      43.153   4.223  11.227  0.00  0.00    +0.000 A 
ATOM      4  C   UNL     1      43.005   4.895  12.437  0.00  0.00    +0.000 A 
ATOM      5  C   UNL     1      44.018   5.740  12.894  0.00  0.00    +0.000 A 
ATOM      6  C   UNL     1      45.183   5.902  12.149  0.00  0.00    +0.000 A 
ATOM      7  C   UNL     1      45.317   5.258  10.917  0.00  0.00    +0.000 A 
BRANCH   6   8
ATOM      8  O   UNL     1      46.243   6.677  12.563  0.00  0.00    +0.000 OA
BRANCH   8   9
ATOM      9  C   UNL     1      47.489   5.987  12.835  0.00  0.00    +0.000 C 
ATOM     10  C   UNL     1      47.705   5.496  14.287  0.00  0.00    +0.000 C 
ATOM     11  C   UNL     1      48.525   6.770  14.552  0.00  0.00    +0.000 C 
ATOM     12  C   UNL     1      48.731   6.885  13.030  0.00  0.00    +0.000 C 
BRANCH  11  13
ATOM     13  O   UNL     1      49.708   6.610  15.357  0.00  0.00    +0.000 OA
ATOM     14  H   UNL     1      49.399   6.333  16.236  0.00  0.00    +0.000 HD
ENDBRANCH  11  13
ENDBRANCH   8   9
ENDBRANCH   6   8
ENDBRANCH   1   2
BRANCH   1  15
ATOM     15  C   UNL     1      45.589   4.229   8.302  0.00  0.00    +0.000 C 
BRANCH  15  16
ATOM     16  O   UNL     1      46.656   3.280   8.244  0.00  0.00    +0.000 OA
BRANCH  16  20
ATOM     17  C   UNL     1      47.024   0.809   4.899  0.00  0.00    +0.000 A 
ATOM     18  C   UNL     1      46.775   2.171   4.698  0.00  0.00    +0.000 A 
ATOM     19  C   UNL     1      46.645   3.034   5.793  0.00  0.00    +0.000 A 
ATOM     20  C   UNL     1      46.760   2.542   7.096  0.00  0.00    +0.000 A 
ATOM     21  C   UNL     1      46.988   1.178   7.292  0.00  0.00    +0.000 A 
ATOM     22  C   UNL     1      47.114   0.312   6.203  0.00  0.00    +0.000 A 
BRANCH  17  24
ATOM     23  N   UNL     1      46.664  -1.394   3.927  0.00  0.00    +0.000 N 
ATOM     24  C   UNL     1      47.175  -0.136   3.763  0.00  0.00    +0.000 C 
ATOM     25  O   UNL     1      47.696   0.200   2.708  0.00  0.00    +0.000 OA
ATOM     26  H   UNL     1      46.666  -1.985   3.105  0.00  0.00    +0.000 HD
ATOM     27  H   UNL     1      46.004  -1.617   4.659  0.00  0.00    +0.000 HD
ENDBRANCH  17  24
ENDBRANCH  16  20
ENDBRANCH  15  16
ENDBRANCH   1  15
TORSDOF 8
ENDMDL
MODEL 8
REMARK VINA RESULT:    -6.209      3.631      8.155
REMARK INTER + INTRA:         -10.000
REMARK INTER:                  -9.113
REMARK INTRA:                  -0.887
REMARK UNBOUND:                -1.069
REMARK  Name = 
REMARK  8 active torsions:
REMARK  status: ('A' for Active; 'I' for Inactive)
REMARK    1  A    between atoms: C_2  and  C_4
REMARK    2  A    between atoms: C_7  and  O_8
REMARK    3  A    between atoms: O_8  and  C_9
REMARK    4  A    between atoms: C_9  and  C_10
REMARK    5  A    between atoms: C_10  and  C_11
REMARK    6  A    between atoms: C_15  and  O_16
REMARK    7  A    between atoms: O_16  and  C_17
REMARK    8  A    between atoms: C_19  and  O_20
REMARK                            x       y       z     vdW  Elec       q    Type
REMARK                         _______ _______ _______ _____ _____    ______ ____
ROOT
ATOM      1  C   UNL     1      45.556   6.378  11.229  0.00  0.00    +0.000 C 
ENDROOT
BRANCH   1   2
ATOM      2  C   UNL     1      45.161   5.076  10.581  0.00  0.00    +0.000 A 
ATOM      3  C   UNL     1      44.489   4.102  11.331  0.00  0.00    +0.000 A 
ATOM      4  C   UNL     1      44.088   2.907  10.738  0.00  0.00    +0.000 A 
ATOM      5  C   UNL     1      44.333   2.685   9.382  0.00  0.00    +0.000 A 
ATOM      6  C   UNL     1      44.966   3.661   8.616  0.00  0.00    +0.000 A 
ATOM      7  C   UNL     1      45.402   4.844   9.218  0.00  0.00    +0.000 A 
BRANCH   6   8
ATOM      8  O   UNL     1      45.193   3.533   7.264  0.00  0.00    +0.000 OA
BRANCH   8   9
ATOM      9  C   UNL     1      46.575   3.579   6.828  0.00  0.00    +0.000 C 
ATOM     10  C   UNL     1      46.850   3.193   5.355  0.00  0.00    +0.000 C 
ATOM     11  C   UNL     1      47.204   1.775   5.835  0.00  0.00    +0.000 C 
ATOM     12  C   UNL     1      47.453   2.373   7.233  0.00  0.00    +0.000 C 
BRANCH  11  13
ATOM     13  O   UNL     1      48.325   1.145   5.189  0.00  0.00    +0.000 OA
ATOM     14  H   UNL     1      48.977   1.850   5.035  0.00  0.00    +0.000 HD
ENDBRANCH  11  13
ENDBRANCH   8   9
ENDBRANCH   6   8
ENDBRANCH   1   2
BRANCH   1  15
ATOM     15  C   UNL     1      46.203   6.149  12.594  0.00  0.00    +0.000 C 
BRANCH  15  16
ATOM     16  O   UNL     1      46.524   7.420  13.165  0.00  0.00    +0.000 OA
BRANCH  16  20
ATOM     17  C   UNL     1      49.901   9.240  11.517  0.00  0.00    +0.000 A 
ATOM     18  C   UNL     1      48.731   9.996  11.645  0.00  0.00    +0.000 A 
ATOM     19  C   UNL     1      47.577   9.423  12.193  0.00  0.00    +0.000 A 
ATOM     20  C   UNL     1      47.582   8.091  12.613  0.00  0.00    +0.000 A 
ATOM     21  C   UNL     1      48.746   7.334  12.465  0.00  0.00    +0.000 A 
ATOM     22  C   UNL     1      49.900   7.899  11.914  0.00  0.00    +0.000 A 
BRANCH  17  24
ATOM     23  N   UNL     1      51.025  10.956  10.206  0.00  0.00    +0.000 N 
ATOM     24  C   UNL     1      51.147   9.814  10.947  0.00  0.00    +0.000 C 
ATOM     25  O   UNL     1      52.244   9.315  11.162  0.00  0.00    +0.000 OA
ATOM     26  H   UNL     1      51.891  11.400   9.928  0.00  0.00    +0.000 HD
ATOM     27  H   UNL     1      50.195  11.532  10.234  0.00  0.00    +0.000 HD
ENDBRANCH  17  24
ENDBRANCH  16  20
ENDBRANCH  15  16
ENDBRANCH   1  15
TORSDOF 8
ENDMDL
MODEL 9
REMARK VINA RESULT:    -6.125      3.931      8.344
REMARK INTER + INTRA:          -9.879
REMARK INTER:                  -8.948
REMARK INTRA:                  -0.931
REMARK UNBOUND:                -1.069
REMARK  Name = 
REMARK  8 active torsions:
REMARK  status: ('A' for Active; 'I' for Inactive)
REMARK    1  A    between atoms: C_2  and  C_4
REMARK    2  A    between atoms: C_7  and  O_8
REMARK    3  A    between atoms: O_8  and  C_9
REMARK    4  A    between atoms: C_9  and  C_10
REMARK    5  A    between atoms: C_10  and  C_11
REMARK    6  A    between atoms: C_15  and  O_16
REMARK    7  A    between atoms: O_16  and  C_17
REMARK    8  A    between atoms: C_19  and  O_20
REMARK                            x       y       z     vdW  Elec       q    Type
REMARK                         _______ _______ _______ _____ _____    ______ ____
ROOT
ATOM      1  C   UNL     1      49.671   6.964  15.268  0.00  0.00    +0.000 C 
ENDROOT
BRANCH   1   2
ATOM      2  C   UNL     1      48.695   6.832  14.127  0.00  0.00    +0.000 A 
ATOM      3  C   UNL     1      48.967   7.456  12.902  0.00  0.00    +0.000 A 
ATOM      4  C   UNL     1      48.091   7.315  11.829  0.00  0.00    +0.000 A 
ATOM      5  C   UNL     1      46.947   6.529  11.961  0.00  0.00    +0.000 A 
ATOM      6  C   UNL     1      46.684   5.871  13.161  0.00  0.00    +0.000 A 
ATOM      7  C   UNL     1      47.541   6.041  14.250  0.00  0.00    +0.000 A 
BRANCH   6   8
ATOM      8  O   UNL     1      45.603   5.039  13.346  0.00  0.00    +0.000 OA
BRANCH   8   9
ATOM      9  C   UNL     1      44.772   4.779  12.186  0.00  0.00    +0.000 C 
ATOM     10  C   UNL     1      43.313   4.344  12.463  0.00  0.00    +0.000 C 
ATOM     11  C   UNL     1      43.759   2.882  12.286  0.00  0.00    +0.000 C 
ATOM     12  C   UNL     1      44.976   3.409  11.502  0.00  0.00    +0.000 C 
BRANCH  11  13
ATOM     13  O   UNL     1      42.851   2.022  11.574  0.00  0.00    +0.000 OA
ATOM     14  H   UNL     1      41.963   2.229  11.913  0.00  0.00    +0.000 HD
ENDBRANCH  11  13
ENDBRANCH   8   9
ENDBRANCH   6   8
ENDBRANCH   1   2
BRANCH   1  15
ATOM     15  C   UNL     1      48.978   6.784  16.618  0.00  0.00    +0.000 C 
BRANCH  15  16
ATOM     16  O   UNL     1      49.961   6.426  17.591  0.00  0.00    +0.000 OA
BRANCH  16  20
ATOM     17  C   UNL     1      51.547   2.564  17.571  0.00  0.00    +0.000 A 
ATOM     18  C   UNL     1      50.166   2.719  17.408  0.00  0.00    +0.000 A 
ATOM     19  C   UNL     1      49.595   3.997  17.409  0.00  0.00    +0.000 A 
ATOM     20  C   UNL     1      50.397   5.128  17.575  0.00  0.00    +0.000 A 
ATOM     21  C   UNL     1      51.773   4.968  17.757  0.00  0.00    +0.000 A 
ATOM     22  C   UNL     1      52.348   3.694  17.762  0.00  0.00    +0.000 A 
BRANCH  17  24
ATOM     23  N   UNL     1      51.488   0.194  18.128  0.00  0.00    +0.000 N 
ATOM     24  C   UNL     1      52.192   1.225  17.568  0.00  0.00    +0.000 C 
ATOM     25  O   UNL     1      53.286   1.037  17.053  0.00  0.00    +0.000 OA
ATOM     26  H   UNL     1      51.886  -0.730  18.011  0.00  0.00    +0.000 HD
ATOM     27  H   UNL     1      50.497   0.255  18.312  0.00  0.00    +0.000 HD
ENDBRANCH  17  24
ENDBRANCH  16  20
ENDBRANCH  15  16
ENDBRANCH   1  15
TORSDOF 8
ENDMDL
