MODEL 1
REMARK VINA RESULT:    -8.398      0.000      0.000
REMARK INTER + INTRA:         -13.300
REMARK INTER:                 -12.325
REMARK INTRA:                  -0.975
REMARK UNBOUND:                -0.975
REMARK  Name = 
REMARK  9 active torsions:
REMARK  status: ('A' for Active; 'I' for Inactive)
REMARK    1  A    between atoms: C_1  and  N_2
REMARK    2  A    between atoms: N_2  and  C_3
REMARK    3  A    between atoms: N_2  and  C_10
REMARK    4  A    between atoms: C_3  and  C_4
REMARK    5  A    between atoms: C_10  and  C_11
REMARK    6  A    between atoms: C_14  and  C_15
REMARK    7  A    between atoms: C_15  and  C_16
REMARK    8  A    between atoms: C_16  and  N_17
REMARK    9  A    between atoms: C_18  and  C_20
REMARK                            x       y       z     vdW  Elec       q    Type
REMARK                         _______ _______ _______ _____ _____    ______ ____
ROOT
ATOM      1  C   UNL     1      49.134   6.986  13.954  0.00  0.00    +0.000 C 
ENDROOT
BRANCH   1   5
ATOM      2  C   UNL     1      45.618   5.603  11.993  0.00  0.00    +0.000 A 
ATOM      3  C   UNL     1      46.392   6.595  11.389  0.00  0.00    +0.000 A 
ATOM      4  C   UNL     1      47.545   7.048  12.019  0.00  0.00    +0.000 A 
ATOM      5  C   UNL     1      47.910   6.484  13.238  0.00  0.00    +0.000 A 
ATOM      6  N   UNL     1      47.170   5.527  13.847  0.00  0.00    +0.000 NA
ATOM      7  C   UNL     1      46.053   5.107  13.216  0.00  0.00    +0.000 A 
BRANCH   2   8
ATOM      8  C   UNL     1      44.341   5.113  11.366  0.00  0.00    +0.000 C 
BRANCH   8  10
ATOM      9  C   UNL     1      43.474   2.847  11.477  0.00  0.00    +0.000 C 
ATOM     10  N   UNL     1      44.441   3.743  10.826  0.00  0.00    +0.000 NA
BRANCH  10  11
ATOM     11  C   UNL     1      44.228   3.784   9.366  0.00  0.00    +0.000 C 
BRANCH  11  12
ATOM     12  C   UNL     1      45.275   3.034   8.584  0.00  0.00    +0.000 A 
ATOM     13  C   UNL     1      46.114   3.683   7.673  0.00  0.00    +0.000 A 
ATOM     14  C   UNL     1      47.099   2.958   7.005  0.00  0.00    +0.000 A 
ATOM     15  C   UNL     1      47.202   1.602   7.264  0.00  0.00    +0.000 A 
ATOM     16  N   UNL     1      46.402   0.937   8.125  0.00  0.00    +0.000 NA
ATOM     17  C   UNL     1      45.460   1.667   8.763  0.00  0.00    +0.000 A 
ENDBRANCH  11  12
ENDBRANCH  10  11
ENDBRANCH   8  10
ENDBRANCH   2   8
ENDBRANCH   1   5
BRANCH   1  18
ATOM     18  C   UNL     1      48.962   6.968  15.473  0.00  0.00    +0.000 C 
BRANCH  18  19
ATOM     19  N   UNL     1      49.975   6.186  16.153  0.00  0.00    +0.000 N 
ATOM     20  C   UNL     1      49.659   5.200  17.055  0.00  0.00    +0.000 C 
ATOM     21  O   UNL     1      48.505   4.842  17.270  0.00  0.00    +0.000 OA
ATOM     22  H   UNL     1      50.898   6.608  16.205  0.00  0.00    +0.000 HD
BRANCH  20  23
ATOM     23  C   UNL     1      50.789   4.537  17.706  0.00  0.00    +0.000 A 
ATOM     24  C   UNL     1      51.643   5.272  18.517  0.00  0.00    +0.000 A 
ATOM     25  S   UNL     1      52.902   4.344  19.193  0.00  0.00    +0.000 S 
ATOM     26  C   UNL     1      52.367   2.937  18.396  0.00  0.00    +0.000 A 
ATOM     27  N   UNL     1      53.038   1.762  18.524  0.00  0.00    +0.000 NA
ATOM     28  C   UNL     1      52.538   0.786  17.840  0.00  0.00    +0.000 A 
ATOM     29  N   UNL     1      51.423   0.877  17.047  0.00  0.00    +0.000 N 
ATOM     30  C   UNL     1      50.685   2.029  16.926  0.00  0.00    +0.000 A 
ATOM     31  O   UNL     1      49.642   2.056  16.283  0.00  0.00    +0.000 OA
ATOM     32  C   UNL     1      51.227   3.165  17.649  0.00  0.00    +0.000 A 
ATOM     33  H   UNL     1      51.069   0.070  16.557  0.00  0.00    +0.000 HD
ENDBRANCH  20  23
ENDBRANCH  18  19
ENDBRANCH   1  18
TORSDOF 8
ENDMDL
MODEL 2
REMARK VINA RESULT:    -8.043      2.635      2.851
REMARK INTER + INTRA:         -12.780
REMARK INTER:                 -11.016
REMARK INTRA:                  -1.764
REMARK UNBOUND:                -0.975
REMARK  Name = 
REMARK  9 active torsions:
REMARK  status: ('A' for Active; 'I' for Inactive)
REMARK    1  A    between atoms: C_1  and  N_2
REMARK    2  A    between atoms: N_2  and  C_3
REMARK    3  A    between atoms: N_2  and  C_10
REMARK    4  A    between atoms: C_3  and  C_4
REMARK    5  A    between atoms: C_10  and  C_11
REMARK    6  A    between atoms: C_14  and  C_15
REMARK    7  A    between atoms: C_15  and  C_16
REMARK    8  A    between atoms: C_16  and  N_17
REMARK    9  A    between atoms: C_18  and  C_20
REMARK                            x       y       z     vdW  Elec       q    Type
REMARK                         _______ _______ _______ _____ _____    ______ ____
ROOT
ATOM      1  C   UNL     1      48.463   8.684  12.996  0.00  0.00    +0.000 C 
ENDROOT
BRANCH   1   5
ATOM      2  C   UNL     1      45.177   6.305  11.704  0.00  0.00    +0.000 A 
ATOM      3  C   UNL     1      46.425   6.133  11.103  0.00  0.00    +0.000 A 
ATOM      4  C   UNL     1      47.504   6.900  11.523  0.00  0.00    +0.000 A 
ATOM      5  C   UNL     1      47.316   7.817  12.552  0.00  0.00    +0.000 A 
ATOM      6  N   UNL     1      46.113   8.009  13.144  0.00  0.00    +0.000 NA
ATOM      7  C   UNL     1      45.080   7.253  12.715  0.00  0.00    +0.000 A 
BRANCH   2   8
ATOM      8  C   UNL     1      43.973   5.525  11.252  0.00  0.00    +0.000 C 
BRANCH   8  10
ATOM      9  C   UNL     1      43.540   3.180  11.717  0.00  0.00    +0.000 C 
ATOM     10  N   UNL     1      44.284   4.131  10.879  0.00  0.00    +0.000 NA
BRANCH  10  11
ATOM     11  C   UNL     1      43.973   3.936   9.449  0.00  0.00    +0.000 C 
BRANCH  11  12
ATOM     12  C   UNL     1      45.047   3.195   8.695  0.00  0.00    +0.000 A 
ATOM     13  C   UNL     1      45.897   3.849   7.798  0.00  0.00    +0.000 A 
ATOM     14  C   UNL     1      46.906   3.133   7.157  0.00  0.00    +0.000 A 
ATOM     15  C   UNL     1      47.021   1.780   7.428  0.00  0.00    +0.000 A 
ATOM     16  N   UNL     1      46.212   1.111   8.276  0.00  0.00    +0.000 NA
ATOM     17  C   UNL     1      45.246   1.832   8.888  0.00  0.00    +0.000 A 
ENDBRANCH  11  12
ENDBRANCH  10  11
ENDBRANCH   8  10
ENDBRANCH   2   8
ENDBRANCH   1   5
BRANCH   1  18
ATOM     18  C   UNL     1      48.208   9.324  14.362  0.00  0.00    +0.000 C 
BRANCH  18  19
ATOM     19  N   UNL     1      48.131   8.357  15.439  0.00  0.00    +0.000 N 
ATOM     20  C   UNL     1      49.251   7.794  16.000  0.00  0.00    +0.000 C 
ATOM     21  O   UNL     1      50.389   8.141  15.704  0.00  0.00    +0.000 OA
ATOM     22  H   UNL     1      47.248   7.864  15.528  0.00  0.00    +0.000 HD
BRANCH  20  23
ATOM     23  C   UNL     1      49.014   6.789  17.038  0.00  0.00    +0.000 A 
ATOM     24  C   UNL     1      49.459   7.020  18.332  0.00  0.00    +0.000 A 
ATOM     25  S   UNL     1      49.098   5.749  19.409  0.00  0.00    +0.000 S 
ATOM     26  C   UNL     1      48.367   4.835  18.173  0.00  0.00    +0.000 A 
ATOM     27  N   UNL     1      47.863   3.597  18.422  0.00  0.00    +0.000 NA
ATOM     28  C   UNL     1      47.365   3.007  17.385  0.00  0.00    +0.000 A 
ATOM     29  N   UNL     1      47.317   3.545  16.125  0.00  0.00    +0.000 N 
ATOM     30  C   UNL     1      47.768   4.811  15.837  0.00  0.00    +0.000 A 
ATOM     31  O   UNL     1      47.630   5.300  14.721  0.00  0.00    +0.000 OA
ATOM     32  C   UNL     1      48.370   5.502  16.962  0.00  0.00    +0.000 A 
ATOM     33  H   UNL     1      46.893   3.041  15.363  0.00  0.00    +0.000 HD
ENDBRANCH  20  23
ENDBRANCH  18  19
ENDBRANCH   1  18
TORSDOF 8
ENDMDL
MODEL 3
REMARK VINA RESULT:    -7.409      2.479      3.195
REMARK INTER + INTRA:         -11.848
REMARK INTER:                 -10.368
REMARK INTRA:                  -1.480
REMARK UNBOUND:                -0.975
REMARK  Name = 
REMARK  9 active torsions:
REMARK  status: ('A' for Active; 'I' for Inactive)
REMARK    1  A    between atoms: C_1  and  N_2
REMARK    2  A    between atoms: N_2  and  C_3
REMARK    3  A    between atoms: N_2  and  C_10
REMARK    4  A    between atoms: C_3  and  C_4
REMARK    5  A    between atoms: C_10  and  C_11
REMARK    6  A    between atoms: C_14  and  C_15
REMARK    7  A    between atoms: C_15  and  C_16
REMARK    8  A    between atoms: C_16  and  N_17
REMARK    9  A    between atoms: C_18  and  C_20
REMARK                            x       y       z     vdW  Elec       q    Type
REMARK                         _______ _______ _______ _____ _____    ______ ____
ROOT
ATOM      1  C   UNL     1      49.709   7.357  12.625  0.00  0.00    +0.000 C 
ENDROOT
BRANCH   1   5
ATOM      2  C   UNL     1      45.845   5.588  12.371  0.00  0.00    +0.000 A 
ATOM      3  C   UNL     1      46.195   6.598  11.474  0.00  0.00    +0.000 A 
ATOM      4  C   UNL     1      47.456   7.177  11.545  0.00  0.00    +0.000 A 
ATOM      5  C   UNL     1      48.351   6.719  12.507  0.00  0.00    +0.000 A 
ATOM      6  N   UNL     1      48.032   5.747  13.394  0.00  0.00    +0.000 NA
ATOM      7  C   UNL     1      46.799   5.204  13.306  0.00  0.00    +0.000 A 
BRANCH   2   8
ATOM      8  C   UNL     1      44.477   4.963  12.356  0.00  0.00    +0.000 C 
BRANCH   8  10
ATOM      9  C   UNL     1      43.540   2.723  12.321  0.00  0.00    +0.000 C 
ATOM     10  N   UNL     1      44.429   3.674  11.640  0.00  0.00    +0.000 NA
BRANCH  10  11
ATOM     11  C   UNL     1      43.988   3.911  10.250  0.00  0.00    +0.000 C 
BRANCH  11  12
ATOM     12  C   UNL     1      44.996   3.479   9.218  0.00  0.00    +0.000 A 
ATOM     13  C   UNL     1      45.341   2.135   9.048  0.00  0.00    +0.000 A 
ATOM     14  C   UNL     1      46.245   1.776   8.050  0.00  0.00    +0.000 A 
ATOM     15  C   UNL     1      46.783   2.779   7.262  0.00  0.00    +0.000 A 
ATOM     16  N   UNL     1      46.487   4.089   7.405  0.00  0.00    +0.000 NA
ATOM     17  C   UNL     1      45.603   4.407   8.377  0.00  0.00    +0.000 A 
ENDBRANCH  11  12
ENDBRANCH  10  11
ENDBRANCH   8  10
ENDBRANCH   2   8
ENDBRANCH   1   5
BRANCH   1  18
ATOM     18  C   UNL     1      49.685   8.606  13.507  0.00  0.00    +0.000 C 
BRANCH  18  19
ATOM     19  N   UNL     1      49.106   8.370  14.815  0.00  0.00    +0.000 N 
ATOM     20  C   UNL     1      49.827   7.829  15.850  0.00  0.00    +0.000 C 
ATOM     21  O   UNL     1      51.031   7.606  15.775  0.00  0.00    +0.000 OA
ATOM     22  H   UNL     1      48.093   8.292  14.841  0.00  0.00    +0.000 HD
BRANCH  20  23
ATOM     23  C   UNL     1      49.091   7.593  17.092  0.00  0.00    +0.000 A 
ATOM     24  C   UNL     1      48.399   8.637  17.690  0.00  0.00    +0.000 A 
ATOM     25  S   UNL     1      47.599   8.186  19.126  0.00  0.00    +0.000 S 
ATOM     26  C   UNL     1      48.181   6.590  19.014  0.00  0.00    +0.000 A 
ATOM     27  N   UNL     1      47.886   5.669  19.968  0.00  0.00    +0.000 NA
ATOM     28  C   UNL     1      48.419   4.508  19.771  0.00  0.00    +0.000 A 
ATOM     29  N   UNL     1      49.212   4.183  18.701  0.00  0.00    +0.000 N 
ATOM     30  C   UNL     1      49.497   5.066  17.687  0.00  0.00    +0.000 A 
ATOM     31  O   UNL     1      50.133   4.720  16.699  0.00  0.00    +0.000 OA
ATOM     32  C   UNL     1      48.949   6.396  17.881  0.00  0.00    +0.000 A 
ATOM     33  H   UNL     1      49.579   3.250  18.593  0.00  0.00    +0.000 HD
ENDBRANCH  20  23
ENDBRANCH  18  19
ENDBRANCH   1  18
TORSDOF 8
ENDMDL
MODEL 4
REMARK VINA RESULT:    -7.314      2.809      4.986
REMARK INTER + INTRA:         -11.710
REMARK INTER:                 -11.525
REMARK INTRA:                  -0.185
REMARK UNBOUND:                -0.975
REMARK  Name = 
REMARK  9 active torsions:
REMARK  status: ('A' for Active; 'I' for Inactive)
REMARK    1  A    between atoms: C_1  and  N_2
REMARK    2  A    between atoms: N_2  and  C_3
REMARK    3  A    between atoms: N_2  and  C_10
REMARK    4  A    between atoms: C_3  and  C_4
REMARK    5  A    between atoms: C_10  and  C_11
REMARK    6  A    between atoms: C_14  and  C_15
REMARK    7  A    between atoms: C_15  and  C_16
REMARK    8  A    between atoms: C_16  and  N_17
REMARK    9  A    between atoms: C_18  and  C_20
REMARK                            x       y       z     vdW  Elec       q    Type
REMARK                         _______ _______ _______ _____ _____    ______ ____
ROOT
ATOM      1  C   UNL     1      43.930   5.126  11.623  0.00  0.00    +0.000 C 
ENDROOT
BRANCH   1   5
ATOM      2  C   UNL     1      45.465   3.437   8.030  0.00  0.00    +0.000 A 
ATOM      3  C   UNL     1      45.976   4.653   8.487  0.00  0.00    +0.000 A 
ATOM      4  C   UNL     1      45.486   5.208   9.663  0.00  0.00    +0.000 A 
ATOM      5  C   UNL     1      44.500   4.524  10.368  0.00  0.00    +0.000 A 
ATOM      6  N   UNL     1      43.982   3.348   9.939  0.00  0.00    +0.000 NA
ATOM      7  C   UNL     1      44.474   2.832   8.792  0.00  0.00    +0.000 A 
BRANCH   2   8
ATOM      8  C   UNL     1      45.938   2.821   6.742  0.00  0.00    +0.000 C 
BRANCH   8  10
ATOM      9  C   UNL     1      46.952   0.723   7.429  0.00  0.00    +0.000 C 
ATOM     10  N   UNL     1      47.198   2.065   6.881  0.00  0.00    +0.000 NA
BRANCH  10  11
ATOM     11  C   UNL     1      47.861   1.988   5.564  0.00  0.00    +0.000 C 
BRANCH  11  12
ATOM     12  C   UNL     1      47.138   1.109   4.577  0.00  0.00    +0.000 A 
ATOM     13  C   UNL     1      46.312   1.647   3.586  0.00  0.00    +0.000 A 
ATOM     14  C   UNL     1      45.698   0.799   2.666  0.00  0.00    +0.000 A 
ATOM     15  C   UNL     1      45.923  -0.562   2.778  0.00  0.00    +0.000 A 
ATOM     16  N   UNL     1      46.702  -1.120   3.729  0.00  0.00    +0.000 NA
ATOM     17  C   UNL     1      47.290  -0.274   4.604  0.00  0.00    +0.000 A 
ENDBRANCH  11  12
ENDBRANCH  10  11
ENDBRANCH   8  10
ENDBRANCH   2   8
ENDBRANCH   1   5
BRANCH   1  18
ATOM     18  C   UNL     1      44.330   4.341  12.873  0.00  0.00    +0.000 C 
BRANCH  18  19
ATOM     19  N   UNL     1      45.363   4.996  13.652  0.00  0.00    +0.000 N 
ATOM     20  C   UNL     1      46.476   4.330  14.101  0.00  0.00    +0.000 C 
ATOM     21  O   UNL     1      46.727   3.170  13.790  0.00  0.00    +0.000 OA
ATOM     22  H   UNL     1      45.080   5.843  14.136  0.00  0.00    +0.000 HD
BRANCH  20  23
ATOM     23  C   UNL     1      47.401   5.109  14.926  0.00  0.00    +0.000 A 
ATOM     24  C   UNL     1      48.084   6.181  14.368  0.00  0.00    +0.000 A 
ATOM     25  S   UNL     1      49.116   6.973  15.468  0.00  0.00    +0.000 S 
ATOM     26  C   UNL     1      48.711   5.888  16.716  0.00  0.00    +0.000 A 
ATOM     27  N   UNL     1      49.282   5.988  17.945  0.00  0.00    +0.000 NA
ATOM     28  C   UNL     1      48.904   5.080  18.784  0.00  0.00    +0.000 A 
ATOM     29  N   UNL     1      48.000   4.087  18.508  0.00  0.00    +0.000 N 
ATOM     30  C   UNL     1      47.360   3.976  17.297  0.00  0.00    +0.000 A 
ATOM     31  O   UNL     1      46.490   3.133  17.109  0.00  0.00    +0.000 OA
ATOM     32  C   UNL     1      47.778   4.952  16.308  0.00  0.00    +0.000 A 
ATOM     33  H   UNL     1      47.729   3.422  19.216  0.00  0.00    +0.000 HD
ENDBRANCH  20  23
ENDBRANCH  18  19
ENDBRANCH   1  18
TORSDOF 8
ENDMDL
MODEL 5
REMARK VINA RESULT:    -7.280      3.796      8.801
REMARK INTER + INTRA:         -11.660
REMARK INTER:                  -9.724
REMARK INTRA:                  -1.935
REMARK UNBOUND:                -0.975
REMARK  Name = 
REMARK  9 active torsions:
REMARK  status: ('A' for Active; 'I' for Inactive)
REMARK    1  A    between atoms: C_1  and  N_2
REMARK    2  A    between atoms: N_2  and  C_3
REMARK    3  A    between atoms: N_2  and  C_10
REMARK    4  A    between atoms: C_3  and  C_4
REMARK    5  A    between atoms: C_10  and  C_11
REMARK    6  A    between atoms: C_14  and  C_15
REMARK    7  A    between atoms: C_15  and  C_16
REMARK    8  A    between atoms: C_16  and  N_17
REMARK    9  A    between atoms: C_18  and  C_20
REMARK                            x       y       z     vdW  Elec       q    Type
REMARK                         _______ _______ _______ _____ _____    ______ ____
ROOT
ATOM      1  C   UNL     1      49.542   7.737  12.487  0.00  0.00    +0.000 C 
ENDROOT
BRANCH   1   5
ATOM      2  C   UNL     1      48.905   8.148  16.676  0.00  0.00    +0.000 A 
ATOM      3  C   UNL     1      49.998   7.409  16.219  0.00  0.00    +0.000 A 
ATOM      4  C   UNL     1      50.217   7.276  14.854  0.00  0.00    +0.000 A 
ATOM      5  C   UNL     1      49.343   7.900  13.969  0.00  0.00    +0.000 A 
ATOM      6  N   UNL     1      48.271   8.614  14.388  0.00  0.00    +0.000 NA
ATOM      7  C   UNL     1      48.079   8.725  15.720  0.00  0.00    +0.000 A 
BRANCH   2   8
ATOM      8  C   UNL     1      48.608   8.284  18.144  0.00  0.00    +0.000 C 
BRANCH   8  10
ATOM      9  C   UNL     1      49.924   7.860  20.141  0.00  0.00    +0.000 C 
ATOM     10  N   UNL     1      49.266   7.256  18.973  0.00  0.00    +0.000 NA
BRANCH  10  11
ATOM     11  C   UNL     1      48.262   6.255  19.387  0.00  0.00    +0.000 C 
BRANCH  11  12
ATOM     12  C   UNL     1      48.216   5.045  18.491  0.00  0.00    +0.000 A 
ATOM     13  C   UNL     1      49.342   4.243  18.284  0.00  0.00    +0.000 A 
ATOM     14  C   UNL     1      49.241   3.106  17.483  0.00  0.00    +0.000 A 
ATOM     15  C   UNL     1      48.016   2.819  16.905  0.00  0.00    +0.000 A 
ATOM     16  N   UNL     1      46.911   3.577  17.070  0.00  0.00    +0.000 NA
ATOM     17  C   UNL     1      47.036   4.669  17.856  0.00  0.00    +0.000 A 
ENDBRANCH  11  12
ENDBRANCH  10  11
ENDBRANCH   8  10
ENDBRANCH   2   8
ENDBRANCH   1   5
BRANCH   1  18
ATOM     18  C   UNL     1      48.264   8.025  11.698  0.00  0.00    +0.000 C 
BRANCH  18  19
ATOM     19  N   UNL     1      47.342   6.907  11.678  0.00  0.00    +0.000 N 
ATOM     20  C   UNL     1      45.982   7.075  11.770  0.00  0.00    +0.000 C 
ATOM     21  O   UNL     1      45.448   8.179  11.771  0.00  0.00    +0.000 OA
ATOM     22  H   UNL     1      47.734   6.006  11.936  0.00  0.00    +0.000 HD
BRANCH  20  23
ATOM     23  C   UNL     1      45.183   5.849  11.797  0.00  0.00    +0.000 A 
ATOM     24  C   UNL     1      44.479   5.513  12.944  0.00  0.00    +0.000 A 
ATOM     25  S   UNL     1      43.604   4.057  12.801  0.00  0.00    +0.000 S 
ATOM     26  C   UNL     1      44.167   3.811  11.213  0.00  0.00    +0.000 A 
ATOM     27  N   UNL     1      43.813   2.704  10.507  0.00  0.00    +0.000 NA
ATOM     28  C   UNL     1      44.338   2.633   9.329  0.00  0.00    +0.000 A 
ATOM     29  N   UNL     1      45.177   3.574   8.788  0.00  0.00    +0.000 N 
ATOM     30  C   UNL     1      45.523   4.731   9.443  0.00  0.00    +0.000 A 
ATOM     31  O   UNL     1      46.201   5.595   8.899  0.00  0.00    +0.000 OA
ATOM     32  C   UNL     1      44.986   4.840  10.787  0.00  0.00    +0.000 A 
ATOM     33  H   UNL     1      45.534   3.470   7.850  0.00  0.00    +0.000 HD
ENDBRANCH  20  23
ENDBRANCH  18  19
ENDBRANCH   1  18
TORSDOF 8
ENDMDL
MODEL 6
REMARK VINA RESULT:    -7.184      2.756      3.348
REMARK INTER + INTRA:         -11.518
REMARK INTER:                 -10.758
REMARK INTRA:                  -0.760
REMARK UNBOUND:                -0.975
REMARK  Name = 
REMARK  9 active torsions:
REMARK  status: ('A' for Active; 'I' for Inactive)
REMARK    1  A    between atoms: C_1  and  N_2
REMARK    2  A    between atoms: N_2  and  C_3
REMARK    3  A    between atoms: N_2  and  C_10
REMARK    4  A    between atoms: C_3  and  C_4
REMARK    5  A    between atoms: C_10  and  C_11
REMARK    6  A    between atoms: C_14  and  C_15
REMARK    7  A    between atoms: C_15  and  C_16
REMARK    8  A    between atoms: C_16  and  N_17
REMARK    9  A    between atoms: C_18  and  C_20
REMARK                            x       y       z     vdW  Elec       q    Type
REMARK                         _______ _______ _______ _____ _____    ______ ____
ROOT
ATOM      1  C   UNL     1      46.961   8.431  13.592  0.00  0.00    +0.000 C 
ENDROOT
BRANCH   1   5
ATOM      2  C   UNL     1      44.717   5.674  11.249  0.00  0.00    +0.000 A 
ATOM      3  C   UNL     1      44.316   7.010  11.304  0.00  0.00    +0.000 A 
ATOM      4  C   UNL     1      45.046   7.918  12.061  0.00  0.00    +0.000 A 
ATOM      5  C   UNL     1      46.178   7.472  12.738  0.00  0.00    +0.000 A 
ATOM      6  N   UNL     1      46.581   6.180  12.707  0.00  0.00    +0.000 NA
ATOM      7  C   UNL     1      45.851   5.317  11.967  0.00  0.00    +0.000 A 
BRANCH   2   8
ATOM      8  C   UNL     1      43.932   4.650  10.476  0.00  0.00    +0.000 C 
BRANCH   8  10
ATOM      9  C   UNL     1      43.553   2.685  11.853  0.00  0.00    +0.000 C 
ATOM     10  N   UNL     1      44.345   3.261  10.757  0.00  0.00    +0.000 NA
BRANCH  10  11
ATOM     11  C   UNL     1      44.207   2.460   9.524  0.00  0.00    +0.000 C 
BRANCH  11  12
ATOM     12  C   UNL     1      45.374   2.600   8.582  0.00  0.00    +0.000 A 
ATOM     13  C   UNL     1      46.179   1.508   8.245  0.00  0.00    +0.000 A 
ATOM     14  C   UNL     1      47.221   1.675   7.335  0.00  0.00    +0.000 A 
ATOM     15  C   UNL     1      47.429   2.935   6.801  0.00  0.00    +0.000 A 
ATOM     16  N   UNL     1      46.683   4.016   7.112  0.00  0.00    +0.000 NA
ATOM     17  C   UNL     1      45.676   3.824   7.993  0.00  0.00    +0.000 A 
ENDBRANCH  11  12
ENDBRANCH  10  11
ENDBRANCH   8  10
ENDBRANCH   2   8
ENDBRANCH   1   5
BRANCH   1  18
ATOM     18  C   UNL     1      48.283   7.831  14.070  0.00  0.00    +0.000 C 
BRANCH  18  19
ATOM     19  N   UNL     1      48.133   6.966  15.224  0.00  0.00    +0.000 N 
ATOM     20  C   UNL     1      49.208   6.387  15.852  0.00  0.00    +0.000 C 
ATOM     21  O   UNL     1      50.370   6.640  15.549  0.00  0.00    +0.000 OA
ATOM     22  H   UNL     1      47.220   6.536  15.338  0.00  0.00    +0.000 HD
BRANCH  20  23
ATOM     23  C   UNL     1      48.895   5.491  16.966  0.00  0.00    +0.000 A 
ATOM     24  C   UNL     1      48.372   4.232  16.709  0.00  0.00    +0.000 A 
ATOM     25  S   UNL     1      48.069   3.323  18.119  0.00  0.00    +0.000 S 
ATOM     26  C   UNL     1      48.594   4.597  19.119  0.00  0.00    +0.000 A 
ATOM     27  N   UNL     1      48.563   4.483  20.473  0.00  0.00    +0.000 NA
ATOM     28  C   UNL     1      48.961   5.537  21.106  0.00  0.00    +0.000 A 
ATOM     29  N   UNL     1      49.399   6.690  20.507  0.00  0.00    +0.000 N 
ATOM     30  C   UNL     1      49.495   6.834  19.144  0.00  0.00    +0.000 A 
ATOM     31  O   UNL     1      49.974   7.843  18.640  0.00  0.00    +0.000 OA
ATOM     32  C   UNL     1      49.024   5.689  18.388  0.00  0.00    +0.000 A 
ATOM     33  H   UNL     1      49.720   7.470  21.060  0.00  0.00    +0.000 HD
ENDBRANCH  20  23
ENDBRANCH  18  19
ENDBRANCH   1  18
TORSDOF 8
ENDMDL
MODEL 7
REMARK VINA RESULT:    -6.868      2.050      2.821
REMARK INTER + INTRA:         -11.055
REMARK INTER:                  -9.415
REMARK INTRA:                  -1.640
REMARK UNBOUND:                -0.975
REMARK  Name = 
REMARK  9 active torsions:
REMARK  status: ('A' for Active; 'I' for Inactive)
REMARK    1  A    between atoms: C_1  and  N_2
REMARK    2  A    between atoms: N_2  and  C_3
REMARK    3  A    between atoms: N_2  and  C_10
REMARK    4  A    between atoms: C_3  and  C_4
REMARK    5  A    between atoms: C_10  and  C_11
REMARK    6  A    between atoms: C_14  and  C_15
REMARK    7  A    between atoms: C_15  and  C_16
REMARK    8  A    between atoms: C_16  and  N_17
REMARK    9  A    between atoms: C_18  and  C_20
REMARK                            x       y       z     vdW  Elec       q    Type
REMARK                         _______ _______ _______ _____ _____    ______ ____
ROOT
ATOM      1  C   UNL     1      49.800   9.369  14.007  0.00  0.00    +0.000 C 
ENDROOT
BRANCH   1   5
ATOM      2  C   UNL     1      46.463   7.507  12.129  0.00  0.00    +0.000 A 
ATOM      3  C   UNL     1      46.243   8.484  13.101  0.00  0.00    +0.000 A 
ATOM      4  C   UNL     1      47.327   9.102  13.715  0.00  0.00    +0.000 A 
ATOM      5  C   UNL     1      48.614   8.739  13.329  0.00  0.00    +0.000 A 
ATOM      6  N   UNL     1      48.852   7.787  12.395  0.00  0.00    +0.000 NA
ATOM      7  C   UNL     1      47.782   7.200  11.817  0.00  0.00    +0.000 A 
BRANCH   2   8
ATOM      8  C   UNL     1      45.321   6.785  11.469  0.00  0.00    +0.000 C 
BRANCH   8  10
ATOM      9  C   UNL     1      45.083   4.966  13.062  0.00  0.00    +0.000 C 
ATOM     10  N   UNL     1      45.361   5.323  11.663  0.00  0.00    +0.000 NA
BRANCH  10  11
ATOM     11  C   UNL     1      44.389   4.689  10.750  0.00  0.00    +0.000 C 
BRANCH  11  12
ATOM     12  C   UNL     1      45.033   3.906   9.636  0.00  0.00    +0.000 A 
ATOM     13  C   UNL     1      45.694   4.542   8.581  0.00  0.00    +0.000 A 
ATOM     14  C   UNL     1      46.315   3.777   7.595  0.00  0.00    +0.000 A 
ATOM     15  C   UNL     1      46.240   2.398   7.692  0.00  0.00    +0.000 A 
ATOM     16  N   UNL     1      45.599   1.748   8.686  0.00  0.00    +0.000 NA
ATOM     17  C   UNL     1      45.012   2.515   9.632  0.00  0.00    +0.000 A 
ENDBRANCH  11  12
ENDBRANCH  10  11
ENDBRANCH   8  10
ENDBRANCH   2   8
ENDBRANCH   1   5
BRANCH   1  18
ATOM     18  C   UNL     1      51.016   8.442  14.021  0.00  0.00    +0.000 C 
BRANCH  18  19
ATOM     19  N   UNL     1      50.825   7.263  14.843  0.00  0.00    +0.000 N 
ATOM     20  C   UNL     1      51.269   7.193  16.140  0.00  0.00    +0.000 C 
ATOM     21  O   UNL     1      51.762   8.152  16.726  0.00  0.00    +0.000 OA
ATOM     22  H   UNL     1      50.671   6.394  14.340  0.00  0.00    +0.000 HD
BRANCH  20  23
ATOM     23  C   UNL     1      51.058   5.917  16.824  0.00  0.00    +0.000 A 
ATOM     24  C   UNL     1      52.124   5.290  17.454  0.00  0.00    +0.000 A 
ATOM     25  S   UNL     1      51.701   3.817  18.199  0.00  0.00    +0.000 S 
ATOM     26  C   UNL     1      50.087   3.952  17.674  0.00  0.00    +0.000 A 
ATOM     27  N   UNL     1      49.176   2.982  17.953  0.00  0.00    +0.000 NA
ATOM     28  C   UNL     1      47.999   3.202  17.467  0.00  0.00    +0.000 A 
ATOM     29  N   UNL     1      47.647   4.307  16.736  0.00  0.00    +0.000 N 
ATOM     30  C   UNL     1      48.520   5.336  16.472  0.00  0.00    +0.000 A 
ATOM     31  O   UNL     1      48.153   6.352  15.894  0.00  0.00    +0.000 OA
ATOM     32  C   UNL     1      49.867   5.119  16.966  0.00  0.00    +0.000 A 
ATOM     33  H   UNL     1      46.703   4.430  16.405  0.00  0.00    +0.000 HD
ENDBRANCH  20  23
ENDBRANCH  18  19
ENDBRANCH   1  18
TORSDOF 8
ENDMDL
MODEL 8
REMARK VINA RESULT:    -6.803      3.666      8.594
REMARK INTER + INTRA:         -10.959
REMARK INTER:                  -9.377
REMARK INTRA:                  -1.581
REMARK UNBOUND:                -0.975
REMARK  Name = 
REMARK  9 active torsions:
REMARK  status: ('A' for Active; 'I' for Inactive)
REMARK    1  A    between atoms: C_1  and  N_2
REMARK    2  A    between atoms: N_2  and  C_3
REMARK    3  A    between atoms: N_2  and  C_10
REMARK    4  A    between atoms: C_3  and  C_4
REMARK    5  A    between atoms: C_10  and  C_11
REMARK    6  A    between atoms: C_14  and  C_15
REMARK    7  A    between atoms: C_15  and  C_16
REMARK    8  A    between atoms: C_16  and  N_17
REMARK    9  A    between atoms: C_18  and  C_20
REMARK                            x       y       z     vdW  Elec       q    Type
REMARK                         _______ _______ _______ _____ _____    ______ ____
ROOT
ATOM      1  C   UNL     1      49.699   7.497  12.829  0.00  0.00    +0.000 C 
ENDROOT
BRANCH   1   5
ATOM      2  C   UNL     1      49.183   7.948  17.031  0.00  0.00    +0.000 A 
ATOM      3  C   UNL     1      48.280   8.561  16.161  0.00  0.00    +0.000 A 
ATOM      4  C   UNL     1      48.437   8.413  14.788  0.00  0.00    +0.000 A 
ATOM      5  C   UNL     1      49.490   7.639  14.312  0.00  0.00    +0.000 A 
ATOM      6  N   UNL     1      50.384   7.042  15.136  0.00  0.00    +0.000 NA
ATOM      7  C   UNL     1      50.212   7.204  16.465  0.00  0.00    +0.000 A 
BRANCH   2   8
ATOM      8  C   UNL     1      49.075   8.115  18.522  0.00  0.00    +0.000 C 
BRANCH   8  10
ATOM      9  C   UNL     1      49.360   7.069  20.696  0.00  0.00    +0.000 C 
ATOM     10  N   UNL     1      49.138   6.839  19.261  0.00  0.00    +0.000 NA
BRANCH  10  11
ATOM     11  C   UNL     1      47.889   6.086  19.030  0.00  0.00    +0.000 C 
BRANCH  11  12
ATOM     12  C   UNL     1      48.079   4.848  18.193  0.00  0.00    +0.000 A 
ATOM     13  C   UNL     1      47.335   4.628  17.030  0.00  0.00    +0.000 A 
ATOM     14  C   UNL     1      47.575   3.490  16.263  0.00  0.00    +0.000 A 
ATOM     15  C   UNL     1      48.546   2.603  16.694  0.00  0.00    +0.000 A 
ATOM     16  N   UNL     1      49.275   2.773  17.818  0.00  0.00    +0.000 NA
ATOM     17  C   UNL     1      49.025   3.888  18.540  0.00  0.00    +0.000 A 
ENDBRANCH  11  12
ENDBRANCH  10  11
ENDBRANCH   8  10
ENDBRANCH   2   8
ENDBRANCH   1   5
BRANCH   1  18
ATOM     18  C   UNL     1      48.525   8.056  12.025  0.00  0.00    +0.000 C 
BRANCH  18  19
ATOM     19  N   UNL     1      47.727   7.026  11.389  0.00  0.00    +0.000 N 
ATOM     20  C   UNL     1      46.392   6.858  11.662  0.00  0.00    +0.000 C 
ATOM     21  O   UNL     1      45.759   7.627  12.379  0.00  0.00    +0.000 OA
ATOM     22  H   UNL     1      48.244   6.237  11.012  0.00  0.00    +0.000 HD
BRANCH  20  23
ATOM     23  C   UNL     1      45.733   5.738  10.988  0.00  0.00    +0.000 A 
ATOM     24  C   UNL     1      45.811   5.626   9.607  0.00  0.00    +0.000 A 
ATOM     25  S   UNL     1      44.990   4.265   8.991  0.00  0.00    +0.000 S 
ATOM     26  C   UNL     1      44.475   3.803  10.547  0.00  0.00    +0.000 A 
ATOM     27  N   UNL     1      43.688   2.710  10.728  0.00  0.00    +0.000 NA
ATOM     28  C   UNL     1      43.348   2.495  11.956  0.00  0.00    +0.000 A 
ATOM     29  N   UNL     1      43.733   3.269  13.021  0.00  0.00    +0.000 N 
ATOM     30  C   UNL     1      44.568   4.353  12.893  0.00  0.00    +0.000 A 
ATOM     31  O   UNL     1      44.968   4.971  13.873  0.00  0.00    +0.000 OA
ATOM     32  C   UNL     1      44.948   4.656  11.526  0.00  0.00    +0.000 A 
ATOM     33  H   UNL     1      43.453   3.032  13.960  0.00  0.00    +0.000 HD
ENDBRANCH  20  23
ENDBRANCH  18  19
ENDBRANCH   1  18
TORSDOF 8
ENDMDL
MODEL 9
REMARK VINA RESULT:    -6.796      4.194      8.481
REMARK INTER + INTRA:         -10.949
REMARK INTER:                  -8.988
REMARK INTRA:                  -1.962
REMARK UNBOUND:                -0.975
REMARK  Name = 
REMARK  9 active torsions:
REMARK  status: ('A' for Active; 'I' for Inactive)
REMARK    1  A    between atoms: C_1  and  N_2
REMARK    2  A    between atoms: N_2  and  C_3
REMARK    3  A    between atoms: N_2  and  C_10
REMARK    4  A    between atoms: C_3  and  C_4
REMARK    5  A    between atoms: C_10  and  C_11
REMARK    6  A    between atoms: C_14  and  C_15
REMARK    7  A    between atoms: C_15  and  C_16
REMARK    8  A    between atoms: C_16  and  N_17
REMARK    9  A    between atoms: C_18  and  C_20
REMARK                            x       y       z     vdW  Elec       q    Type
REMARK                         _______ _______ _______ _____ _____    ______ ____
ROOT
ATOM      1  C   UNL     1      47.526   3.811  17.770  0.00  0.00    +0.000 C 
ENDROOT
BRANCH   1   5
ATOM      2  C   UNL     1      49.019   7.797  17.859  0.00  0.00    +0.000 A 
ATOM      3  C   UNL     1      48.128   7.379  18.849  0.00  0.00    +0.000 A 
ATOM      4  C   UNL     1      47.641   6.077  18.831  0.00  0.00    +0.000 A 
ATOM      5  C   UNL     1      48.070   5.213  17.828  0.00  0.00    +0.000 A 
ATOM      6  N   UNL     1      48.926   5.599  16.853  0.00  0.00    +0.000 NA
ATOM      7  C   UNL     1      49.382   6.870  16.890  0.00  0.00    +0.000 A 
BRANCH   2   8
ATOM      8  C   UNL     1      49.539   9.208  17.817  0.00  0.00    +0.000 C 
BRANCH   8  10
ATOM      9  C   UNL     1      48.221  11.205  17.396  0.00  0.00    +0.000 C 
ATOM     10  N   UNL     1      48.886  10.043  16.790  0.00  0.00    +0.000 NA
BRANCH  10  11
ATOM     11  C   UNL     1      49.897  10.466  15.800  0.00  0.00    +0.000 C 
BRANCH  11  12
ATOM     12  C   UNL     1      49.654   9.915  14.419  0.00  0.00    +0.000 A 
ATOM     13  C   UNL     1      50.388   8.834  13.921  0.00  0.00    +0.000 A 
ATOM     14  C   UNL     1      50.098   8.329  12.655  0.00  0.00    +0.000 A 
ATOM     15  C   UNL     1      49.089   8.933  11.924  0.00  0.00    +0.000 A 
ATOM     16  N   UNL     1      48.369   9.986  12.364  0.00  0.00    +0.000 NA
ATOM     17  C   UNL     1      48.667  10.452  13.598  0.00  0.00    +0.000 A 
ENDBRANCH  11  12
ENDBRANCH  10  11
ENDBRANCH   8  10
ENDBRANCH   2   8
ENDBRANCH   1   5
BRANCH   1  18
ATOM     18  C   UNL     1      47.407   3.298  16.335  0.00  0.00    +0.000 C 
BRANCH  18  19
ATOM     19  N   UNL     1      46.667   4.193  15.468  0.00  0.00    +0.000 N 
ATOM     20  C   UNL     1      46.905   4.271  14.118  0.00  0.00    +0.000 C 
ATOM     21  O   UNL     1      47.683   3.521  13.536  0.00  0.00    +0.000 OA
ATOM     22  H   UNL     1      46.223   4.984  15.926  0.00  0.00    +0.000 HD
BRANCH  20  23
ATOM     23  C   UNL     1      46.120   5.264  13.383  0.00  0.00    +0.000 A 
ATOM     24  C   UNL     1      46.586   6.567  13.278  0.00  0.00    +0.000 A 
ATOM     25  S   UNL     1      45.549   7.587  12.390  0.00  0.00    +0.000 S 
ATOM     26  C   UNL     1      44.428   6.329  12.148  0.00  0.00    +0.000 A 
ATOM     27  N   UNL     1      43.268   6.545  11.472  0.00  0.00    +0.000 NA
ATOM     28  C   UNL     1      42.499   5.510  11.391  0.00  0.00    +0.000 A 
ATOM     29  N   UNL     1      42.789   4.276  11.915  0.00  0.00    +0.000 N 
ATOM     30  C   UNL     1      43.969   3.998  12.561  0.00  0.00    +0.000 A 
ATOM     31  O   UNL     1      44.239   2.863  12.938  0.00  0.00    +0.000 OA
ATOM     32  C   UNL     1      44.852   5.140  12.710  0.00  0.00    +0.000 A 
ATOM     33  H   UNL     1      42.155   3.501  11.795  0.00  0.00    +0.000 HD
ENDBRANCH  20  23
ENDBRANCH  18  19
ENDBRANCH   1  18
TORSDOF 8
ENDMDL
