MODEL 1
REMARK VINA RESULT:    -8.135      0.000      0.000
REMARK INTER + INTRA:         -12.055
REMARK INTER:                 -10.989
REMARK INTRA:                  -1.066
REMARK UNBOUND:                -1.066
REMARK  Name = 
REMARK  6 active torsions:
REMARK  status: ('A' for Active; 'I' for Inactive)
REMARK    1  A    between atoms: C_2  and  C_4
REMARK    2  A    between atoms: C_7  and  O_8
REMARK    3  A    between atoms: O_8  and  C_9
REMARK    4  A    between atoms: C_9  and  C_10
REMARK    5  A    between atoms: C_11  and  C_12
REMARK    6  A    between atoms: C_14  and  C_15
REMARK                            x       y       z     vdW  Elec       q    Type
REMARK                         _______ _______ _______ _____ _____    ______ ____
ROOT
ATOM      1  C   UNL     1      44.925   3.352  12.102  0.00  0.00    +0.000 C 
ATOM      2  C   UNL     1      44.911   4.555  12.697  0.00  0.00    +0.000 C 
ENDROOT
BRANCH   2   3
ATOM      3  C   UNL     1      46.113   5.158  13.282  0.00  0.00    +0.000 A 
ATOM      4  C   UNL     1      46.544   4.717  14.546  0.00  0.00    +0.000 A 
ATOM      5  C   UNL     1      47.658   5.291  15.195  0.00  0.00    +0.000 A 
ATOM      6  C   UNL     1      48.355   6.299  14.503  0.00  0.00    +0.000 A 
ATOM      7  C   UNL     1      47.950   6.731  13.236  0.00  0.00    +0.000 A 
ATOM      8  C   UNL     1      46.826   6.174  12.632  0.00  0.00    +0.000 A 
ATOM      9 CL   UNL     1      46.347   6.789  11.089  0.00  0.00    +0.000 Cl
BRANCH   5  10
ATOM     10  C   UNL     1      48.054   4.885  16.567  0.00  0.00    +0.000 A 
ATOM     11  C   UNL     1      47.798   3.591  17.057  0.00  0.00    +0.000 A 
ATOM     12  C   UNL     1      48.223   3.193  18.330  0.00  0.00    +0.000 A 
ATOM     13  C   UNL     1      48.902   4.087  19.151  0.00  0.00    +0.000 A 
ATOM     14  C   UNL     1      49.154   5.378  18.699  0.00  0.00    +0.000 A 
ATOM     15  C   UNL     1      48.739   5.769  17.422  0.00  0.00    +0.000 A 
ENDBRANCH   5  10
ENDBRANCH   2   3
BRANCH   1  16
ATOM     16  C   UNL     1      43.733   2.768  11.401  0.00  0.00    +0.000 C 
BRANCH  16  17
ATOM     17  O   UNL     1      43.602   3.405  10.130  0.00  0.00    +0.000 OA
BRANCH  17  21
ATOM     18  C   UNL     1      46.576   2.365   7.474  0.00  0.00    +0.000 A 
ATOM     19  C   UNL     1      46.214   3.706   7.618  0.00  0.00    +0.000 A 
ATOM     20  C   UNL     1      45.207   4.044   8.528  0.00  0.00    +0.000 A 
ATOM     21  C   UNL     1      44.606   3.033   9.258  0.00  0.00    +0.000 A 
ATOM     22  N   UNL     1      44.938   1.729   9.140  0.00  0.00    +0.000 NA
ATOM     23  C   UNL     1      45.908   1.423   8.244  0.00  0.00    +0.000 A 
BRANCH  18  25
ATOM     24  N   UNL     1      48.744   2.645   6.409  0.00  0.00    +0.000 N 
ATOM     25  C   UNL     1      47.609   1.894   6.529  0.00  0.00    +0.000 C 
ATOM     26  O   UNL     1      47.472   0.851   5.903  0.00  0.00    +0.000 OA
ATOM     27  H   UNL     1      49.482   2.249   5.840  0.00  0.00    +0.000 HD
ATOM     28  H   UNL     1      49.004   3.352   7.081  0.00  0.00    +0.000 HD
ENDBRANCH  18  25
ENDBRANCH  17  21
ENDBRANCH  16  17
ENDBRANCH   1  16
TORSDOF 6
ENDMDL
MODEL 2
REMARK VINA RESULT:    -7.910      2.429      4.680
REMARK INTER + INTRA:         -11.751
REMARK INTER:                 -10.845
REMARK INTRA:                  -0.906
REMARK UNBOUND:                -1.066
REMARK  Name = 
REMARK  6 active torsions:
REMARK  status: ('A' for Active; 'I' for Inactive)
REMARK    1  A    between atoms: C_2  and  C_4
REMARK    2  A    between atoms: C_7  and  O_8
REMARK    3  A    between atoms: O_8  and  C_9
REMARK    4  A    between atoms: C_9  and  C_10
REMARK    5  A    between atoms: C_11  and  C_12
REMARK    6  A    between atoms: C_14  and  C_15
REMARK                            x       y       z     vdW  Elec       q    Type
REMARK                         _______ _______ _______ _____ _____    ______ ____
ROOT
ATOM      1  C   UNL     1      45.027   3.967  11.989  0.00  0.00    +0.000 C 
ATOM      2  C   UNL     1      44.908   5.029  12.801  0.00  0.00    +0.000 C 
ENDROOT
BRANCH   2   3
ATOM      3  C   UNL     1      46.042   5.896  13.136  0.00  0.00    +0.000 A 
ATOM      4  C   UNL     1      46.105   7.179  12.563  0.00  0.00    +0.000 A 
ATOM      5  C   UNL     1      47.195   8.045  12.793  0.00  0.00    +0.000 A 
ATOM      6  C   UNL     1      48.203   7.591  13.663  0.00  0.00    +0.000 A 
ATOM      7  C   UNL     1      48.142   6.326  14.257  0.00  0.00    +0.000 A 
ATOM      8  C   UNL     1      47.074   5.475  13.986  0.00  0.00    +0.000 A 
ATOM      9 CL   UNL     1      47.084   3.905  14.709  0.00  0.00    +0.000 Cl
BRANCH   5  10
ATOM     10  C   UNL     1      47.300   9.361  12.115  0.00  0.00    +0.000 A 
ATOM     11  C   UNL     1      48.531   9.853  11.641  0.00  0.00    +0.000 A 
ATOM     12  C   UNL     1      48.618  11.068  10.952  0.00  0.00    +0.000 A 
ATOM     13  C   UNL     1      47.475  11.831  10.735  0.00  0.00    +0.000 A 
ATOM     14  C   UNL     1      46.248  11.379  11.208  0.00  0.00    +0.000 A 
ATOM     15  C   UNL     1      46.162  10.158  11.884  0.00  0.00    +0.000 A 
ENDBRANCH   5  10
ENDBRANCH   2   3
BRANCH   1  16
ATOM     16  C   UNL     1      43.859   3.135  11.548  0.00  0.00    +0.000 C 
BRANCH  16  17
ATOM     17  O   UNL     1      43.546   3.480  10.198  0.00  0.00    +0.000 OA
BRANCH  17  21
ATOM     18  C   UNL     1      46.480   2.379   7.522  0.00  0.00    +0.000 A 
ATOM     19  C   UNL     1      46.082   3.716   7.603  0.00  0.00    +0.000 A 
ATOM     20  C   UNL     1      45.089   4.075   8.520  0.00  0.00    +0.000 A 
ATOM     21  C   UNL     1      44.538   3.089   9.320  0.00  0.00    +0.000 A 
ATOM     22  N   UNL     1      44.904   1.790   9.263  0.00  0.00    +0.000 NA
ATOM     23  C   UNL     1      45.859   1.463   8.359  0.00  0.00    +0.000 A 
BRANCH  18  25
ATOM     24  N   UNL     1      48.612   2.658   6.388  0.00  0.00    +0.000 N 
ATOM     25  C   UNL     1      47.500   1.886   6.576  0.00  0.00    +0.000 C 
ATOM     26  O   UNL     1      47.376   0.809   6.008  0.00  0.00    +0.000 OA
ATOM     27  H   UNL     1      49.346   2.252   5.820  0.00  0.00    +0.000 HD
ATOM     28  H   UNL     1      48.869   3.406   7.015  0.00  0.00    +0.000 HD
ENDBRANCH  18  25
ENDBRANCH  17  21
ENDBRANCH  16  17
ENDBRANCH   1  16
TORSDOF 6
ENDMDL
MODEL 3
REMARK VINA RESULT:    -7.881      3.652      6.045
REMARK INTER + INTRA:         -11.711
REMARK INTER:                 -10.720
REMARK INTRA:                  -0.991
REMARK UNBOUND:                -1.066
REMARK  Name = 
REMARK  6 active torsions:
REMARK  status: ('A' for Active; 'I' for Inactive)
REMARK    1  A    between atoms: C_2  and  C_4
REMARK    2  A    between atoms: C_7  and  O_8
REMARK    3  A    between atoms: O_8  and  C_9
REMARK    4  A    between atoms: C_9  and  C_10
REMARK    5  A    between atoms: C_11  and  C_12
REMARK    6  A    between atoms: C_14  and  C_15
REMARK                            x       y       z     vdW  Elec       q    Type
REMARK                         _______ _______ _______ _____ _____    ______ ____
ROOT
ATOM      1  C   UNL     1      44.289   4.664  11.553  0.00  0.00    +0.000 C 
ATOM      2  C   UNL     1      45.411   5.401  11.518  0.00  0.00    +0.000 C 
ENDROOT
BRANCH   2   3
ATOM      3  C   UNL     1      45.432   6.821  11.884  0.00  0.00    +0.000 A 
ATOM      4  C   UNL     1      44.574   7.706  11.207  0.00  0.00    +0.000 A 
ATOM      5  C   UNL     1      44.580   9.094  11.466  0.00  0.00    +0.000 A 
ATOM      6  C   UNL     1      45.452   9.556  12.469  0.00  0.00    +0.000 A 
ATOM      7  C   UNL     1      46.294   8.683  13.165  0.00  0.00    +0.000 A 
ATOM      8  C   UNL     1      46.296   7.323  12.867  0.00  0.00    +0.000 A 
ATOM      9 CL   UNL     1      47.398   6.305  13.726  0.00  0.00    +0.000 Cl
BRANCH   5  10
ATOM     10  C   UNL     1      43.738  10.035  10.686  0.00  0.00    +0.000 A 
ATOM     11  C   UNL     1      42.334   9.933  10.672  0.00  0.00    +0.000 A 
ATOM     12  C   UNL     1      41.540  10.856   9.982  0.00  0.00    +0.000 A 
ATOM     13  C   UNL     1      42.133  11.895   9.273  0.00  0.00    +0.000 A 
ATOM     14  C   UNL     1      43.519  12.010   9.255  0.00  0.00    +0.000 A 
ATOM     15  C   UNL     1      44.309  11.095   9.956  0.00  0.00    +0.000 A 
ENDBRANCH   5  10
ENDBRANCH   2   3
BRANCH   1  16
ATOM     16  C   UNL     1      44.269   3.187  11.290  0.00  0.00    +0.000 C 
BRANCH  16  17
ATOM     17  O   UNL     1      43.761   2.971   9.973  0.00  0.00    +0.000 OA
BRANCH  17  21
ATOM     18  C   UNL     1      46.735   2.288   7.203  0.00  0.00    +0.000 A 
ATOM     19  C   UNL     1      46.156   3.555   7.300  0.00  0.00    +0.000 A 
ATOM     20  C   UNL     1      45.153   3.773   8.249  0.00  0.00    +0.000 A 
ATOM     21  C   UNL     1      44.770   2.721   9.063  0.00  0.00    +0.000 A 
ATOM     22  N   UNL     1      45.313   1.487   8.992  0.00  0.00    +0.000 NA
ATOM     23  C   UNL     1      46.276   1.295   8.057  0.00  0.00    +0.000 A 
BRANCH  18  25
ATOM     24  N   UNL     1      48.905   2.722   6.197  0.00  0.00    +0.000 N 
ATOM     25  C   UNL     1      47.784   1.941   6.224  0.00  0.00    +0.000 C 
ATOM     26  O   UNL     1      47.674   0.969   5.488  0.00  0.00    +0.000 OA
ATOM     27  H   UNL     1      49.656   2.404   5.596  0.00  0.00    +0.000 HD
ATOM     28  H   UNL     1      49.145   3.358   6.944  0.00  0.00    +0.000 HD
ENDBRANCH  18  25
ENDBRANCH  17  21
ENDBRANCH  16  17
ENDBRANCH   1  16
TORSDOF 6
ENDMDL
MODEL 4
REMARK VINA RESULT:    -7.614      3.555      4.805
REMARK INTER + INTRA:         -11.351
REMARK INTER:                 -10.472
REMARK INTRA:                  -0.879
REMARK UNBOUND:                -1.066
REMARK  Name = 
REMARK  6 active torsions:
REMARK  status: ('A' for Active; 'I' for Inactive)
REMARK    1  A    between atoms: C_2  and  C_4
REMARK    2  A    between atoms: C_7  and  O_8
REMARK    3  A    between atoms: O_8  and  C_9
REMARK    4  A    between atoms: C_9  and  C_10
REMARK    5  A    between atoms: C_11  and  C_12
REMARK    6  A    between atoms: C_14  and  C_15
REMARK                            x       y       z     vdW  Elec       q    Type
REMARK                         _______ _______ _______ _____ _____    ______ ____
ROOT
ATOM      1  C   UNL     1      45.822   5.823  11.108  0.00  0.00    +0.000 C 
ATOM      2  C   UNL     1      46.295   6.488  12.174  0.00  0.00    +0.000 C 
ENDROOT
BRANCH   2   3
ATOM      3  C   UNL     1      47.192   7.641  12.048  0.00  0.00    +0.000 A 
ATOM      4  C   UNL     1      48.548   7.413  11.751  0.00  0.00    +0.000 A 
ATOM      5  C   UNL     1      49.481   8.469  11.672  0.00  0.00    +0.000 A 
ATOM      6  C   UNL     1      48.990   9.775  11.856  0.00  0.00    +0.000 A 
ATOM      7  C   UNL     1      47.640  10.017  12.129  0.00  0.00    +0.000 A 
ATOM      8  C   UNL     1      46.745   8.956  12.238  0.00  0.00    +0.000 A 
ATOM      9 CL   UNL     1      45.101   9.318  12.630  0.00  0.00    +0.000 Cl
BRANCH   5  10
ATOM     10  C   UNL     1      50.927   8.216  11.449  0.00  0.00    +0.000 A 
ATOM     11  C   UNL     1      51.910   8.736  12.311  0.00  0.00    +0.000 A 
ATOM     12  C   UNL     1      53.267   8.449  12.131  0.00  0.00    +0.000 A 
ATOM     13  C   UNL     1      53.677   7.646  11.071  0.00  0.00    +0.000 A 
ATOM     14  C   UNL     1      52.729   7.133  10.192  0.00  0.00    +0.000 A 
ATOM     15  C   UNL     1      51.372   7.411  10.383  0.00  0.00    +0.000 A 
ENDBRANCH   5  10
ENDBRANCH   2   3
BRANCH   1  16
ATOM     16  C   UNL     1      44.817   4.713  11.212  0.00  0.00    +0.000 C 
BRANCH  16  17
ATOM     17  O   UNL     1      44.200   4.544   9.936  0.00  0.00    +0.000 OA
BRANCH  17  21
ATOM     18  C   UNL     1      46.646   2.442   7.371  0.00  0.00    +0.000 A 
ATOM     19  C   UNL     1      45.988   1.772   8.405  0.00  0.00    +0.000 A 
ATOM     20  C   UNL     1      45.156   2.498   9.263  0.00  0.00    +0.000 A 
ATOM     21  C   UNL     1      45.013   3.859   9.054  0.00  0.00    +0.000 A 
ATOM     22  N   UNL     1      45.636   4.531   8.062  0.00  0.00    +0.000 NA
ATOM     23  C   UNL     1      46.446   3.809   7.249  0.00  0.00    +0.000 A 
BRANCH  18  25
ATOM     24  N   UNL     1      48.812   2.313   6.275  0.00  0.00    +0.000 N 
ATOM     25  C   UNL     1      47.563   1.779   6.422  0.00  0.00    +0.000 C 
ATOM     26  O   UNL     1      47.232   0.769   5.815  0.00  0.00    +0.000 OA
ATOM     27  H   UNL     1      49.459   1.783   5.703  0.00  0.00    +0.000 HD
ATOM     28  H   UNL     1      49.204   2.972   6.931  0.00  0.00    +0.000 HD
ENDBRANCH  18  25
ENDBRANCH  17  21
ENDBRANCH  16  17
ENDBRANCH   1  16
TORSDOF 6
ENDMDL
MODEL 5
REMARK VINA RESULT:    -7.592      1.503      2.330
REMARK INTER + INTRA:         -11.321
REMARK INTER:                 -10.274
REMARK INTRA:                  -1.048
REMARK UNBOUND:                -1.066
REMARK  Name = 
REMARK  6 active torsions:
REMARK  status: ('A' for Active; 'I' for Inactive)
REMARK    1  A    between atoms: C_2  and  C_4
REMARK    2  A    between atoms: C_7  and  O_8
REMARK    3  A    between atoms: O_8  and  C_9
REMARK    4  A    between atoms: C_9  and  C_10
REMARK    5  A    between atoms: C_11  and  C_12
REMARK    6  A    between atoms: C_14  and  C_15
REMARK                            x       y       z     vdW  Elec       q    Type
REMARK                         _______ _______ _______ _____ _____    ______ ____
ROOT
ATOM      1  C   UNL     1      45.018   4.617  12.037  0.00  0.00    +0.000 C 
ATOM      2  C   UNL     1      44.750   5.933  12.038  0.00  0.00    +0.000 C 
ENDROOT
BRANCH   2   3
ATOM      3  C   UNL     1      45.731   6.935  12.465  0.00  0.00    +0.000 A 
ATOM      4  C   UNL     1      46.791   6.533  13.298  0.00  0.00    +0.000 A 
ATOM      5  C   UNL     1      47.739   7.452  13.794  0.00  0.00    +0.000 A 
ATOM      6  C   UNL     1      47.611   8.792  13.383  0.00  0.00    +0.000 A 
ATOM      7  C   UNL     1      46.575   9.202  12.537  0.00  0.00    +0.000 A 
ATOM      8  C   UNL     1      45.630   8.282  12.089  0.00  0.00    +0.000 A 
ATOM      9 CL   UNL     1      44.344   8.861  11.089  0.00  0.00    +0.000 Cl
BRANCH   5  10
ATOM     10  C   UNL     1      48.801   7.038  14.745  0.00  0.00    +0.000 A 
ATOM     11  C   UNL     1      50.114   7.538  14.650  0.00  0.00    +0.000 A 
ATOM     12  C   UNL     1      51.099   7.191  15.581  0.00  0.00    +0.000 A 
ATOM     13  C   UNL     1      50.799   6.318  16.622  0.00  0.00    +0.000 A 
ATOM     14  C   UNL     1      49.515   5.795  16.731  0.00  0.00    +0.000 A 
ATOM     15  C   UNL     1      48.529   6.155  15.806  0.00  0.00    +0.000 A 
ENDBRANCH   5  10
ENDBRANCH   2   3
BRANCH   1  16
ATOM     16  C   UNL     1      44.068   3.586  11.500  0.00  0.00    +0.000 C 
BRANCH  16  17
ATOM     17  O   UNL     1      43.782   3.904  10.138  0.00  0.00    +0.000 OA
BRANCH  17  21
ATOM     18  C   UNL     1      46.606   2.458   7.508  0.00  0.00    +0.000 A 
ATOM     19  C   UNL     1      46.315   3.823   7.530  0.00  0.00    +0.000 A 
ATOM     20  C   UNL     1      45.359   4.300   8.432  0.00  0.00    +0.000 A 
ATOM     21  C   UNL     1      44.735   3.397   9.276  0.00  0.00    +0.000 A 
ATOM     22  N   UNL     1      44.998   2.073   9.276  0.00  0.00    +0.000 NA
ATOM     23  C   UNL     1      45.919   1.631   8.386  0.00  0.00    +0.000 A 
BRANCH  18  25
ATOM     24  N   UNL     1      48.698   2.565   6.274  0.00  0.00    +0.000 N 
ATOM     25  C   UNL     1      47.579   1.844   6.583  0.00  0.00    +0.000 C 
ATOM     26  O   UNL     1      47.411   0.717   6.136  0.00  0.00    +0.000 OA
ATOM     27  H   UNL     1      49.401   2.084   5.727  0.00  0.00    +0.000 HD
ATOM     28  H   UNL     1      48.994   3.368   6.810  0.00  0.00    +0.000 HD
ENDBRANCH  18  25
ENDBRANCH  17  21
ENDBRANCH  16  17
ENDBRANCH   1  16
TORSDOF 6
ENDMDL
MODEL 6
REMARK VINA RESULT:    -7.522      1.385      1.751
REMARK INTER + INTRA:         -11.226
REMARK INTER:                 -10.287
REMARK INTRA:                  -0.940
REMARK UNBOUND:                -1.066
REMARK  Name = 
REMARK  6 active torsions:
REMARK  status: ('A' for Active; 'I' for Inactive)
REMARK    1  A    between atoms: C_2  and  C_4
REMARK    2  A    between atoms: C_7  and  O_8
REMARK    3  A    between atoms: O_8  and  C_9
REMARK    4  A    between atoms: C_9  and  C_10
REMARK    5  A    between atoms: C_11  and  C_12
REMARK    6  A    between atoms: C_14  and  C_15
REMARK                            x       y       z     vdW  Elec       q    Type
REMARK                         _______ _______ _______ _____ _____    ______ ____
ROOT
ATOM      1  C   UNL     1      45.030   5.943  11.957  0.00  0.00    +0.000 C 
ATOM      2  C   UNL     1      46.325   6.264  11.814  0.00  0.00    +0.000 C 
ENDROOT
BRANCH   2   3
ATOM      3  C   UNL     1      47.182   6.608  12.954  0.00  0.00    +0.000 A 
ATOM      4  C   UNL     1      47.332   5.672  13.992  0.00  0.00    +0.000 A 
ATOM      5  C   UNL     1      48.093   5.955  15.147  0.00  0.00    +0.000 A 
ATOM      6  C   UNL     1      48.740   7.204  15.198  0.00  0.00    +0.000 A 
ATOM      7  C   UNL     1      48.617   8.135  14.162  0.00  0.00    +0.000 A 
ATOM      8  C   UNL     1      47.831   7.846  13.050  0.00  0.00    +0.000 A 
ATOM      9 CL   UNL     1      47.676   9.060  11.828  0.00  0.00    +0.000 Cl
BRANCH   5  10
ATOM     10  C   UNL     1      48.176   5.000  16.280  0.00  0.00    +0.000 A 
ATOM     11  C   UNL     1      47.270   3.931  16.412  0.00  0.00    +0.000 A 
ATOM     12  C   UNL     1      47.384   2.999  17.449  0.00  0.00    +0.000 A 
ATOM     13  C   UNL     1      48.400   3.123  18.392  0.00  0.00    +0.000 A 
ATOM     14  C   UNL     1      49.299   4.180  18.296  0.00  0.00    +0.000 A 
ATOM     15  C   UNL     1      49.190   5.102  17.250  0.00  0.00    +0.000 A 
ENDBRANCH   5  10
ENDBRANCH   2   3
BRANCH   1  16
ATOM     16  C   UNL     1      44.168   5.481  10.819  0.00  0.00    +0.000 C 
BRANCH  16  17
ATOM     17  O   UNL     1      44.291   4.064  10.707  0.00  0.00    +0.000 OA
BRANCH  17  21
ATOM     18  C   UNL     1      46.440   2.883   7.394  0.00  0.00    +0.000 A 
ATOM     19  C   UNL     1      45.907   1.920   8.253  0.00  0.00    +0.000 A 
ATOM     20  C   UNL     1      45.175   2.336   9.370  0.00  0.00    +0.000 A 
ATOM     21  C   UNL     1      45.002   3.693   9.582  0.00  0.00    +0.000 A 
ATOM     22  N   UNL     1      45.505   4.645   8.767  0.00  0.00    +0.000 NA
ATOM     23  C   UNL     1      46.221   4.220   7.697  0.00  0.00    +0.000 A 
BRANCH  18  25
ATOM     24  N   UNL     1      48.598   2.448   6.363  0.00  0.00    +0.000 N 
ATOM     25  C   UNL     1      47.246   2.558   6.201  0.00  0.00    +0.000 C 
ATOM     26  O   UNL     1      46.723   2.358   5.112  0.00  0.00    +0.000 OA
ATOM     27  H   UNL     1      49.119   2.120   5.559  0.00  0.00    +0.000 HD
ATOM     28  H   UNL     1      49.033   2.351   7.270  0.00  0.00    +0.000 HD
ENDBRANCH  18  25
ENDBRANCH  17  21
ENDBRANCH  16  17
ENDBRANCH   1  16
TORSDOF 6
ENDMDL
MODEL 7
REMARK VINA RESULT:    -7.248      4.611      8.138
REMARK INTER + INTRA:         -10.856
REMARK INTER:                  -9.952
REMARK INTRA:                  -0.904
REMARK UNBOUND:                -1.066
REMARK  Name = 
REMARK  6 active torsions:
REMARK  status: ('A' for Active; 'I' for Inactive)
REMARK    1  A    between atoms: C_2  and  C_4
REMARK    2  A    between atoms: C_7  and  O_8
REMARK    3  A    between atoms: O_8  and  C_9
REMARK    4  A    between atoms: C_9  and  C_10
REMARK    5  A    between atoms: C_11  and  C_12
REMARK    6  A    between atoms: C_14  and  C_15
REMARK                            x       y       z     vdW  Elec       q    Type
REMARK                         _______ _______ _______ _____ _____    ______ ____
ROOT
ATOM      1  C   UNL     1      45.426   7.079  11.984  0.00  0.00    +0.000 C 
ATOM      2  C   UNL     1      44.642   6.606  11.002  0.00  0.00    +0.000 C 
ENDROOT
BRANCH   2   3
ATOM      3  C   UNL     1      44.533   5.175  10.702  0.00  0.00    +0.000 A 
ATOM      4  C   UNL     1      45.302   4.645   9.650  0.00  0.00    +0.000 A 
ATOM      5  C   UNL     1      45.206   3.290   9.267  0.00  0.00    +0.000 A 
ATOM      6  C   UNL     1      44.340   2.471  10.014  0.00  0.00    +0.000 A 
ATOM      7  C   UNL     1      43.586   2.980  11.077  0.00  0.00    +0.000 A 
ATOM      8  C   UNL     1      43.671   4.329  11.412  0.00  0.00    +0.000 A 
ATOM      9 CL   UNL     1      42.674   4.908  12.701  0.00  0.00    +0.000 Cl
BRANCH   5  10
ATOM     10  C   UNL     1      45.952   2.757   8.099  0.00  0.00    +0.000 A 
ATOM     11  C   UNL     1      46.426   1.432   8.068  0.00  0.00    +0.000 A 
ATOM     12  C   UNL     1      47.079   0.915   6.943  0.00  0.00    +0.000 A 
ATOM     13  C   UNL     1      47.289   1.718   5.826  0.00  0.00    +0.000 A 
ATOM     14  C   UNL     1      46.846   3.036   5.836  0.00  0.00    +0.000 A 
ATOM     15  C   UNL     1      46.182   3.546   6.956  0.00  0.00    +0.000 A 
ENDBRANCH   5  10
ENDBRANCH   2   3
BRANCH   1  16
ATOM     16  C   UNL     1      45.464   8.527  12.379  0.00  0.00    +0.000 C 
BRANCH  16  17
ATOM     17  O   UNL     1      46.500   8.702  13.345  0.00  0.00    +0.000 OA
BRANCH  17  21
ATOM     18  C   UNL     1      50.279   8.283  11.756  0.00  0.00    +0.000 A 
ATOM     19  C   UNL     1      49.819   7.362  12.699  0.00  0.00    +0.000 A 
ATOM     20  C   UNL     1      48.531   7.514  13.224  0.00  0.00    +0.000 A 
ATOM     21  C   UNL     1      47.757   8.574  12.786  0.00  0.00    +0.000 A 
ATOM     22  N   UNL     1      48.177   9.478  11.876  0.00  0.00    +0.000 NA
ATOM     23  C   UNL     1      49.432   9.319  11.388  0.00  0.00    +0.000 A 
BRANCH  18  25
ATOM     24  N   UNL     1      52.017   7.054  10.581  0.00  0.00    +0.000 N 
ATOM     25  C   UNL     1      51.626   8.232  11.153  0.00  0.00    +0.000 C 
ATOM     26  O   UNL     1      52.354   9.216  11.132  0.00  0.00    +0.000 OA
ATOM     27  H   UNL     1      52.897   7.072  10.080  0.00  0.00    +0.000 HD
ATOM     28  H   UNL     1      51.366   6.317  10.351  0.00  0.00    +0.000 HD
ENDBRANCH  18  25
ENDBRANCH  17  21
ENDBRANCH  16  17
ENDBRANCH   1  16
TORSDOF 6
ENDMDL
MODEL 8
REMARK VINA RESULT:    -6.841      4.300      9.138
REMARK INTER + INTRA:         -10.306
REMARK INTER:                  -9.585
REMARK INTRA:                  -0.721
REMARK UNBOUND:                -1.066
REMARK  Name = 
REMARK  6 active torsions:
REMARK  status: ('A' for Active; 'I' for Inactive)
REMARK    1  A    between atoms: C_2  and  C_4
REMARK    2  A    between atoms: C_7  and  O_8
REMARK    3  A    between atoms: O_8  and  C_9
REMARK    4  A    between atoms: C_9  and  C_10
REMARK    5  A    between atoms: C_11  and  C_12
REMARK    6  A    between atoms: C_14  and  C_15
REMARK                            x       y       z     vdW  Elec       q    Type
REMARK                         _______ _______ _______ _____ _____    ______ ____
ROOT
ATOM      1  C   UNL     1      45.955   6.886  12.103  0.00  0.00    +0.000 C 
ATOM      2  C   UNL     1      45.030   6.553  11.189  0.00  0.00    +0.000 C 
ENDROOT
BRANCH   2   3
ATOM      3  C   UNL     1      44.758   5.161  10.815  0.00  0.00    +0.000 A 
ATOM      4  C   UNL     1      45.476   4.596   9.745  0.00  0.00    +0.000 A 
ATOM      5  C   UNL     1      45.227   3.283   9.292  0.00  0.00    +0.000 A 
ATOM      6  C   UNL     1      44.258   2.537   9.988  0.00  0.00    +0.000 A 
ATOM      7  C   UNL     1      43.553   3.078  11.068  0.00  0.00    +0.000 A 
ATOM      8  C   UNL     1      43.791   4.390  11.473  0.00  0.00    +0.000 A 
ATOM      9 CL   UNL     1      42.849   5.018  12.779  0.00  0.00    +0.000 Cl
BRANCH   5  10
ATOM     10  C   UNL     1      45.923   2.723   8.107  0.00  0.00    +0.000 A 
ATOM     11  C   UNL     1      46.220   3.515   6.982  0.00  0.00    +0.000 A 
ATOM     12  C   UNL     1      46.926   2.999   5.889  0.00  0.00    +0.000 A 
ATOM     13  C   UNL     1      47.338   1.671   5.888  0.00  0.00    +0.000 A 
ATOM     14  C   UNL     1      47.044   0.860   6.979  0.00  0.00    +0.000 A 
ATOM     15  C   UNL     1      46.350   1.382   8.075  0.00  0.00    +0.000 A 
ENDBRANCH   5  10
ENDBRANCH   2   3
BRANCH   1  16
ATOM     16  C   UNL     1      46.169   8.293  12.579  0.00  0.00    +0.000 C 
BRANCH  16  17
ATOM     17  O   UNL     1      47.573   8.516  12.708  0.00  0.00    +0.000 OA
BRANCH  17  21
ATOM     18  C   UNL     1      48.892   7.649  16.515  0.00  0.00    +0.000 A 
ATOM     19  C   UNL     1      48.924   6.660  15.529  0.00  0.00    +0.000 A 
ATOM     20  C   UNL     1      48.479   6.971  14.240  0.00  0.00    +0.000 A 
ATOM     21  C   UNL     1      48.024   8.254  13.987  0.00  0.00    +0.000 A 
ATOM     22  N   UNL     1      47.982   9.229  14.921  0.00  0.00    +0.000 NA
ATOM     23  C   UNL     1      48.408   8.902  16.166  0.00  0.00    +0.000 A 
BRANCH  18  25
ATOM     24  N   UNL     1      50.383   8.144  18.370  0.00  0.00    +0.000 N 
ATOM     25  C   UNL     1      49.316   7.425  17.911  0.00  0.00    +0.000 C 
ATOM     26  O   UNL     1      48.713   6.651  18.644  0.00  0.00    +0.000 OA
ATOM     27  H   UNL     1      50.589   8.056  19.358  0.00  0.00    +0.000 HD
ATOM     28  H   UNL     1      50.736   8.961  17.893  0.00  0.00    +0.000 HD
ENDBRANCH  18  25
ENDBRANCH  17  21
ENDBRANCH  16  17
ENDBRANCH   1  16
TORSDOF 6
ENDMDL
MODEL 9
REMARK VINA RESULT:    -6.662      4.395      6.751
REMARK INTER + INTRA:         -10.065
REMARK INTER:                  -9.165
REMARK INTRA:                  -0.900
REMARK UNBOUND:                -1.066
REMARK  Name = 
REMARK  6 active torsions:
REMARK  status: ('A' for Active; 'I' for Inactive)
REMARK    1  A    between atoms: C_2  and  C_4
REMARK    2  A    between atoms: C_7  and  O_8
REMARK    3  A    between atoms: O_8  and  C_9
REMARK    4  A    between atoms: C_9  and  C_10
REMARK    5  A    between atoms: C_11  and  C_12
REMARK    6  A    between atoms: C_14  and  C_15
REMARK                            x       y       z     vdW  Elec       q    Type
REMARK                         _______ _______ _______ _____ _____    ______ ____
ROOT
ATOM      1  C   UNL     1      47.255   4.724  17.298  0.00  0.00    +0.000 C 
ATOM      2  C   UNL     1      48.169   5.575  17.791  0.00  0.00    +0.000 C 
ENDROOT
BRANCH   2   3
ATOM      3  C   UNL     1      47.927   6.381  18.992  0.00  0.00    +0.000 A 
ATOM      4  C   UNL     1      47.504   7.713  18.838  0.00  0.00    +0.000 A 
ATOM      5  C   UNL     1      47.307   8.565  19.946  0.00  0.00    +0.000 A 
ATOM      6  C   UNL     1      47.507   8.012  21.224  0.00  0.00    +0.000 A 
ATOM      7  C   UNL     1      47.906   6.682  21.392  0.00  0.00    +0.000 A 
ATOM      8  C   UNL     1      48.129   5.872  20.282  0.00  0.00    +0.000 A 
ATOM      9 CL   UNL     1      48.672   4.253  20.555  0.00  0.00    +0.000 Cl
BRANCH   5  10
ATOM     10  C   UNL     1      46.948   9.995  19.775  0.00  0.00    +0.000 A 
ATOM     11  C   UNL     1      47.534  10.789  18.771  0.00  0.00    +0.000 A 
ATOM     12  C   UNL     1      47.153  12.121  18.576  0.00  0.00    +0.000 A 
ATOM     13  C   UNL     1      46.185  12.698  19.392  0.00  0.00    +0.000 A 
ATOM     14  C   UNL     1      45.601  11.942  20.403  0.00  0.00    +0.000 A 
ATOM     15  C   UNL     1      45.975  10.607  20.588  0.00  0.00    +0.000 A 
ENDBRANCH   5  10
ENDBRANCH   2   3
BRANCH   1  16
ATOM     16  C   UNL     1      47.525   3.811  16.138  0.00  0.00    +0.000 C 
BRANCH  16  17
ATOM     17  O   UNL     1      47.821   4.612  14.994  0.00  0.00    +0.000 OA
BRANCH  17  21
ATOM     18  C   UNL     1      44.881   4.353  12.117  0.00  0.00    +0.000 A 
ATOM     19  C   UNL     1      45.241   5.602  12.629  0.00  0.00    +0.000 A 
ATOM     20  C   UNL     1      46.245   5.674  13.601  0.00  0.00    +0.000 A 
ATOM     21  C   UNL     1      46.850   4.501  14.018  0.00  0.00    +0.000 A 
ATOM     22  N   UNL     1      46.522   3.281  13.539  0.00  0.00    +0.000 NA
ATOM     23  C   UNL     1      45.539   3.234  12.607  0.00  0.00    +0.000 A 
BRANCH  18  25
ATOM     24  N   UNL     1      43.737   5.075  10.098  0.00  0.00    +0.000 N 
ATOM     25  C   UNL     1      43.822   4.158  11.107  0.00  0.00    +0.000 C 
ATOM     26  O   UNL     1      43.071   3.193  11.149  0.00  0.00    +0.000 OA
ATOM     27  H   UNL     1      43.076   4.865   9.359  0.00  0.00    +0.000 HD
ATOM     28  H   UNL     1      44.481   5.724   9.885  0.00  0.00    +0.000 HD
ENDBRANCH  18  25
ENDBRANCH  17  21
ENDBRANCH  16  17
ENDBRANCH   1  16
TORSDOF 6
ENDMDL
