MODEL 1
REMARK VINA RESULT:    -7.477      0.000      0.000
REMARK INTER + INTRA:         -10.704
REMARK INTER:                  -9.663
REMARK INTRA:                  -1.042
REMARK UNBOUND:                -1.042
REMARK  Name = 
REMARK  6 active torsions:
REMARK  status: ('A' for Active; 'I' for Inactive)
REMARK    1  A    between atoms: C_1  and  O_2
REMARK    2  A    between atoms: O_2  and  C_3
REMARK    3  A    between atoms: C_7  and  O_8
REMARK    4  A    between atoms: O_8  and  C_9
REMARK    5  A    between atoms: C_9  and  C_10
REMARK    6  A    between atoms: C_14  and  C_15
REMARK                            x       y       z     vdW  Elec       q    Type
REMARK                         _______ _______ _______ _____ _____    ______ ____
ROOT
ATOM      1  C   UNL     1      46.211   7.364  12.308  0.00  0.00    +0.000 C 
ATOM      2  C   UNL     1      46.252   8.789  11.751  0.00  0.00    +0.000 C 
ATOM      3  C   UNL     1      45.591   8.531  13.059  0.00  0.00    +0.000 C 
ENDROOT
BRANCH   1   4
ATOM      4  C   UNL     1      45.278   6.358  11.643  0.00  0.00    +0.000 A 
ATOM      5  C   UNL     1      43.886   6.410  11.808  0.00  0.00    +0.000 A 
ATOM      6  C   UNL     1      43.035   5.544  11.121  0.00  0.00    +0.000 A 
ATOM      7  C   UNL     1      43.563   4.615  10.227  0.00  0.00    +0.000 A 
ATOM      8  C   UNL     1      44.945   4.521  10.011  0.00  0.00    +0.000 A 
ATOM      9  C   UNL     1      45.776   5.373  10.767  0.00  0.00    +0.000 A 
BRANCH   8  10
ATOM     10  C   UNL     1      45.517   3.637   8.970  0.00  0.00    +0.000 A 
ATOM     11  C   UNL     1      46.195   4.177   7.861  0.00  0.00    +0.000 A 
ATOM     12  C   UNL     1      46.814   3.360   6.912  0.00  0.00    +0.000 A 
ATOM     13  C   UNL     1      46.775   1.977   7.056  0.00  0.00    +0.000 A 
ATOM     14  C   UNL     1      46.105   1.414   8.138  0.00  0.00    +0.000 A 
ATOM     15  C   UNL     1      45.476   2.236   9.079  0.00  0.00    +0.000 A 
ENDBRANCH   8  10
ENDBRANCH   1   4
BRANCH   1  16
ATOM     16  O   UNL     1      47.548   6.915  12.643  0.00  0.00    +0.000 OA
BRANCH  16  21
ATOM     17  C   UNL     1      47.453   4.621  15.547  0.00  0.00    +0.000 A 
ATOM     18  C   UNL     1      48.437   5.263  16.291  0.00  0.00    +0.000 A 
ATOM     19  N   UNL     1      49.111   6.355  15.862  0.00  0.00    +0.000 NA
ATOM     20  C   UNL     1      48.770   6.831  14.640  0.00  0.00    +0.000 A 
ATOM     21  C   UNL     1      47.785   6.281  13.831  0.00  0.00    +0.000 A 
ATOM     22  C   UNL     1      47.111   5.163  14.308  0.00  0.00    +0.000 A 
BRANCH  17  24
ATOM     23  C   UNL     1      47.295   3.217  17.425  0.00  0.00    +0.000 C 
ATOM     24  O   UNL     1      46.851   3.527  16.105  0.00  0.00    +0.000 OA
ENDBRANCH  17  24
ENDBRANCH  16  21
ENDBRANCH   1  16
TORSDOF 5
ENDMDL
MODEL 2
REMARK VINA RESULT:    -7.000      2.893      5.244
REMARK INTER + INTRA:         -10.088
REMARK INTER:                  -9.010
REMARK INTRA:                  -1.078
REMARK UNBOUND:                -1.042
REMARK  Name = 
REMARK  6 active torsions:
REMARK  status: ('A' for Active; 'I' for Inactive)
REMARK    1  A    between atoms: C_1  and  O_2
REMARK    2  A    between atoms: O_2  and  C_3
REMARK    3  A    between atoms: C_7  and  O_8
REMARK    4  A    between atoms: O_8  and  C_9
REMARK    5  A    between atoms: C_9  and  C_10
REMARK    6  A    between atoms: C_14  and  C_15
REMARK                            x       y       z     vdW  Elec       q    Type
REMARK                         _______ _______ _______ _____ _____    ______ ____
ROOT
ATOM      1  C   UNL     1      45.872   7.478  12.256  0.00  0.00    +0.000 C 
ATOM      2  C   UNL     1      46.954   7.173  13.294  0.00  0.00    +0.000 C 
ATOM      3  C   UNL     1      47.350   7.546  11.909  0.00  0.00    +0.000 C 
ENDROOT
BRANCH   1   4
ATOM      4  C   UNL     1      45.055   6.315  11.704  0.00  0.00    +0.000 A 
ATOM      5  C   UNL     1      43.699   6.139  12.020  0.00  0.00    +0.000 A 
ATOM      6  C   UNL     1      42.938   5.127  11.436  0.00  0.00    +0.000 A 
ATOM      7  C   UNL     1      43.515   4.276  10.496  0.00  0.00    +0.000 A 
ATOM      8  C   UNL     1      44.863   4.408  10.130  0.00  0.00    +0.000 A 
ATOM      9  C   UNL     1      45.615   5.405  10.785  0.00  0.00    +0.000 A 
BRANCH   8  10
ATOM     10  C   UNL     1      45.460   3.606   9.039  0.00  0.00    +0.000 A 
ATOM     11  C   UNL     1      46.069   4.234   7.935  0.00  0.00    +0.000 A 
ATOM     12  C   UNL     1      46.712   3.498   6.938  0.00  0.00    +0.000 A 
ATOM     13  C   UNL     1      46.767   2.111   7.024  0.00  0.00    +0.000 A 
ATOM     14  C   UNL     1      46.166   1.462   8.099  0.00  0.00    +0.000 A 
ATOM     15  C   UNL     1      45.514   2.202   9.090  0.00  0.00    +0.000 A 
ENDBRANCH   8  10
ENDBRANCH   1   4
BRANCH   1  16
ATOM     16  O   UNL     1      45.155   8.686  12.614  0.00  0.00    +0.000 OA
BRANCH  16  21
ATOM     17  C   UNL     1      43.891  10.684   9.766  0.00  0.00    +0.000 A 
ATOM     18  C   UNL     1      44.773  11.748   9.911  0.00  0.00    +0.000 A 
ATOM     19  N   UNL     1      45.702  11.826  10.893  0.00  0.00    +0.000 NA
ATOM     20  C   UNL     1      45.754  10.782  11.755  0.00  0.00    +0.000 A 
ATOM     21  C   UNL     1      44.937   9.662  11.680  0.00  0.00    +0.000 A 
ATOM     22  C   UNL     1      44.001   9.616  10.655  0.00  0.00    +0.000 A 
BRANCH  17  24
ATOM     23  C   UNL     1      43.605  10.927   7.445  0.00  0.00    +0.000 C 
ATOM     24  O   UNL     1      43.004  10.735   8.725  0.00  0.00    +0.000 OA
ENDBRANCH  17  24
ENDBRANCH  16  21
ENDBRANCH   1  16
TORSDOF 5
ENDMDL
MODEL 3
REMARK VINA RESULT:    -6.864      2.832      7.084
REMARK INTER + INTRA:          -9.912
REMARK INTER:                 -10.000
REMARK INTRA:                   0.088
REMARK UNBOUND:                -1.042
REMARK  Name = 
REMARK  6 active torsions:
REMARK  status: ('A' for Active; 'I' for Inactive)
REMARK    1  A    between atoms: C_1  and  O_2
REMARK    2  A    between atoms: O_2  and  C_3
REMARK    3  A    between atoms: C_7  and  O_8
REMARK    4  A    between atoms: O_8  and  C_9
REMARK    5  A    between atoms: C_9  and  C_10
REMARK    6  A    between atoms: C_14  and  C_15
REMARK                            x       y       z     vdW  Elec       q    Type
REMARK                         _______ _______ _______ _____ _____    ______ ____
ROOT
ATOM      1  C   UNL     1      44.096   4.677  11.667  0.00  0.00    +0.000 C 
ATOM      2  C   UNL     1      43.552   3.403  12.318  0.00  0.00    +0.000 C 
ATOM      3  C   UNL     1      42.923   4.714  12.633  0.00  0.00    +0.000 C 
ENDROOT
BRANCH   1   4
ATOM      4  C   UNL     1      45.440   5.212  12.146  0.00  0.00    +0.000 A 
ATOM      5  C   UNL     1      46.120   6.235  11.467  0.00  0.00    +0.000 A 
ATOM      6  C   UNL     1      47.303   6.783  11.966  0.00  0.00    +0.000 A 
ATOM      7  C   UNL     1      47.822   6.331  13.177  0.00  0.00    +0.000 A 
ATOM      8  C   UNL     1      47.182   5.319  13.907  0.00  0.00    +0.000 A 
ATOM      9  C   UNL     1      46.022   4.750  13.343  0.00  0.00    +0.000 A 
BRANCH   8  10
ATOM     10  C   UNL     1      47.640   4.919  15.257  0.00  0.00    +0.000 A 
ATOM     11  C   UNL     1      48.407   5.798  16.046  0.00  0.00    +0.000 A 
ATOM     12  C   UNL     1      48.777   5.473  17.353  0.00  0.00    +0.000 A 
ATOM     13  C   UNL     1      48.381   4.261  17.907  0.00  0.00    +0.000 A 
ATOM     14  C   UNL     1      47.629   3.368  17.148  0.00  0.00    +0.000 A 
ATOM     15  C   UNL     1      47.270   3.692  15.836  0.00  0.00    +0.000 A 
ENDBRANCH   8  10
ENDBRANCH   1   4
BRANCH   1  16
ATOM     16  O   UNL     1      43.857   4.655  10.238  0.00  0.00    +0.000 OA
BRANCH  16  21
ATOM     17  C   UNL     1      45.813   2.045   8.489  0.00  0.00    +0.000 A 
ATOM     18  C   UNL     1      46.529   2.905   7.664  0.00  0.00    +0.000 A 
ATOM     19  N   UNL     1      46.364   4.248   7.655  0.00  0.00    +0.000 NA
ATOM     20  C   UNL     1      45.451   4.748   8.523  0.00  0.00    +0.000 A 
ATOM     21  C   UNL     1      44.705   3.978   9.406  0.00  0.00    +0.000 A 
ATOM     22  C   UNL     1      44.907   2.604   9.389  0.00  0.00    +0.000 A 
BRANCH  17  24
ATOM     23  C   UNL     1      46.964   0.356   7.328  0.00  0.00    +0.000 C 
ATOM     24  O   UNL     1      46.084   0.707   8.394  0.00  0.00    +0.000 OA
ENDBRANCH  17  24
ENDBRANCH  16  21
ENDBRANCH   1  16
TORSDOF 5
ENDMDL
MODEL 4
REMARK VINA RESULT:    -6.715      1.636      2.228
REMARK INTER + INTRA:          -9.719
REMARK INTER:                  -8.889
REMARK INTRA:                  -0.830
REMARK UNBOUND:                -1.042
REMARK  Name = 
REMARK  6 active torsions:
REMARK  status: ('A' for Active; 'I' for Inactive)
REMARK    1  A    between atoms: C_1  and  O_2
REMARK    2  A    between atoms: O_2  and  C_3
REMARK    3  A    between atoms: C_7  and  O_8
REMARK    4  A    between atoms: O_8  and  C_9
REMARK    5  A    between atoms: C_9  and  C_10
REMARK    6  A    between atoms: C_14  and  C_15
REMARK                            x       y       z     vdW  Elec       q    Type
REMARK                         _______ _______ _______ _____ _____    ______ ____
ROOT
ATOM      1  C   UNL     1      45.498   5.596  11.951  0.00  0.00    +0.000 C 
ATOM      2  C   UNL     1      45.005   6.923  11.369  0.00  0.00    +0.000 C 
ATOM      3  C   UNL     1      44.428   6.422  12.646  0.00  0.00    +0.000 C 
ENDROOT
BRANCH   1   4
ATOM      4  C   UNL     1      45.075   4.305  11.260  0.00  0.00    +0.000 A 
ATOM      5  C   UNL     1      43.953   3.571  11.672  0.00  0.00    +0.000 A 
ATOM      6  C   UNL     1      43.519   2.443  10.974  0.00  0.00    +0.000 A 
ATOM      7  C   UNL     1      44.192   2.036   9.824  0.00  0.00    +0.000 A 
ATOM      8  C   UNL     1      45.314   2.735   9.355  0.00  0.00    +0.000 A 
ATOM      9  C   UNL     1      45.757   3.834  10.119  0.00  0.00    +0.000 A 
BRANCH   8  10
ATOM     10  C   UNL     1      45.961   2.402   8.066  0.00  0.00    +0.000 A 
ATOM     11  C   UNL     1      46.074   3.369   7.048  0.00  0.00    +0.000 A 
ATOM     12  C   UNL     1      46.755   3.101   5.858  0.00  0.00    +0.000 A 
ATOM     13  C   UNL     1      47.346   1.858   5.660  0.00  0.00    +0.000 A 
ATOM     14  C   UNL     1      47.243   0.880   6.644  0.00  0.00    +0.000 A 
ATOM     15  C   UNL     1      46.551   1.148   7.830  0.00  0.00    +0.000 A 
ENDBRANCH   8  10
ENDBRANCH   1   4
BRANCH   1  16
ATOM     16  O   UNL     1      46.883   5.709  12.364  0.00  0.00    +0.000 OA
BRANCH  16  21
ATOM     17  C   UNL     1      48.220   5.699  15.816  0.00  0.00    +0.000 A 
ATOM     18  C   UNL     1      47.945   4.364  16.091  0.00  0.00    +0.000 A 
ATOM     19  N   UNL     1      47.334   3.527  15.221  0.00  0.00    +0.000 NA
ATOM     20  C   UNL     1      47.001   4.051  14.016  0.00  0.00    +0.000 A 
ATOM     21  C   UNL     1      47.255   5.362  13.633  0.00  0.00    +0.000 A 
ATOM     22  C   UNL     1      47.889   6.188  14.553  0.00  0.00    +0.000 A 
BRANCH  17  24
ATOM     23  C   UNL     1      48.895   5.794  18.065  0.00  0.00    +0.000 C 
ATOM     24  O   UNL     1      48.845   6.429  16.789  0.00  0.00    +0.000 OA
ENDBRANCH  17  24
ENDBRANCH  16  21
ENDBRANCH   1  16
TORSDOF 5
ENDMDL
MODEL 5
REMARK VINA RESULT:    -6.571      1.745      2.876
REMARK INTER + INTRA:          -9.533
REMARK INTER:                  -8.637
REMARK INTRA:                  -0.896
REMARK UNBOUND:                -1.042
REMARK  Name = 
REMARK  6 active torsions:
REMARK  status: ('A' for Active; 'I' for Inactive)
REMARK    1  A    between atoms: C_1  and  O_2
REMARK    2  A    between atoms: O_2  and  C_3
REMARK    3  A    between atoms: C_7  and  O_8
REMARK    4  A    between atoms: O_8  and  C_9
REMARK    5  A    between atoms: C_9  and  C_10
REMARK    6  A    between atoms: C_14  and  C_15
REMARK                            x       y       z     vdW  Elec       q    Type
REMARK                         _______ _______ _______ _____ _____    ______ ____
ROOT
ATOM      1  C   UNL     1      48.293   7.217  13.856  0.00  0.00    +0.000 C 
ATOM      2  C   UNL     1      49.501   7.997  13.332  0.00  0.00    +0.000 C 
ATOM      3  C   UNL     1      48.767   8.495  14.527  0.00  0.00    +0.000 C 
ENDROOT
BRANCH   1   4
ATOM      4  C   UNL     1      47.000   7.264  13.049  0.00  0.00    +0.000 A 
ATOM      5  C   UNL     1      46.231   8.433  12.940  0.00  0.00    +0.000 A 
ATOM      6  C   UNL     1      45.102   8.492  12.123  0.00  0.00    +0.000 A 
ATOM      7  C   UNL     1      44.728   7.380  11.372  0.00  0.00    +0.000 A 
ATOM      8  C   UNL     1      45.462   6.187  11.429  0.00  0.00    +0.000 A 
ATOM      9  C   UNL     1      46.562   6.147  12.310  0.00  0.00    +0.000 A 
BRANCH   8  10
ATOM     10  C   UNL     1      45.164   5.041  10.541  0.00  0.00    +0.000 A 
ATOM     11  C   UNL     1      45.571   5.051   9.193  0.00  0.00    +0.000 A 
ATOM     12  C   UNL     1      45.374   3.946   8.361  0.00  0.00    +0.000 A 
ATOM     13  C   UNL     1      44.769   2.799   8.862  0.00  0.00    +0.000 A 
ATOM     14  C   UNL     1      44.349   2.762  10.188  0.00  0.00    +0.000 A 
ATOM     15  C   UNL     1      44.537   3.874  11.015  0.00  0.00    +0.000 A 
ENDBRANCH   8  10
ENDBRANCH   1   4
BRANCH   1  16
ATOM     16  O   UNL     1      48.709   5.929  14.373  0.00  0.00    +0.000 OA
BRANCH  16  21
ATOM     17  C   UNL     1      48.081   5.381  17.980  0.00  0.00    +0.000 A 
ATOM     18  C   UNL     1      47.161   4.351  17.829  0.00  0.00    +0.000 A 
ATOM     19  N   UNL     1      46.746   3.883  16.628  0.00  0.00    +0.000 NA
ATOM     20  C   UNL     1      47.293   4.467  15.534  0.00  0.00    +0.000 A 
ATOM     21  C   UNL     1      48.238   5.483  15.577  0.00  0.00    +0.000 A 
ATOM     22  C   UNL     1      48.643   5.932  16.828  0.00  0.00    +0.000 A 
BRANCH  17  24
ATOM     23  C   UNL     1      48.735   4.666  20.121  0.00  0.00    +0.000 C 
ATOM     24  O   UNL     1      48.412   5.752  19.254  0.00  0.00    +0.000 OA
ENDBRANCH  17  24
ENDBRANCH  16  21
ENDBRANCH   1  16
TORSDOF 5
ENDMDL
MODEL 6
REMARK VINA RESULT:    -6.454      1.737      2.412
REMARK INTER + INTRA:          -9.382
REMARK INTER:                  -8.688
REMARK INTRA:                  -0.694
REMARK UNBOUND:                -1.042
REMARK  Name = 
REMARK  6 active torsions:
REMARK  status: ('A' for Active; 'I' for Inactive)
REMARK    1  A    between atoms: C_1  and  O_2
REMARK    2  A    between atoms: O_2  and  C_3
REMARK    3  A    between atoms: C_7  and  O_8
REMARK    4  A    between atoms: O_8  and  C_9
REMARK    5  A    between atoms: C_9  and  C_10
REMARK    6  A    between atoms: C_14  and  C_15
REMARK                            x       y       z     vdW  Elec       q    Type
REMARK                         _______ _______ _______ _____ _____    ______ ____
ROOT
ATOM      1  C   UNL     1      45.407   6.206  11.482  0.00  0.00    +0.000 C 
ATOM      2  C   UNL     1      44.407   7.341  11.250  0.00  0.00    +0.000 C 
ATOM      3  C   UNL     1      44.570   6.774  12.616  0.00  0.00    +0.000 C 
ENDROOT
BRANCH   1   4
ATOM      4  C   UNL     1      45.058   4.820  10.954  0.00  0.00    +0.000 A 
ATOM      5  C   UNL     1      43.967   4.087  11.445  0.00  0.00    +0.000 A 
ATOM      6  C   UNL     1      43.600   2.861  10.890  0.00  0.00    +0.000 A 
ATOM      7  C   UNL     1      44.309   2.348   9.806  0.00  0.00    +0.000 A 
ATOM      8  C   UNL     1      45.402   3.038   9.263  0.00  0.00    +0.000 A 
ATOM      9  C   UNL     1      45.779   4.245   9.887  0.00  0.00    +0.000 A 
BRANCH   8  10
ATOM     10  C   UNL     1      46.083   2.581   8.031  0.00  0.00    +0.000 A 
ATOM     11  C   UNL     1      46.561   1.261   7.921  0.00  0.00    +0.000 A 
ATOM     12  C   UNL     1      47.131   0.785   6.738  0.00  0.00    +0.000 A 
ATOM     13  C   UNL     1      47.230   1.620   5.630  0.00  0.00    +0.000 A 
ATOM     14  C   UNL     1      46.774   2.932   5.711  0.00  0.00    +0.000 A 
ATOM     15  C   UNL     1      46.215   3.408   6.901  0.00  0.00    +0.000 A 
ENDBRANCH   8  10
ENDBRANCH   1   4
BRANCH   1  16
ATOM     16  O   UNL     1      46.762   6.678  11.275  0.00  0.00    +0.000 OA
BRANCH  16  21
ATOM     17  C   UNL     1      48.597   6.400  14.478  0.00  0.00    +0.000 A 
ATOM     18  C   UNL     1      49.296   7.596  14.368  0.00  0.00    +0.000 A 
ATOM     19  N   UNL     1      49.201   8.427  13.304  0.00  0.00    +0.000 NA
ATOM     20  C   UNL     1      48.354   8.046  12.317  0.00  0.00    +0.000 A 
ATOM     21  C   UNL     1      47.592   6.886  12.342  0.00  0.00    +0.000 A 
ATOM     22  C   UNL     1      47.713   6.061  13.454  0.00  0.00    +0.000 A 
BRANCH  17  24
ATOM     23  C   UNL     1      49.695   6.234  16.550  0.00  0.00    +0.000 C 
ATOM     24  O   UNL     1      48.788   5.658  15.611  0.00  0.00    +0.000 OA
ENDBRANCH  17  24
ENDBRANCH  16  21
ENDBRANCH   1  16
TORSDOF 5
ENDMDL
MODEL 7
REMARK VINA RESULT:    -6.170      1.673      2.879
REMARK INTER + INTRA:          -9.015
REMARK INTER:                  -7.967
REMARK INTRA:                  -1.048
REMARK UNBOUND:                -1.042
REMARK  Name = 
REMARK  6 active torsions:
REMARK  status: ('A' for Active; 'I' for Inactive)
REMARK    1  A    between atoms: C_1  and  O_2
REMARK    2  A    between atoms: O_2  and  C_3
REMARK    3  A    between atoms: C_7  and  O_8
REMARK    4  A    between atoms: O_8  and  C_9
REMARK    5  A    between atoms: C_9  and  C_10
REMARK    6  A    between atoms: C_14  and  C_15
REMARK                            x       y       z     vdW  Elec       q    Type
REMARK                         _______ _______ _______ _____ _____    ______ ____
ROOT
ATOM      1  C   UNL     1      49.062   7.652  13.522  0.00  0.00    +0.000 C 
ATOM      2  C   UNL     1      50.122   7.974  12.465  0.00  0.00    +0.000 C 
ATOM      3  C   UNL     1      49.756   9.004  13.475  0.00  0.00    +0.000 C 
ENDROOT
BRANCH   1   4
ATOM      4  C   UNL     1      47.605   7.576  13.080  0.00  0.00    +0.000 A 
ATOM      5  C   UNL     1      46.702   8.627  13.302  0.00  0.00    +0.000 A 
ATOM      6  C   UNL     1      45.397   8.585  12.810  0.00  0.00    +0.000 A 
ATOM      7  C   UNL     1      44.972   7.492  12.058  0.00  0.00    +0.000 A 
ATOM      8  C   UNL     1      45.830   6.416  11.794  0.00  0.00    +0.000 A 
ATOM      9  C   UNL     1      47.122   6.467  12.356  0.00  0.00    +0.000 A 
BRANCH   8  10
ATOM     10  C   UNL     1      45.445   5.311  10.887  0.00  0.00    +0.000 A 
ATOM     11  C   UNL     1      45.727   5.379   9.509  0.00  0.00    +0.000 A 
ATOM     12  C   UNL     1      45.447   4.313   8.652  0.00  0.00    +0.000 A 
ATOM     13  C   UNL     1      44.883   3.146   9.155  0.00  0.00    +0.000 A 
ATOM     14  C   UNL     1      44.585   3.053  10.512  0.00  0.00    +0.000 A 
ATOM     15  C   UNL     1      44.856   4.127  11.365  0.00  0.00    +0.000 A 
ENDBRANCH   8  10
ENDBRANCH   1   4
BRANCH   1  16
ATOM     16  O   UNL     1      49.542   6.622  14.421  0.00  0.00    +0.000 OA
BRANCH  16  21
ATOM     17  C   UNL     1      47.784   5.415  17.446  0.00  0.00    +0.000 A 
ATOM     18  C   UNL     1      47.998   6.550  18.221  0.00  0.00    +0.000 A 
ATOM     19  N   UNL     1      48.699   7.628  17.797  0.00  0.00    +0.000 NA
ATOM     20  C   UNL     1      49.189   7.568  16.535  0.00  0.00    +0.000 A 
ATOM     21  C   UNL     1      49.008   6.495  15.673  0.00  0.00    +0.000 A 
ATOM     22  C   UNL     1      48.279   5.409  16.143  0.00  0.00    +0.000 A 
BRANCH  17  24
ATOM     23  C   UNL     1      47.295   3.117  17.425  0.00  0.00    +0.000 C 
ATOM     24  O   UNL     1      47.055   4.399  18.001  0.00  0.00    +0.000 OA
ENDBRANCH  17  24
ENDBRANCH  16  21
ENDBRANCH   1  16
TORSDOF 5
ENDMDL
MODEL 8
REMARK VINA RESULT:    -5.869      2.393      6.933
REMARK INTER + INTRA:          -8.626
REMARK INTER:                  -7.854
REMARK INTRA:                  -0.772
REMARK UNBOUND:                -1.042
REMARK  Name = 
REMARK  6 active torsions:
REMARK  status: ('A' for Active; 'I' for Inactive)
REMARK    1  A    between atoms: C_1  and  O_2
REMARK    2  A    between atoms: O_2  and  C_3
REMARK    3  A    between atoms: C_7  and  O_8
REMARK    4  A    between atoms: O_8  and  C_9
REMARK    5  A    between atoms: C_9  and  C_10
REMARK    6  A    between atoms: C_14  and  C_15
REMARK                            x       y       z     vdW  Elec       q    Type
REMARK                         _______ _______ _______ _____ _____    ______ ____
ROOT
ATOM      1  C   UNL     1      47.555   7.971  12.774  0.00  0.00    +0.000 C 
ATOM      2  C   UNL     1      47.997   9.135  11.884  0.00  0.00    +0.000 C 
ATOM      3  C   UNL     1      48.554   7.776  11.645  0.00  0.00    +0.000 C 
ENDROOT
BRANCH   1   4
ATOM      4  C   UNL     1      48.072   7.925  14.208  0.00  0.00    +0.000 A 
ATOM      5  C   UNL     1      48.073   9.058  15.037  0.00  0.00    +0.000 A 
ATOM      6  C   UNL     1      48.459   8.984  16.375  0.00  0.00    +0.000 A 
ATOM      7  C   UNL     1      48.833   7.759  16.924  0.00  0.00    +0.000 A 
ATOM      8  C   UNL     1      48.842   6.590  16.150  0.00  0.00    +0.000 A 
ATOM      9  C   UNL     1      48.502   6.715  14.788  0.00  0.00    +0.000 A 
BRANCH   8  10
ATOM     10  C   UNL     1      49.104   5.260  16.744  0.00  0.00    +0.000 A 
ATOM     11  C   UNL     1      48.149   4.229  16.651  0.00  0.00    +0.000 A 
ATOM     12  C   UNL     1      48.410   2.944  17.130  0.00  0.00    +0.000 A 
ATOM     13  C   UNL     1      49.641   2.655  17.710  0.00  0.00    +0.000 A 
ATOM     14  C   UNL     1      50.602   3.655  17.824  0.00  0.00    +0.000 A 
ATOM     15  C   UNL     1      50.332   4.944  17.353  0.00  0.00    +0.000 A 
ENDBRANCH   8  10
ENDBRANCH   1   4
BRANCH   1  16
ATOM     16  O   UNL     1      46.153   7.675  12.561  0.00  0.00    +0.000 OA
BRANCH  16  21
ATOM     17  C   UNL     1      45.163   4.604  10.746  0.00  0.00    +0.000 A 
ATOM     18  C   UNL     1      44.887   3.834  11.870  0.00  0.00    +0.000 A 
ATOM     19  N   UNL     1      45.044   4.276  13.140  0.00  0.00    +0.000 NA
ATOM     20  C   UNL     1      45.480   5.550  13.285  0.00  0.00    +0.000 A 
ATOM     21  C   UNL     1      45.757   6.409  12.229  0.00  0.00    +0.000 A 
ATOM     22  C   UNL     1      45.579   5.921  10.940  0.00  0.00    +0.000 A 
BRANCH  17  24
ATOM     23  C   UNL     1      44.402   2.718   9.568  0.00  0.00    +0.000 C 
ATOM     24  O   UNL     1      44.958   4.031   9.521  0.00  0.00    +0.000 OA
ENDBRANCH  17  24
ENDBRANCH  16  21
ENDBRANCH   1  16
TORSDOF 5
ENDMDL
MODEL 9
REMARK VINA RESULT:    -5.591      2.940      5.270
REMARK INTER + INTRA:          -8.267
REMARK INTER:                  -7.303
REMARK INTRA:                  -0.964
REMARK UNBOUND:                -1.042
REMARK  Name = 
REMARK  6 active torsions:
REMARK  status: ('A' for Active; 'I' for Inactive)
REMARK    1  A    between atoms: C_1  and  O_2
REMARK    2  A    between atoms: O_2  and  C_3
REMARK    3  A    between atoms: C_7  and  O_8
REMARK    4  A    between atoms: O_8  and  C_9
REMARK    5  A    between atoms: C_9  and  C_10
REMARK    6  A    between atoms: C_14  and  C_15
REMARK                            x       y       z     vdW  Elec       q    Type
REMARK                         _______ _______ _______ _____ _____    ______ ____
ROOT
ATOM      1  C   UNL     1      49.050   7.787  17.117  0.00  0.00    +0.000 C 
ATOM      2  C   UNL     1      49.431   9.117  17.771  0.00  0.00    +0.000 C 
ATOM      3  C   UNL     1      47.999   8.720  17.694  0.00  0.00    +0.000 C 
ENDROOT
BRANCH   1   4
ATOM      4  C   UNL     1      49.158   7.673  15.601  0.00  0.00    +0.000 A 
ATOM      5  C   UNL     1      50.319   8.046  14.906  0.00  0.00    +0.000 A 
ATOM      6  C   UNL     1      50.442   7.849  13.530  0.00  0.00    +0.000 A 
ATOM      7  C   UNL     1      49.407   7.249  12.818  0.00  0.00    +0.000 A 
ATOM      8  C   UNL     1      48.226   6.845  13.457  0.00  0.00    +0.000 A 
ATOM      9  C   UNL     1      48.115   7.112  14.837  0.00  0.00    +0.000 A 
BRANCH   8  10
ATOM     10  C   UNL     1      47.172   6.085  12.748  0.00  0.00    +0.000 A 
ATOM     11  C   UNL     1      46.594   4.941  13.332  0.00  0.00    +0.000 A 
ATOM     12  C   UNL     1      45.541   4.260  12.718  0.00  0.00    +0.000 A 
ATOM     13  C   UNL     1      45.035   4.712  11.504  0.00  0.00    +0.000 A 
ATOM     14  C   UNL     1      45.591   5.834  10.899  0.00  0.00    +0.000 A 
ATOM     15  C   UNL     1      46.653   6.507  11.511  0.00  0.00    +0.000 A 
ENDBRANCH   8  10
ENDBRANCH   1   4
BRANCH   1  16
ATOM     16  O   UNL     1      49.544   6.676  17.906  0.00  0.00    +0.000 OA
BRANCH  16  21
ATOM     17  C   UNL     1      49.149   3.091  17.071  0.00  0.00    +0.000 A 
ATOM     18  C   UNL     1      47.786   3.013  17.334  0.00  0.00    +0.000 A 
ATOM     19  N   UNL     1      47.047   4.054  17.785  0.00  0.00    +0.000 NA
ATOM     20  C   UNL     1      47.704   5.226  17.963  0.00  0.00    +0.000 A 
ATOM     21  C   UNL     1      49.055   5.414  17.705  0.00  0.00    +0.000 A 
ATOM     22  C   UNL     1      49.779   4.324  17.238  0.00  0.00    +0.000 A 
BRANCH  17  24
ATOM     23  C   UNL     1      51.040   1.702  17.217  0.00  0.00    +0.000 C 
ATOM     24  O   UNL     1      49.771   1.961  16.618  0.00  0.00    +0.000 OA
ENDBRANCH  17  24
ENDBRANCH  16  21
ENDBRANCH   1  16
TORSDOF 5
ENDMDL
