MODEL 1
REMARK VINA RESULT:    -8.061      0.000      0.000
REMARK INTER + INTRA:         -11.933
REMARK INTER:                 -10.889
REMARK INTRA:                  -1.044
REMARK UNBOUND:                -1.044
REMARK  Name = 
REMARK  7 active torsions:
REMARK  status: ('A' for Active; 'I' for Inactive)
REMARK    1  A    between atoms: C_1  and  C_2
REMARK    2  A    between atoms: C_6  and  C_7
REMARK    3  A    between atoms: N_9  and  C_10
REMARK    4  A    between atoms: C_10  and  C_11
REMARK    5  A    between atoms: C_14  and  C_15
REMARK    6  A    between atoms: C_15  and  N_16
REMARK    7  A    between atoms: C_17  and  C_19
REMARK                            x       y       z     vdW  Elec       q    Type
REMARK                         _______ _______ _______ _____ _____    ______ ____
ROOT
ATOM      1  C   UNL     1      44.890   6.045  11.118  0.00  0.00    +0.000 A 
ATOM      2  C   UNL     1      46.083   5.533  11.645  0.00  0.00    +0.000 A 
ATOM      3  C   UNL     1      46.891   6.311  12.485  0.00  0.00    +0.000 A 
ATOM      4  C   UNL     1      46.512   7.613  12.835  0.00  0.00    +0.000 A 
ATOM      5  C   UNL     1      45.325   8.130  12.297  0.00  0.00    +0.000 A 
ATOM      6  C   UNL     1      44.515   7.351  11.460  0.00  0.00    +0.000 A 
ENDROOT
BRANCH   1   7
ATOM      7  C   UNL     1      44.052   5.220  10.175  0.00  0.00    +0.000 C 
BRANCH   7  10
ATOM      8  C   UNL     1      44.807   3.048   9.322  0.00  0.00    +0.000 C 
ATOM      9  O   UNL     1      44.148   2.424  10.147  0.00  0.00    +0.000 OA
ATOM     10  N   UNL     1      44.825   4.429   9.254  0.00  0.00    +0.000 N 
ATOM     11  H   UNL     1      45.414   4.857   8.546  0.00  0.00    +0.000 HD
BRANCH   8  17
ATOM     12  C   UNL     1      47.322   3.034   4.984  0.00  0.00    +0.000 C 
ATOM     13  C   UNL     1      46.858   2.338   6.228  0.00  0.00    +0.000 A 
ATOM     14  C   UNL     1      47.196   1.009   6.489  0.00  0.00    +0.000 A 
ATOM     15  C   UNL     1      46.737   0.417   7.659  0.00  0.00    +0.000 A 
ATOM     16  N   UNL     1      45.970   1.042   8.575  0.00  0.00    +0.000 NA
ATOM     17  C   UNL     1      45.652   2.338   8.305  0.00  0.00    +0.000 A 
ATOM     18  C   UNL     1      46.065   3.015   7.159  0.00  0.00    +0.000 A 
ENDBRANCH   8  17
ENDBRANCH   7  10
ENDBRANCH   1   7
BRANCH   4  19
ATOM     19  C   UNL     1      47.355   8.456  13.760  0.00  0.00    +0.000 C 
BRANCH  19  20
ATOM     20  N   UNL     1      47.763   7.728  14.936  0.00  0.00    +0.000 N 
ATOM     21  C   UNL     1      49.030   7.215  15.052  0.00  0.00    +0.000 C 
ATOM     22  O   UNL     1      49.884   7.379  14.184  0.00  0.00    +0.000 OA
ATOM     23  H   UNL     1      47.022   7.355  15.522  0.00  0.00    +0.000 HD
BRANCH  21  24
ATOM     24  C   UNL     1      49.335   6.503  16.302  0.00  0.00    +0.000 A 
ATOM     25  C   UNL     1      50.326   6.984  17.149  0.00  0.00    +0.000 A 
ATOM     26  S   UNL     1      50.508   6.064  18.575  0.00  0.00    +0.000 S 
ATOM     27  C   UNL     1      49.309   4.963  18.083  0.00  0.00    +0.000 A 
ATOM     28  N   UNL     1      48.979   3.889  18.856  0.00  0.00    +0.000 NA
ATOM     29  C   UNL     1      48.072   3.125  18.343  0.00  0.00    +0.000 A 
ATOM     30  N   UNL     1      47.454   3.343  17.140  0.00  0.00    +0.000 N 
ATOM     31  C   UNL     1      47.732   4.428  16.346  0.00  0.00    +0.000 A 
ATOM     32  O   UNL     1      47.118   4.618  15.295  0.00  0.00    +0.000 OA
ATOM     33  C   UNL     1      48.758   5.309  16.864  0.00  0.00    +0.000 A 
ATOM     34  H   UNL     1      46.739   2.714  16.803  0.00  0.00    +0.000 HD
ENDBRANCH  21  24
ENDBRANCH  19  20
ENDBRANCH   4  19
TORSDOF 6
ENDMDL
MODEL 2
REMARK VINA RESULT:    -7.781      2.239      2.669
REMARK INTER + INTRA:         -11.554
REMARK INTER:                 -10.532
REMARK INTRA:                  -1.022
REMARK UNBOUND:                -1.044
REMARK  Name = 
REMARK  7 active torsions:
REMARK  status: ('A' for Active; 'I' for Inactive)
REMARK    1  A    between atoms: C_1  and  C_2
REMARK    2  A    between atoms: C_6  and  C_7
REMARK    3  A    between atoms: N_9  and  C_10
REMARK    4  A    between atoms: C_10  and  C_11
REMARK    5  A    between atoms: C_14  and  C_15
REMARK    6  A    between atoms: C_15  and  N_16
REMARK    7  A    between atoms: C_17  and  C_19
REMARK                            x       y       z     vdW  Elec       q    Type
REMARK                         _______ _______ _______ _____ _____    ______ ____
ROOT
ATOM      1  C   UNL     1      45.416   4.571  12.092  0.00  0.00    +0.000 A 
ATOM      2  C   UNL     1      45.932   4.130  13.318  0.00  0.00    +0.000 A 
ATOM      3  C   UNL     1      46.838   4.916  14.043  0.00  0.00    +0.000 A 
ATOM      4  C   UNL     1      47.232   6.173  13.566  0.00  0.00    +0.000 A 
ATOM      5  C   UNL     1      46.726   6.609  12.334  0.00  0.00    +0.000 A 
ATOM      6  C   UNL     1      45.818   5.824  11.612  0.00  0.00    +0.000 A 
ENDROOT
BRANCH   1   7
ATOM      7  C   UNL     1      44.481   3.698  11.295  0.00  0.00    +0.000 C 
BRANCH   7  10
ATOM      8  C   UNL     1      45.180   3.270   8.983  0.00  0.00    +0.000 C 
ATOM      9  O   UNL     1      44.660   4.302   8.569  0.00  0.00    +0.000 OA
ATOM     10  N   UNL     1      45.147   2.885  10.311  0.00  0.00    +0.000 N 
ATOM     11  H   UNL     1      45.592   2.006  10.556  0.00  0.00    +0.000 HD
BRANCH   8  17
ATOM     12  C   UNL     1      47.631   2.426   4.692  0.00  0.00    +0.000 C 
ATOM     13  C   UNL     1      47.082   1.942   6.000  0.00  0.00    +0.000 A 
ATOM     14  C   UNL     1      47.226   0.614   6.406  0.00  0.00    +0.000 A 
ATOM     15  C   UNL     1      46.696   0.225   7.629  0.00  0.00    +0.000 A 
ATOM     16  N   UNL     1      46.035   1.048   8.466  0.00  0.00    +0.000 NA
ATOM     17  C   UNL     1      45.905   2.340   8.056  0.00  0.00    +0.000 A 
ATOM     18  C   UNL     1      46.402   2.823   6.847  0.00  0.00    +0.000 A 
ENDBRANCH   8  17
ENDBRANCH   7  10
ENDBRANCH   1   7
BRANCH   4  19
ATOM     19  C   UNL     1      48.186   7.046  14.346  0.00  0.00    +0.000 C 
BRANCH  19  20
ATOM     20  N   UNL     1      48.102   6.807  15.765  0.00  0.00    +0.000 N 
ATOM     21  C   UNL     1      49.199   6.405  16.485  0.00  0.00    +0.000 C 
ATOM     22  O   UNL     1      50.305   6.264  15.969  0.00  0.00    +0.000 OA
ATOM     23  H   UNL     1      47.175   6.653  16.149  0.00  0.00    +0.000 HD
BRANCH  21  24
ATOM     24  C   UNL     1      48.997   6.205  17.928  0.00  0.00    +0.000 A 
ATOM     25  C   UNL     1      49.391   5.014  18.525  0.00  0.00    +0.000 A 
ATOM     26  S   UNL     1      49.127   4.977  20.211  0.00  0.00    +0.000 S 
ATOM     27  C   UNL     1      48.429   6.528  20.191  0.00  0.00    +0.000 A 
ATOM     28  N   UNL     1      47.954   7.101  21.333  0.00  0.00    +0.000 NA
ATOM     29  C   UNL     1      47.427   8.268  21.161  0.00  0.00    +0.000 A 
ATOM     30  N   UNL     1      47.345   8.920  19.959  0.00  0.00    +0.000 N 
ATOM     31  C   UNL     1      47.838   8.394  18.791  0.00  0.00    +0.000 A 
ATOM     32  O   UNL     1      47.792   9.033  17.738  0.00  0.00    +0.000 OA
ATOM     33  C   UNL     1      48.424   7.076  18.922  0.00  0.00    +0.000 A 
ATOM     34  H   UNL     1      46.933   9.841  19.895  0.00  0.00    +0.000 HD
ENDBRANCH  21  24
ENDBRANCH  19  20
ENDBRANCH   4  19
TORSDOF 6
ENDMDL
MODEL 3
REMARK VINA RESULT:    -7.556      1.568      2.088
REMARK INTER + INTRA:         -11.251
REMARK INTER:                 -10.509
REMARK INTRA:                  -0.741
REMARK UNBOUND:                -1.044
REMARK  Name = 
REMARK  7 active torsions:
REMARK  status: ('A' for Active; 'I' for Inactive)
REMARK    1  A    between atoms: C_1  and  C_2
REMARK    2  A    between atoms: C_6  and  C_7
REMARK    3  A    between atoms: N_9  and  C_10
REMARK    4  A    between atoms: C_10  and  C_11
REMARK    5  A    between atoms: C_14  and  C_15
REMARK    6  A    between atoms: C_15  and  N_16
REMARK    7  A    between atoms: C_17  and  C_19
REMARK                            x       y       z     vdW  Elec       q    Type
REMARK                         _______ _______ _______ _____ _____    ______ ____
ROOT
ATOM      1  C   UNL     1      45.436   6.753  11.920  0.00  0.00    +0.000 A 
ATOM      2  C   UNL     1      46.581   6.123  12.426  0.00  0.00    +0.000 A 
ATOM      3  C   UNL     1      47.477   6.814  13.254  0.00  0.00    +0.000 A 
ATOM      4  C   UNL     1      47.234   8.146  13.612  0.00  0.00    +0.000 A 
ATOM      5  C   UNL     1      46.095   8.780  13.096  0.00  0.00    +0.000 A 
ATOM      6  C   UNL     1      45.199   8.088  12.270  0.00  0.00    +0.000 A 
ENDROOT
BRANCH   1   7
ATOM      7  C   UNL     1      44.505   6.018  10.989  0.00  0.00    +0.000 C 
BRANCH   7  10
ATOM      8  C   UNL     1      44.764   4.000   9.621  0.00  0.00    +0.000 C 
ATOM      9  O   UNL     1      43.812   3.439  10.156  0.00  0.00    +0.000 OA
ATOM     10  N   UNL     1      45.183   5.272   9.961  0.00  0.00    +0.000 N 
ATOM     11  H   UNL     1      45.991   5.648   9.474  0.00  0.00    +0.000 HD
BRANCH   8  17
ATOM     12  C   UNL     1      46.783  -0.127   7.614  0.00  0.00    +0.000 C 
ATOM     13  C   UNL     1      46.512   1.347   7.576  0.00  0.00    +0.000 A 
ATOM     14  C   UNL     1      46.977   2.146   6.530  0.00  0.00    +0.000 A 
ATOM     15  C   UNL     1      46.694   3.506   6.548  0.00  0.00    +0.000 A 
ATOM     16  N   UNL     1      45.997   4.123   7.523  0.00  0.00    +0.000 NA
ATOM     17  C   UNL     1      45.550   3.327   8.534  0.00  0.00    +0.000 A 
ATOM     18  C   UNL     1      45.784   1.955   8.602  0.00  0.00    +0.000 A 
ENDBRANCH   8  17
ENDBRANCH   7  10
ENDBRANCH   1   7
BRANCH   4  19
ATOM     19  C   UNL     1      48.172   8.898  14.525  0.00  0.00    +0.000 C 
BRANCH  19  20
ATOM     20  N   UNL     1      48.029   8.494  15.901  0.00  0.00    +0.000 N 
ATOM     21  C   UNL     1      48.993   7.745  16.528  0.00  0.00    +0.000 C 
ATOM     22  O   UNL     1      50.033   7.416  15.964  0.00  0.00    +0.000 OA
ATOM     23  H   UNL     1      47.090   8.517  16.289  0.00  0.00    +0.000 HD
BRANCH  21  24
ATOM     24  C   UNL     1      48.744   7.405  17.936  0.00  0.00    +0.000 A 
ATOM     25  C   UNL     1      48.399   8.403  18.840  0.00  0.00    +0.000 A 
ATOM     26  S   UNL     1      48.096   7.820  20.415  0.00  0.00    +0.000 S 
ATOM     27  C   UNL     1      48.467   6.225  19.956  0.00  0.00    +0.000 A 
ATOM     28  N   UNL     1      48.428   5.204  20.859  0.00  0.00    +0.000 NA
ATOM     29  C   UNL     1      48.761   4.054  20.374  0.00  0.00    +0.000 A 
ATOM     30  N   UNL     1      49.113   3.826  19.071  0.00  0.00    +0.000 N 
ATOM     31  C   UNL     1      49.136   4.818  18.121  0.00  0.00    +0.000 A 
ATOM     32  O   UNL     1      49.408   4.565  16.946  0.00  0.00    +0.000 OA
ATOM     33  C   UNL     1      48.789   6.135  18.615  0.00  0.00    +0.000 A 
ATOM     34  H   UNL     1      49.348   2.897  18.751  0.00  0.00    +0.000 HD
ENDBRANCH  21  24
ENDBRANCH  19  20
ENDBRANCH   4  19
TORSDOF 6
ENDMDL
MODEL 4
REMARK VINA RESULT:    -7.406      4.267      7.439
REMARK INTER + INTRA:         -11.048
REMARK INTER:                 -10.064
REMARK INTRA:                  -0.984
REMARK UNBOUND:                -1.044
REMARK  Name = 
REMARK  7 active torsions:
REMARK  status: ('A' for Active; 'I' for Inactive)
REMARK    1  A    between atoms: C_1  and  C_2
REMARK    2  A    between atoms: C_6  and  C_7
REMARK    3  A    between atoms: N_9  and  C_10
REMARK    4  A    between atoms: C_10  and  C_11
REMARK    5  A    between atoms: C_14  and  C_15
REMARK    6  A    between atoms: C_15  and  N_16
REMARK    7  A    between atoms: C_17  and  C_19
REMARK                            x       y       z     vdW  Elec       q    Type
REMARK                         _______ _______ _______ _____ _____    ______ ____
ROOT
ATOM      1  C   UNL     1      44.880   9.161  11.796  0.00  0.00    +0.000 A 
ATOM      2  C   UNL     1      45.878   9.067  12.774  0.00  0.00    +0.000 A 
ATOM      3  C   UNL     1      46.347   7.819  13.207  0.00  0.00    +0.000 A 
ATOM      4  C   UNL     1      45.840   6.635  12.654  0.00  0.00    +0.000 A 
ATOM      5  C   UNL     1      44.832   6.729  11.685  0.00  0.00    +0.000 A 
ATOM      6  C   UNL     1      44.366   7.977  11.250  0.00  0.00    +0.000 A 
ENDROOT
BRANCH   1   7
ATOM      7  C   UNL     1      44.346  10.505  11.372  0.00  0.00    +0.000 C 
BRANCH   7  10
ATOM      8  C   UNL     1      41.927  10.908  11.313  0.00  0.00    +0.000 C 
ATOM      9  O   UNL     1      41.848  10.639  10.119  0.00  0.00    +0.000 OA
ATOM     10  N   UNL     1      43.114  10.870  12.022  0.00  0.00    +0.000 N 
ATOM     11  H   UNL     1      43.084  11.124  13.004  0.00  0.00    +0.000 HD
BRANCH   8  17
ATOM     12  C   UNL     1      36.969  10.778  12.041  0.00  0.00    +0.000 C 
ATOM     13  C   UNL     1      38.338  11.232  12.449  0.00  0.00    +0.000 A 
ATOM     14  C   UNL     1      38.535  12.032  13.576  0.00  0.00    +0.000 A 
ATOM     15  C   UNL     1      39.827  12.421  13.904  0.00  0.00    +0.000 A 
ATOM     16  N   UNL     1      40.924  12.083  13.198  0.00  0.00    +0.000 NA
ATOM     17  C   UNL     1      40.713  11.300  12.103  0.00  0.00    +0.000 A 
ATOM     18  C   UNL     1      39.455  10.862  11.695  0.00  0.00    +0.000 A 
ENDBRANCH   8  17
ENDBRANCH   7  10
ENDBRANCH   1   7
BRANCH   4  19
ATOM     19  C   UNL     1      46.351   5.283  13.088  0.00  0.00    +0.000 C 
BRANCH  19  20
ATOM     20  N   UNL     1      46.904   5.314  14.420  0.00  0.00    +0.000 N 
ATOM     21  C   UNL     1      47.347   4.169  15.033  0.00  0.00    +0.000 C 
ATOM     22  O   UNL     1      47.328   3.077  14.472  0.00  0.00    +0.000 OA
ATOM     23  H   UNL     1      46.682   6.126  14.987  0.00  0.00    +0.000 HD
BRANCH  21  24
ATOM     24  C   UNL     1      47.902   4.326  16.386  0.00  0.00    +0.000 A 
ATOM     25  C   UNL     1      47.463   3.504  17.416  0.00  0.00    +0.000 A 
ATOM     26  S   UNL     1      48.252   3.792  18.901  0.00  0.00    +0.000 S 
ATOM     27  C   UNL     1      49.168   5.059  18.232  0.00  0.00    +0.000 A 
ATOM     28  N   UNL     1      50.050   5.768  18.993  0.00  0.00    +0.000 NA
ATOM     29  C   UNL     1      50.653   6.718  18.358  0.00  0.00    +0.000 A 
ATOM     30  N   UNL     1      50.469   7.014  17.033  0.00  0.00    +0.000 N 
ATOM     31  C   UNL     1      49.615   6.306  16.224  0.00  0.00    +0.000 A 
ATOM     32  O   UNL     1      49.515   6.570  15.024  0.00  0.00    +0.000 OA
ATOM     33  C   UNL     1      48.896   5.240  16.889  0.00  0.00    +0.000 A 
ATOM     34  H   UNL     1      50.986   7.761  16.591  0.00  0.00    +0.000 HD
ENDBRANCH  21  24
ENDBRANCH  19  20
ENDBRANCH   4  19
TORSDOF 6
ENDMDL
MODEL 5
REMARK VINA RESULT:    -7.368      1.321      1.675
REMARK INTER + INTRA:         -10.996
REMARK INTER:                  -9.911
REMARK INTRA:                  -1.085
REMARK UNBOUND:                -1.044
REMARK  Name = 
REMARK  7 active torsions:
REMARK  status: ('A' for Active; 'I' for Inactive)
REMARK    1  A    between atoms: C_1  and  C_2
REMARK    2  A    between atoms: C_6  and  C_7
REMARK    3  A    between atoms: N_9  and  C_10
REMARK    4  A    between atoms: C_10  and  C_11
REMARK    5  A    between atoms: C_14  and  C_15
REMARK    6  A    between atoms: C_15  and  N_16
REMARK    7  A    between atoms: C_17  and  C_19
REMARK                            x       y       z     vdW  Elec       q    Type
REMARK                         _______ _______ _______ _____ _____    ______ ____
ROOT
ATOM      1  C   UNL     1      45.084   6.501  11.668  0.00  0.00    +0.000 A 
ATOM      2  C   UNL     1      46.138   5.820  12.291  0.00  0.00    +0.000 A 
ATOM      3  C   UNL     1      47.011   6.487  13.162  0.00  0.00    +0.000 A 
ATOM      4  C   UNL     1      46.835   7.847  13.446  0.00  0.00    +0.000 A 
ATOM      5  C   UNL     1      45.788   8.531  12.812  0.00  0.00    +0.000 A 
ATOM      6  C   UNL     1      44.914   7.864  11.945  0.00  0.00    +0.000 A 
ENDROOT
BRANCH   1   7
ATOM      7  C   UNL     1      44.180   5.788  10.695  0.00  0.00    +0.000 C 
BRANCH   7  10
ATOM      8  C   UNL     1      44.796   3.684   9.597  0.00  0.00    +0.000 C 
ATOM      9  O   UNL     1      44.123   3.010  10.371  0.00  0.00    +0.000 OA
ATOM     10  N   UNL     1      44.888   5.061   9.673  0.00  0.00    +0.000 N 
ATOM     11  H   UNL     1      45.482   5.531   8.997  0.00  0.00    +0.000 HD
BRANCH   8  17
ATOM     12  C   UNL     1      46.953  -0.352   7.549  0.00  0.00    +0.000 C 
ATOM     13  C   UNL     1      46.606   1.106   7.510  0.00  0.00    +0.000 A 
ATOM     14  C   UNL     1      46.993   1.919   6.443  0.00  0.00    +0.000 A 
ATOM     15  C   UNL     1      46.642   3.262   6.462  0.00  0.00    +0.000 A 
ATOM     16  N   UNL     1      45.948   3.852   7.456  0.00  0.00    +0.000 NA
ATOM     17  C   UNL     1      45.577   3.043   8.487  0.00  0.00    +0.000 A 
ATOM     18  C   UNL     1      45.884   1.686   8.557  0.00  0.00    +0.000 A 
ENDBRANCH   8  17
ENDBRANCH   7  10
ENDBRANCH   1   7
BRANCH   4  19
ATOM     19  C   UNL     1      47.748   8.576  14.401  0.00  0.00    +0.000 C 
BRANCH  19  20
ATOM     20  N   UNL     1      48.649   7.678  15.080  0.00  0.00    +0.000 N 
ATOM     21  C   UNL     1      48.852   7.764  16.435  0.00  0.00    +0.000 C 
ATOM     22  O   UNL     1      48.256   8.577  17.136  0.00  0.00    +0.000 OA
ATOM     23  H   UNL     1      49.336   7.199  14.506  0.00  0.00    +0.000 HD
BRANCH  21  24
ATOM     24  C   UNL     1      49.783   6.786  17.019  0.00  0.00    +0.000 A 
ATOM     25  C   UNL     1      50.998   7.213  17.543  0.00  0.00    +0.000 A 
ATOM     26  S   UNL     1      51.926   5.953  18.224  0.00  0.00    +0.000 S 
ATOM     27  C   UNL     1      50.762   4.789  17.794  0.00  0.00    +0.000 A 
ATOM     28  N   UNL     1      50.952   3.468  18.071  0.00  0.00    +0.000 NA
ATOM     29  C   UNL     1      49.998   2.698  17.663  0.00  0.00    +0.000 A 
ATOM     30  N   UNL     1      48.868   3.127  17.018  0.00  0.00    +0.000 N 
ATOM     31  C   UNL     1      48.622   4.451  16.747  0.00  0.00    +0.000 A 
ATOM     32  O   UNL     1      47.570   4.803  16.211  0.00  0.00    +0.000 OA
ATOM     33  C   UNL     1      49.670   5.358  17.167  0.00  0.00    +0.000 A 
ATOM     34  H   UNL     1      48.151   2.473  16.738  0.00  0.00    +0.000 HD
ENDBRANCH  21  24
ENDBRANCH  19  20
ENDBRANCH   4  19
TORSDOF 6
ENDMDL
MODEL 6
REMARK VINA RESULT:    -7.271      5.119     10.148
REMARK INTER + INTRA:         -10.865
REMARK INTER:                 -10.011
REMARK INTRA:                  -0.854
REMARK UNBOUND:                -1.044
REMARK  Name = 
REMARK  7 active torsions:
REMARK  status: ('A' for Active; 'I' for Inactive)
REMARK    1  A    between atoms: C_1  and  C_2
REMARK    2  A    between atoms: C_6  and  C_7
REMARK    3  A    between atoms: N_9  and  C_10
REMARK    4  A    between atoms: C_10  and  C_11
REMARK    5  A    between atoms: C_14  and  C_15
REMARK    6  A    between atoms: C_15  and  N_16
REMARK    7  A    between atoms: C_17  and  C_19
REMARK                            x       y       z     vdW  Elec       q    Type
REMARK                         _______ _______ _______ _____ _____    ______ ____
ROOT
ATOM      1  C   UNL     1      51.469   3.083  17.777  0.00  0.00    +0.000 A 
ATOM      2  C   UNL     1      50.808   4.309  17.930  0.00  0.00    +0.000 A 
ATOM      3  C   UNL     1      49.443   4.432  17.637  0.00  0.00    +0.000 A 
ATOM      4  C   UNL     1      48.702   3.323  17.205  0.00  0.00    +0.000 A 
ATOM      5  C   UNL     1      49.367   2.101  17.040  0.00  0.00    +0.000 A 
ATOM      6  C   UNL     1      50.731   1.977  17.336  0.00  0.00    +0.000 A 
ENDROOT
BRANCH   1   7
ATOM      7  C   UNL     1      52.948   2.971  18.046  0.00  0.00    +0.000 C 
BRANCH   7  10
ATOM      8  C   UNL     1      54.251   0.895  17.959  0.00  0.00    +0.000 C 
ATOM      9  O   UNL     1      54.773   1.194  16.889  0.00  0.00    +0.000 OA
ATOM     10  N   UNL     1      53.340   1.705  18.610  0.00  0.00    +0.000 N 
ATOM     11  H   UNL     1      52.950   1.367  19.484  0.00  0.00    +0.000 HD
BRANCH   8  17
ATOM     12  C   UNL     1      54.798  -4.087  17.859  0.00  0.00    +0.000 C 
ATOM     13  C   UNL     1      54.843  -2.782  18.595  0.00  0.00    +0.000 A 
ATOM     14  C   UNL     1      55.194  -2.718  19.944  0.00  0.00    +0.000 A 
ATOM     15  C   UNL     1      55.218  -1.480  20.573  0.00  0.00    +0.000 A 
ATOM     16  N   UNL     1      54.917  -0.315  19.966  0.00  0.00    +0.000 NA
ATOM     17  C   UNL     1      54.580  -0.396  18.649  0.00  0.00    +0.000 A 
ATOM     18  C   UNL     1      54.526  -1.591  17.935  0.00  0.00    +0.000 A 
ENDBRANCH   8  17
ENDBRANCH   7  10
ENDBRANCH   1   7
BRANCH   4  19
ATOM     19  C   UNL     1      47.226   3.430  16.912  0.00  0.00    +0.000 C 
BRANCH  19  20
ATOM     20  N   UNL     1      46.938   4.464  15.949  0.00  0.00    +0.000 N 
ATOM     21  C   UNL     1      47.018   4.222  14.600  0.00  0.00    +0.000 C 
ATOM     22  O   UNL     1      47.301   3.115  14.150  0.00  0.00    +0.000 OA
ATOM     23  H   UNL     1      46.972   5.422  16.282  0.00  0.00    +0.000 HD
BRANCH  21  24
ATOM     24  C   UNL     1      46.689   5.348  13.714  0.00  0.00    +0.000 A 
ATOM     25  C   UNL     1      47.636   6.336  13.467  0.00  0.00    +0.000 A 
ATOM     26  S   UNL     1      47.100   7.535  12.377  0.00  0.00    +0.000 S 
ATOM     27  C   UNL     1      45.570   6.806  12.241  0.00  0.00    +0.000 A 
ATOM     28  N   UNL     1      44.595   7.353  11.459  0.00  0.00    +0.000 NA
ATOM     29  C   UNL     1      43.478   6.706  11.474  0.00  0.00    +0.000 A 
ATOM     30  N   UNL     1      43.248   5.557  12.183  0.00  0.00    +0.000 N 
ATOM     31  C   UNL     1      44.209   4.955  12.957  0.00  0.00    +0.000 A 
ATOM     32  O   UNL     1      43.980   3.893  13.539  0.00  0.00    +0.000 OA
ATOM     33  C   UNL     1      45.479   5.650  12.993  0.00  0.00    +0.000 A 
ATOM     34  H   UNL     1      42.353   5.090  12.139  0.00  0.00    +0.000 HD
ENDBRANCH  21  24
ENDBRANCH  19  20
ENDBRANCH   4  19
TORSDOF 6
ENDMDL
MODEL 7
REMARK VINA RESULT:    -6.949      5.121      9.934
REMARK INTER + INTRA:         -10.430
REMARK INTER:                  -9.327
REMARK INTRA:                  -1.103
REMARK UNBOUND:                -1.044
REMARK  Name = 
REMARK  7 active torsions:
REMARK  status: ('A' for Active; 'I' for Inactive)
REMARK    1  A    between atoms: C_1  and  C_2
REMARK    2  A    between atoms: C_6  and  C_7
REMARK    3  A    between atoms: N_9  and  C_10
REMARK    4  A    between atoms: C_10  and  C_11
REMARK    5  A    between atoms: C_14  and  C_15
REMARK    6  A    between atoms: C_15  and  N_16
REMARK    7  A    between atoms: C_17  and  C_19
REMARK                            x       y       z     vdW  Elec       q    Type
REMARK                         _______ _______ _______ _____ _____    ______ ____
ROOT
ATOM      1  C   UNL     1      51.477   3.016  17.832  0.00  0.00    +0.000 A 
ATOM      2  C   UNL     1      50.817   4.188  18.223  0.00  0.00    +0.000 A 
ATOM      3  C   UNL     1      49.462   4.386  17.921  0.00  0.00    +0.000 A 
ATOM      4  C   UNL     1      48.732   3.403  17.240  0.00  0.00    +0.000 A 
ATOM      5  C   UNL     1      49.396   2.236  16.838  0.00  0.00    +0.000 A 
ATOM      6  C   UNL     1      50.749   2.038  17.141  0.00  0.00    +0.000 A 
ENDROOT
BRANCH   1   7
ATOM      7  C   UNL     1      52.947   2.833  18.115  0.00  0.00    +0.000 C 
BRANCH   7  10
ATOM      8  C   UNL     1      54.125   0.715  17.746  0.00  0.00    +0.000 C 
ATOM      9  O   UNL     1      54.608   1.095  16.684  0.00  0.00    +0.000 OA
ATOM     10  N   UNL     1      53.295   1.498  18.526  0.00  0.00    +0.000 N 
ATOM     11  H   UNL     1      52.932   1.091  19.382  0.00  0.00    +0.000 HD
BRANCH   8  17
ATOM     12  C   UNL     1      55.215  -4.122  16.999  0.00  0.00    +0.000 C 
ATOM     13  C   UNL     1      54.941  -2.971  17.920  0.00  0.00    +0.000 A 
ATOM     14  C   UNL     1      54.948  -3.130  19.307  0.00  0.00    +0.000 A 
ATOM     15  C   UNL     1      54.687  -2.027  20.109  0.00  0.00    +0.000 A 
ATOM     16  N   UNL     1      54.416  -0.793  19.638  0.00  0.00    +0.000 NA
ATOM     17  C   UNL     1      54.416  -0.656  18.284  0.00  0.00    +0.000 A 
ATOM     18  C   UNL     1      54.665  -1.704  17.399  0.00  0.00    +0.000 A 
ENDBRANCH   8  17
ENDBRANCH   7  10
ENDBRANCH   1   7
BRANCH   4  19
ATOM     19  C   UNL     1      47.266   3.586  16.931  0.00  0.00    +0.000 C 
BRANCH  19  20
ATOM     20  N   UNL     1      47.046   4.595  15.925  0.00  0.00    +0.000 N 
ATOM     21  C   UNL     1      47.086   4.287  14.588  0.00  0.00    +0.000 C 
ATOM     22  O   UNL     1      47.273   3.142  14.185  0.00  0.00    +0.000 OA
ATOM     23  H   UNL     1      47.161   5.561  16.214  0.00  0.00    +0.000 HD
BRANCH  21  24
ATOM     24  C   UNL     1      46.833   5.396  13.655  0.00  0.00    +0.000 A 
ATOM     25  C   UNL     1      45.693   5.386  12.860  0.00  0.00    +0.000 A 
ATOM     26  S   UNL     1      45.537   6.773  11.878  0.00  0.00    +0.000 S 
ATOM     27  C   UNL     1      47.011   7.406  12.441  0.00  0.00    +0.000 A 
ATOM     28  N   UNL     1      47.494   8.592  11.973  0.00  0.00    +0.000 NA
ATOM     29  C   UNL     1      48.636   8.934  12.470  0.00  0.00    +0.000 A 
ATOM     30  N   UNL     1      49.333   8.209  13.400  0.00  0.00    +0.000 N 
ATOM     31  C   UNL     1      48.870   7.026  13.922  0.00  0.00    +0.000 A 
ATOM     32  O   UNL     1      49.500   6.429  14.796  0.00  0.00    +0.000 OA
ATOM     33  C   UNL     1      47.599   6.585  13.385  0.00  0.00    +0.000 A 
ATOM     34  H   UNL     1      50.216   8.541  13.762  0.00  0.00    +0.000 HD
ENDBRANCH  21  24
ENDBRANCH  19  20
ENDBRANCH   4  19
TORSDOF 6
ENDMDL
MODEL 8
REMARK VINA RESULT:    -6.848      2.243      3.261
REMARK INTER + INTRA:         -10.294
REMARK INTER:                  -9.342
REMARK INTRA:                  -0.953
REMARK UNBOUND:                -1.044
REMARK  Name = 
REMARK  7 active torsions:
REMARK  status: ('A' for Active; 'I' for Inactive)
REMARK    1  A    between atoms: C_1  and  C_2
REMARK    2  A    between atoms: C_6  and  C_7
REMARK    3  A    between atoms: N_9  and  C_10
REMARK    4  A    between atoms: C_10  and  C_11
REMARK    5  A    between atoms: C_14  and  C_15
REMARK    6  A    between atoms: C_15  and  N_16
REMARK    7  A    between atoms: C_17  and  C_19
REMARK                            x       y       z     vdW  Elec       q    Type
REMARK                         _______ _______ _______ _____ _____    ______ ____
ROOT
ATOM      1  C   UNL     1      45.686   6.832  11.707  0.00  0.00    +0.000 A 
ATOM      2  C   UNL     1      46.975   6.317  11.893  0.00  0.00    +0.000 A 
ATOM      3  C   UNL     1      47.878   6.936  12.769  0.00  0.00    +0.000 A 
ATOM      4  C   UNL     1      47.502   8.073  13.496  0.00  0.00    +0.000 A 
ATOM      5  C   UNL     1      46.216   8.595  13.300  0.00  0.00    +0.000 A 
ATOM      6  C   UNL     1      45.313   7.975  12.427  0.00  0.00    +0.000 A 
ENDROOT
BRANCH   1   7
ATOM      7  C   UNL     1      44.738   6.191  10.726  0.00  0.00    +0.000 C 
BRANCH   7  10
ATOM      8  C   UNL     1      44.873   4.151   9.371  0.00  0.00    +0.000 C 
ATOM      9  O   UNL     1      43.847   3.685   9.856  0.00  0.00    +0.000 OA
ATOM     10  N   UNL     1      45.394   5.379   9.733  0.00  0.00    +0.000 N 
ATOM     11  H   UNL     1      46.257   5.675   9.288  0.00  0.00    +0.000 HD
BRANCH   8  17
ATOM     12  C   UNL     1      46.843  -0.115   7.623  0.00  0.00    +0.000 C 
ATOM     13  C   UNL     1      46.586   1.356   7.491  0.00  0.00    +0.000 A 
ATOM     14  C   UNL     1      47.050   2.082   6.393  0.00  0.00    +0.000 A 
ATOM     15  C   UNL     1      46.780   3.442   6.326  0.00  0.00    +0.000 A 
ATOM     16  N   UNL     1      46.094   4.127   7.263  0.00  0.00    +0.000 NA
ATOM     17  C   UNL     1      45.647   3.403   8.325  0.00  0.00    +0.000 A 
ATOM     18  C   UNL     1      45.870   2.036   8.480  0.00  0.00    +0.000 A 
ENDBRANCH   8  17
ENDBRANCH   7  10
ENDBRANCH   1   7
BRANCH   4  19
ATOM     19  C   UNL     1      48.451   8.736  14.465  0.00  0.00    +0.000 C 
BRANCH  19  20
ATOM     20  N   UNL     1      49.423   7.811  14.990  0.00  0.00    +0.000 N 
ATOM     21  C   UNL     1      49.411   7.439  16.311  0.00  0.00    +0.000 C 
ATOM     22  O   UNL     1      48.557   7.844  17.096  0.00  0.00    +0.000 OA
ATOM     23  H   UNL     1      50.273   7.685  14.449  0.00  0.00    +0.000 HD
BRANCH  21  24
ATOM     24  C   UNL     1      50.443   6.480  16.730  0.00  0.00    +0.000 A 
ATOM     25  C   UNL     1      50.085   5.344  17.446  0.00  0.00    +0.000 A 
ATOM     26  S   UNL     1      51.402   4.319  17.801  0.00  0.00    +0.000 S 
ATOM     27  C   UNL     1      52.502   5.383  17.058  0.00  0.00    +0.000 A 
ATOM     28  N   UNL     1      53.837   5.110  17.031  0.00  0.00    +0.000 NA
ATOM     29  C   UNL     1      54.553   6.020  16.458  0.00  0.00    +0.000 A 
ATOM     30  N   UNL     1      54.058   7.168  15.898  0.00  0.00    +0.000 N 
ATOM     31  C   UNL     1      52.718   7.468  15.876  0.00  0.00    +0.000 A 
ATOM     32  O   UNL     1      52.305   8.485  15.316  0.00  0.00    +0.000 OA
ATOM     33  C   UNL     1      51.869   6.489  16.522  0.00  0.00    +0.000 A 
ATOM     34  H   UNL     1      54.672   7.834  15.450  0.00  0.00    +0.000 HD
ENDBRANCH  21  24
ENDBRANCH  19  20
ENDBRANCH   4  19
TORSDOF 6
ENDMDL
MODEL 9
REMARK VINA RESULT:    -6.699      4.547     11.036
REMARK INTER + INTRA:         -10.092
REMARK INTER:                  -9.370
REMARK INTRA:                  -0.722
REMARK UNBOUND:                -1.044
REMARK  Name = 
REMARK  7 active torsions:
REMARK  status: ('A' for Active; 'I' for Inactive)
REMARK    1  A    between atoms: C_1  and  C_2
REMARK    2  A    between atoms: C_6  and  C_7
REMARK    3  A    between atoms: N_9  and  C_10
REMARK    4  A    between atoms: C_10  and  C_11
REMARK    5  A    between atoms: C_14  and  C_15
REMARK    6  A    between atoms: C_15  and  N_16
REMARK    7  A    between atoms: C_17  and  C_19
REMARK                            x       y       z     vdW  Elec       q    Type
REMARK                         _______ _______ _______ _____ _____    ______ ____
ROOT
ATOM      1  C   UNL     1      48.508   5.699  20.219  0.00  0.00    +0.000 A 
ATOM      2  C   UNL     1      47.328   6.034  19.540  0.00  0.00    +0.000 A 
ATOM      3  C   UNL     1      46.987   5.403  18.336  0.00  0.00    +0.000 A 
ATOM      4  C   UNL     1      47.810   4.407  17.794  0.00  0.00    +0.000 A 
ATOM      5  C   UNL     1      48.996   4.081  18.466  0.00  0.00    +0.000 A 
ATOM      6  C   UNL     1      49.335   4.709  19.672  0.00  0.00    +0.000 A 
ENDROOT
BRANCH   1   7
ATOM      7  C   UNL     1      48.893   6.417  21.487  0.00  0.00    +0.000 C 
BRANCH   7  10
ATOM      8  C   UNL     1      48.651   8.824  21.085  0.00  0.00    +0.000 C 
ATOM      9  O   UNL     1      49.647   8.869  20.370  0.00  0.00    +0.000 OA
ATOM     10  N   UNL     1      48.197   7.663  21.682  0.00  0.00    +0.000 N 
ATOM     11  H   UNL     1      47.371   7.727  22.269  0.00  0.00    +0.000 HD
BRANCH   8  17
ATOM     12  C   UNL     1      44.345  11.372  20.760  0.00  0.00    +0.000 C 
ATOM     13  C   UNL     1      45.773  11.270  21.205  0.00  0.00    +0.000 A 
ATOM     14  C   UNL     1      46.397  12.310  21.895  0.00  0.00    +0.000 A 
ATOM     15  C   UNL     1      47.722  12.158  22.283  0.00  0.00    +0.000 A 
ATOM     16  N   UNL     1      48.465  11.061  22.033  0.00  0.00    +0.000 NA
ATOM     17  C   UNL     1      47.839  10.055  21.362  0.00  0.00    +0.000 A 
ATOM     18  C   UNL     1      46.515  10.117  20.931  0.00  0.00    +0.000 A 
ENDBRANCH   8  17
ENDBRANCH   7  10
ENDBRANCH   1   7
BRANCH   4  19
ATOM     19  C   UNL     1      47.445   3.697  16.512  0.00  0.00    +0.000 C 
BRANCH  19  20
ATOM     20  N   UNL     1      46.851   4.590  15.549  0.00  0.00    +0.000 N 
ATOM     21  C   UNL     1      46.751   4.244  14.225  0.00  0.00    +0.000 C 
ATOM     22  O   UNL     1      47.126   3.153  13.804  0.00  0.00    +0.000 OA
ATOM     23  H   UNL     1      46.789   5.569  15.811  0.00  0.00    +0.000 HD
BRANCH  21  24
ATOM     24  C   UNL     1      46.114   5.230  13.338  0.00  0.00    +0.000 A 
ATOM     25  C   UNL     1      46.803   6.379  12.970  0.00  0.00    +0.000 A 
ATOM     26  S   UNL     1      45.932   7.381  11.899  0.00  0.00    +0.000 S 
ATOM     27  C   UNL     1      44.586   6.343  11.933  0.00  0.00    +0.000 A 
ATOM     28  N   UNL     1      43.454   6.633  11.232  0.00  0.00    +0.000 NA
ATOM     29  C   UNL     1      42.505   5.768  11.374  0.00  0.00    +0.000 A 
ATOM     30  N   UNL     1      42.587   4.635  12.139  0.00  0.00    +0.000 N 
ATOM     31  C   UNL     1      43.718   4.288  12.836  0.00  0.00    +0.000 A 
ATOM     32  O   UNL     1      43.772   3.233  13.471  0.00  0.00    +0.000 OA
ATOM     33  C   UNL     1      44.809   5.234  12.727  0.00  0.00    +0.000 A 
ATOM     34  H   UNL     1      41.812   3.989  12.196  0.00  0.00    +0.000 HD
ENDBRANCH  21  24
ENDBRANCH  19  20
ENDBRANCH   4  19
TORSDOF 6
ENDMDL
