MODEL 1
REMARK VINA RESULT:    -7.514      0.000      0.000
REMARK INTER + INTRA:         -10.568
REMARK INTER:                  -9.711
REMARK INTRA:                  -0.857
REMARK UNBOUND:                -0.857
REMARK  Name = 
REMARK  6 active torsions:
REMARK  status: ('A' for Active; 'I' for Inactive)
REMARK    1  A    between atoms: C_1  and  N_2
REMARK    2  A    between atoms: N_2  and  C_3
REMARK    3  A    between atoms: C_3  and  C_4
REMARK    4  A    between atoms: C_7  and  C_8
REMARK    5  A    between atoms: C_8  and  N_9
REMARK    6  A    between atoms: C_17  and  C_19
REMARK                            x       y       z     vdW  Elec       q    Type
REMARK                         _______ _______ _______ _____ _____    ______ ____
ROOT
ATOM      1  C   UNL     1      45.229   8.519  11.939  0.00  0.00    +0.000 C 
ATOM      2  N   UNL     1      45.296   7.067  11.809  0.00  0.00    +0.000 N 
ATOM      3  C   UNL     1      44.117   6.423  11.391  0.00  0.00    +0.000 C 
ATOM      4  O   UNL     1      43.092   7.062  11.162  0.00  0.00    +0.000 OA
ENDROOT
BRANCH   3   5
ATOM      5  C   UNL     1      44.098   4.960  11.267  0.00  0.00    +0.000 A 
ATOM      6  C   UNL     1      43.424   4.109  12.131  0.00  0.00    +0.000 A 
ATOM      7  S   UNL     1      43.535   2.463  11.696  0.00  0.00    +0.000 S 
ATOM      8  C   UNL     1      44.353   2.847  10.254  0.00  0.00    +0.000 A 
ATOM      9  N   UNL     1      44.653   1.882   9.344  0.00  0.00    +0.000 NA
ATOM     10  C   UNL     1      45.208   2.329   8.266  0.00  0.00    +0.000 A 
ATOM     11  N   UNL     1      45.521   3.646   8.037  0.00  0.00    +0.000 N 
ATOM     12  C   UNL     1      45.366   4.632   8.986  0.00  0.00    +0.000 A 
ATOM     13  O   UNL     1      45.873   5.736   8.837  0.00  0.00    +0.000 OA
ATOM     14  C   UNL     1      44.629   4.198  10.160  0.00  0.00    +0.000 A 
ATOM     15  H   UNL     1      46.016   3.919   7.199  0.00  0.00    +0.000 HD
ENDBRANCH   3   5
BRANCH   2  16
ATOM     16  C   UNL     1      46.601   6.395  11.863  0.00  0.00    +0.000 C 
BRANCH  16  17
ATOM     17  C   UNL     1      47.114   6.004  13.223  0.00  0.00    +0.000 A 
ATOM     18  C   UNL     1      47.998   6.843  13.919  0.00  0.00    +0.000 A 
ATOM     19  C   UNL     1      48.492   6.468  15.168  0.00  0.00    +0.000 A 
ATOM     20  C   UNL     1      48.106   5.251  15.744  0.00  0.00    +0.000 A 
ATOM     21  C   UNL     1      47.219   4.417  15.048  0.00  0.00    +0.000 A 
ATOM     22  C   UNL     1      46.729   4.788  13.798  0.00  0.00    +0.000 A 
BRANCH  20  23
ATOM     23  C   UNL     1      48.671   4.817  17.078  0.00  0.00    +0.000 C 
BRANCH  23  24
ATOM     24  N   UNL     1      49.959   4.104  16.990  0.00  0.00    +0.000 NA
ATOM     25  C   UNL     1      50.977   4.726  17.854  0.00  0.00    +0.000 C 
ATOM     26  C   UNL     1      52.306   3.970  17.793  0.00  0.00    +0.000 C 
ATOM     27  C   UNL     1      52.124   2.504  18.160  0.00  0.00    +0.000 C 
ATOM     28  C   UNL     1      51.041   1.881  17.292  0.00  0.00    +0.000 C 
ATOM     29  C   UNL     1      49.748   2.692  17.352  0.00  0.00    +0.000 C 
ENDBRANCH  23  24
ENDBRANCH  20  23
ENDBRANCH  16  17
ENDBRANCH   2  16
TORSDOF 5
ENDMDL
MODEL 2
REMARK VINA RESULT:    -7.413      1.873      2.515
REMARK INTER + INTRA:         -10.437
REMARK INTER:                  -9.309
REMARK INTRA:                  -1.128
REMARK UNBOUND:                -0.857
REMARK  Name = 
REMARK  6 active torsions:
REMARK  status: ('A' for Active; 'I' for Inactive)
REMARK    1  A    between atoms: C_1  and  N_2
REMARK    2  A    between atoms: N_2  and  C_3
REMARK    3  A    between atoms: C_3  and  C_4
REMARK    4  A    between atoms: C_7  and  C_8
REMARK    5  A    between atoms: C_8  and  N_9
REMARK    6  A    between atoms: C_17  and  C_19
REMARK                            x       y       z     vdW  Elec       q    Type
REMARK                         _______ _______ _______ _____ _____    ______ ____
ROOT
ATOM      1  C   UNL     1      46.576   8.653  12.346  0.00  0.00    +0.000 C 
ATOM      2  N   UNL     1      46.275   7.228  12.266  0.00  0.00    +0.000 N 
ATOM      3  C   UNL     1      45.014   6.885  11.746  0.00  0.00    +0.000 C 
ATOM      4  O   UNL     1      44.217   7.752  11.391  0.00  0.00    +0.000 OA
ENDROOT
BRANCH   3   5
ATOM      5  C   UNL     1      44.626   5.472  11.663  0.00  0.00    +0.000 A 
ATOM      6  C   UNL     1      43.879   4.806  12.625  0.00  0.00    +0.000 A 
ATOM      7  S   UNL     1      43.534   3.185  12.223  0.00  0.00    +0.000 S 
ATOM      8  C   UNL     1      44.234   3.364  10.683  0.00  0.00    +0.000 A 
ATOM      9  N   UNL     1      44.177   2.359   9.768  0.00  0.00    +0.000 NA
ATOM     10  C   UNL     1      44.685   2.663   8.619  0.00  0.00    +0.000 A 
ATOM     11  N   UNL     1      45.276   3.865   8.319  0.00  0.00    +0.000 N 
ATOM     12  C   UNL     1      45.483   4.855   9.254  0.00  0.00    +0.000 A 
ATOM     13  O   UNL     1      46.220   5.803   9.016  0.00  0.00    +0.000 OA
ATOM     14  C   UNL     1      44.815   4.608  10.520  0.00  0.00    +0.000 A 
ATOM     15  H   UNL     1      45.715   4.013   7.421  0.00  0.00    +0.000 HD
ENDBRANCH   3   5
BRANCH   2  16
ATOM     16  C   UNL     1      47.349   6.249  12.478  0.00  0.00    +0.000 C 
BRANCH  16  17
ATOM     17  C   UNL     1      47.581   5.780  13.889  0.00  0.00    +0.000 A 
ATOM     18  C   UNL     1      48.449   6.484  14.739  0.00  0.00    +0.000 A 
ATOM     19  C   UNL     1      48.683   6.036  16.038  0.00  0.00    +0.000 A 
ATOM     20  C   UNL     1      48.048   4.880  16.512  0.00  0.00    +0.000 A 
ATOM     21  C   UNL     1      47.178   4.182  15.662  0.00  0.00    +0.000 A 
ATOM     22  C   UNL     1      46.948   4.626  14.362  0.00  0.00    +0.000 A 
BRANCH  20  23
ATOM     23  C   UNL     1      48.330   4.363  17.904  0.00  0.00    +0.000 C 
BRANCH  23  24
ATOM     24  N   UNL     1      48.479   5.416  18.926  0.00  0.00    +0.000 NA
ATOM     25  C   UNL     1      47.192   6.073  19.213  0.00  0.00    +0.000 C 
ATOM     26  C   UNL     1      47.334   7.143  20.297  0.00  0.00    +0.000 C 
ATOM     27  C   UNL     1      47.927   6.560  21.572  0.00  0.00    +0.000 C 
ATOM     28  C   UNL     1      49.235   5.847  21.260  0.00  0.00    +0.000 C 
ATOM     29  C   UNL     1      49.052   4.819  20.145  0.00  0.00    +0.000 C 
ENDBRANCH  23  24
ENDBRANCH  20  23
ENDBRANCH  16  17
ENDBRANCH   2  16
TORSDOF 5
ENDMDL
MODEL 3
REMARK VINA RESULT:    -7.024      1.622      2.496
REMARK INTER + INTRA:          -9.935
REMARK INTER:                  -9.256
REMARK INTRA:                  -0.678
REMARK UNBOUND:                -0.857
REMARK  Name = 
REMARK  6 active torsions:
REMARK  status: ('A' for Active; 'I' for Inactive)
REMARK    1  A    between atoms: C_1  and  N_2
REMARK    2  A    between atoms: N_2  and  C_3
REMARK    3  A    between atoms: C_3  and  C_4
REMARK    4  A    between atoms: C_7  and  C_8
REMARK    5  A    between atoms: C_8  and  N_9
REMARK    6  A    between atoms: C_17  and  C_19
REMARK                            x       y       z     vdW  Elec       q    Type
REMARK                         _______ _______ _______ _____ _____    ______ ____
ROOT
ATOM      1  C   UNL     1      46.557   8.682  13.269  0.00  0.00    +0.000 C 
ATOM      2  N   UNL     1      46.410   7.401  12.587  0.00  0.00    +0.000 N 
ATOM      3  C   UNL     1      45.413   7.332  11.597  0.00  0.00    +0.000 C 
ATOM      4  O   UNL     1      44.708   8.305  11.338  0.00  0.00    +0.000 OA
ENDROOT
BRANCH   3   5
ATOM      5  C   UNL     1      45.185   6.067  10.888  0.00  0.00    +0.000 A 
ATOM      6  C   UNL     1      45.757   5.737   9.667  0.00  0.00    +0.000 A 
ATOM      7  S   UNL     1      45.352   4.173   9.122  0.00  0.00    +0.000 S 
ATOM      8  C   UNL     1      44.529   3.825  10.569  0.00  0.00    +0.000 A 
ATOM      9  N   UNL     1      44.023   2.584  10.805  0.00  0.00    +0.000 NA
ATOM     10  C   UNL     1      43.490   2.446  11.974  0.00  0.00    +0.000 A 
ATOM     11  N   UNL     1      43.386   3.446  12.909  0.00  0.00    +0.000 N 
ATOM     12  C   UNL     1      43.754   4.750  12.659  0.00  0.00    +0.000 A 
ATOM     13  O   UNL     1      43.428   5.653  13.418  0.00  0.00    +0.000 OA
ATOM     14  C   UNL     1      44.474   4.922  11.410  0.00  0.00    +0.000 A 
ATOM     15  H   UNL     1      42.896   3.289  13.778  0.00  0.00    +0.000 HD
ENDBRANCH   3   5
BRANCH   2  16
ATOM     16  C   UNL     1      47.432   6.362  12.771  0.00  0.00    +0.000 C 
BRANCH  16  17
ATOM     17  C   UNL     1      47.568   5.769  14.147  0.00  0.00    +0.000 A 
ATOM     18  C   UNL     1      48.430   6.349  15.091  0.00  0.00    +0.000 A 
ATOM     19  C   UNL     1      48.573   5.784  16.358  0.00  0.00    +0.000 A 
ATOM     20  C   UNL     1      47.852   4.634  16.704  0.00  0.00    +0.000 A 
ATOM     21  C   UNL     1      46.988   4.060  15.762  0.00  0.00    +0.000 A 
ATOM     22  C   UNL     1      46.848   4.620  14.493  0.00  0.00    +0.000 A 
BRANCH  20  23
ATOM     23  C   UNL     1      48.035   3.991  18.060  0.00  0.00    +0.000 C 
BRANCH  23  24
ATOM     24  N   UNL     1      49.362   3.381  18.271  0.00  0.00    +0.000 NA
ATOM     25  C   UNL     1      49.718   2.476  17.165  0.00  0.00    +0.000 C 
ATOM     26  C   UNL     1      51.108   1.867  17.361  0.00  0.00    +0.000 C 
ATOM     27  C   UNL     1      52.167   2.949  17.522  0.00  0.00    +0.000 C 
ATOM     28  C   UNL     1      51.770   3.904  18.639  0.00  0.00    +0.000 C 
ATOM     29  C   UNL     1      50.361   4.453  18.421  0.00  0.00    +0.000 C 
ENDBRANCH  23  24
ENDBRANCH  20  23
ENDBRANCH  16  17
ENDBRANCH   2  16
TORSDOF 5
ENDMDL
MODEL 4
REMARK VINA RESULT:    -6.905      1.924      2.892
REMARK INTER + INTRA:          -9.780
REMARK INTER:                  -8.744
REMARK INTRA:                  -1.036
REMARK UNBOUND:                -0.857
REMARK  Name = 
REMARK  6 active torsions:
REMARK  status: ('A' for Active; 'I' for Inactive)
REMARK    1  A    between atoms: C_1  and  N_2
REMARK    2  A    between atoms: N_2  and  C_3
REMARK    3  A    between atoms: C_3  and  C_4
REMARK    4  A    between atoms: C_7  and  C_8
REMARK    5  A    between atoms: C_8  and  N_9
REMARK    6  A    between atoms: C_17  and  C_19
REMARK                            x       y       z     vdW  Elec       q    Type
REMARK                         _______ _______ _______ _____ _____    ______ ____
ROOT
ATOM      1  C   UNL     1      46.400   8.711  13.271  0.00  0.00    +0.000 C 
ATOM      2  N   UNL     1      46.301   7.437  12.567  0.00  0.00    +0.000 N 
ATOM      3  C   UNL     1      45.269   7.329  11.616  0.00  0.00    +0.000 C 
ATOM      4  O   UNL     1      44.496   8.263  11.409  0.00  0.00    +0.000 OA
ENDROOT
BRANCH   3   5
ATOM      5  C   UNL     1      45.086   6.067  10.888  0.00  0.00    +0.000 A 
ATOM      6  C   UNL     1      45.675   5.774   9.667  0.00  0.00    +0.000 A 
ATOM      7  S   UNL     1      45.325   4.205   9.097  0.00  0.00    +0.000 S 
ATOM      8  C   UNL     1      44.506   3.810  10.534  0.00  0.00    +0.000 A 
ATOM      9  N   UNL     1      44.039   2.550  10.750  0.00  0.00    +0.000 NA
ATOM     10  C   UNL     1      43.505   2.378  11.913  0.00  0.00    +0.000 A 
ATOM     11  N   UNL     1      43.362   3.360  12.861  0.00  0.00    +0.000 N 
ATOM     12  C   UNL     1      43.689   4.679  12.632  0.00  0.00    +0.000 A 
ATOM     13  O   UNL     1      43.329   5.560  13.402  0.00  0.00    +0.000 OA
ATOM     14  C   UNL     1      44.410   4.892  11.390  0.00  0.00    +0.000 A 
ATOM     15  H   UNL     1      42.874   3.175  13.726  0.00  0.00    +0.000 HD
ENDBRANCH   3   5
BRANCH   2  16
ATOM     16  C   UNL     1      47.389   6.458  12.684  0.00  0.00    +0.000 C 
BRANCH  16  17
ATOM     17  C   UNL     1      47.609   5.835  14.036  0.00  0.00    +0.000 A 
ATOM     18  C   UNL     1      46.948   4.648  14.390  0.00  0.00    +0.000 A 
ATOM     19  C   UNL     1      47.134   4.085  15.651  0.00  0.00    +0.000 A 
ATOM     20  C   UNL     1      47.988   4.695  16.579  0.00  0.00    +0.000 A 
ATOM     21  C   UNL     1      48.650   5.878  16.221  0.00  0.00    +0.000 A 
ATOM     22  C   UNL     1      48.462   6.445  14.962  0.00  0.00    +0.000 A 
BRANCH  20  23
ATOM     23  C   UNL     1      48.161   4.115  17.964  0.00  0.00    +0.000 C 
BRANCH  23  24
ATOM     24  N   UNL     1      49.129   4.838  18.811  0.00  0.00    +0.000 NA
ATOM     25  C   UNL     1      48.701   4.857  20.220  0.00  0.00    +0.000 C 
ATOM     26  C   UNL     1      49.718   5.576  21.108  0.00  0.00    +0.000 C 
ATOM     27  C   UNL     1      51.100   4.949  20.982  0.00  0.00    +0.000 C 
ATOM     28  C   UNL     1      51.516   4.896  19.520  0.00  0.00    +0.000 C 
ATOM     29  C   UNL     1      50.452   4.207  18.667  0.00  0.00    +0.000 C 
ENDBRANCH  23  24
ENDBRANCH  20  23
ENDBRANCH  16  17
ENDBRANCH   2  16
TORSDOF 5
ENDMDL
MODEL 5
REMARK VINA RESULT:    -6.752      3.674      8.260
REMARK INTER + INTRA:          -9.583
REMARK INTER:                  -8.944
REMARK INTRA:                  -0.638
REMARK UNBOUND:                -0.857
REMARK  Name = 
REMARK  6 active torsions:
REMARK  status: ('A' for Active; 'I' for Inactive)
REMARK    1  A    between atoms: C_1  and  N_2
REMARK    2  A    between atoms: N_2  and  C_3
REMARK    3  A    between atoms: C_3  and  C_4
REMARK    4  A    between atoms: C_7  and  C_8
REMARK    5  A    between atoms: C_8  and  N_9
REMARK    6  A    between atoms: C_17  and  C_19
REMARK                            x       y       z     vdW  Elec       q    Type
REMARK                         _______ _______ _______ _____ _____    ______ ____
ROOT
ATOM      1  C   UNL     1      49.422   7.165  12.445  0.00  0.00    +0.000 C 
ATOM      2  N   UNL     1      48.826   7.530  13.726  0.00  0.00    +0.000 N 
ATOM      3  C   UNL     1      49.719   7.740  14.792  0.00  0.00    +0.000 C 
ATOM      4  O   UNL     1      50.932   7.610  14.638  0.00  0.00    +0.000 OA
ENDROOT
BRANCH   3   5
ATOM      5  C   UNL     1      49.193   8.080  16.120  0.00  0.00    +0.000 A 
ATOM      6  C   UNL     1      48.990   9.376  16.574  0.00  0.00    +0.000 A 
ATOM      7  S   UNL     1      48.310   9.454  18.137  0.00  0.00    +0.000 S 
ATOM      8  C   UNL     1      48.118   7.765  18.194  0.00  0.00    +0.000 A 
ATOM      9  N   UNL     1      47.481   7.169  19.238  0.00  0.00    +0.000 NA
ATOM     10  C   UNL     1      47.344   5.890  19.111  0.00  0.00    +0.000 A 
ATOM     11  N   UNL     1      47.820   5.154  18.054  0.00  0.00    +0.000 N 
ATOM     12  C   UNL     1      48.592   5.694  17.049  0.00  0.00    +0.000 A 
ATOM     13  O   UNL     1      49.195   4.976  16.262  0.00  0.00    +0.000 OA
ATOM     14  C   UNL     1      48.661   7.144  17.084  0.00  0.00    +0.000 A 
ATOM     15  H   UNL     1      47.738   4.147  18.049  0.00  0.00    +0.000 HD
ENDBRANCH   3   5
BRANCH   2  16
ATOM     16  C   UNL     1      47.406   7.901  13.784  0.00  0.00    +0.000 C 
BRANCH  16  17
ATOM     17  C   UNL     1      46.439   7.036  13.021  0.00  0.00    +0.000 A 
ATOM     18  C   UNL     1      45.570   7.602  12.075  0.00  0.00    +0.000 A 
ATOM     19  C   UNL     1      44.658   6.803  11.386  0.00  0.00    +0.000 A 
ATOM     20  C   UNL     1      44.604   5.424  11.628  0.00  0.00    +0.000 A 
ATOM     21  C   UNL     1      45.477   4.861  12.569  0.00  0.00    +0.000 A 
ATOM     22  C   UNL     1      46.385   5.659  13.262  0.00  0.00    +0.000 A 
BRANCH  20  23
ATOM     23  C   UNL     1      43.588   4.558  10.917  0.00  0.00    +0.000 C 
BRANCH  23  24
ATOM     24  N   UNL     1      44.099   3.892   9.704  0.00  0.00    +0.000 NA
ATOM     25  C   UNL     1      45.270   4.597   9.156  0.00  0.00    +0.000 C 
ATOM     26  C   UNL     1      45.824   3.890   7.917  0.00  0.00    +0.000 C 
ATOM     27  C   UNL     1      46.173   2.440   8.220  0.00  0.00    +0.000 C 
ATOM     28  C   UNL     1      44.970   1.730   8.824  0.00  0.00    +0.000 C 
ATOM     29  C   UNL     1      44.427   2.493  10.031  0.00  0.00    +0.000 C 
ENDBRANCH  23  24
ENDBRANCH  20  23
ENDBRANCH  16  17
ENDBRANCH   2  16
TORSDOF 5
ENDMDL
MODEL 6
REMARK VINA RESULT:    -6.629      3.312      8.195
REMARK INTER + INTRA:          -9.424
REMARK INTER:                  -8.521
REMARK INTRA:                  -0.903
REMARK UNBOUND:                -0.857
REMARK  Name = 
REMARK  6 active torsions:
REMARK  status: ('A' for Active; 'I' for Inactive)
REMARK    1  A    between atoms: C_1  and  N_2
REMARK    2  A    between atoms: N_2  and  C_3
REMARK    3  A    between atoms: C_3  and  C_4
REMARK    4  A    between atoms: C_7  and  C_8
REMARK    5  A    between atoms: C_8  and  N_9
REMARK    6  A    between atoms: C_17  and  C_19
REMARK                            x       y       z     vdW  Elec       q    Type
REMARK                         _______ _______ _______ _____ _____    ______ ____
ROOT
ATOM      1  C   UNL     1      48.850   8.982  16.764  0.00  0.00    +0.000 C 
ATOM      2  N   UNL     1      48.889   7.528  16.647  0.00  0.00    +0.000 N 
ATOM      3  C   UNL     1      48.358   6.801  17.727  0.00  0.00    +0.000 C 
ATOM      4  O   UNL     1      47.898   7.374  18.713  0.00  0.00    +0.000 OA
ENDROOT
BRANCH   3   5
ATOM      5  C   UNL     1      48.390   5.333  17.696  0.00  0.00    +0.000 A 
ATOM      6  C   UNL     1      47.279   4.529  17.480  0.00  0.00    +0.000 A 
ATOM      7  S   UNL     1      47.638   2.862  17.438  0.00  0.00    +0.000 S 
ATOM      8  C   UNL     1      49.308   3.167  17.549  0.00  0.00    +0.000 A 
ATOM      9  N   UNL     1      50.211   2.154  17.457  0.00  0.00    +0.000 NA
ATOM     10  C   UNL     1      51.444   2.542  17.485  0.00  0.00    +0.000 A 
ATOM     11  N   UNL     1      51.849   3.845  17.635  0.00  0.00    +0.000 N 
ATOM     12  C   UNL     1      50.975   4.882  17.874  0.00  0.00    +0.000 A 
ATOM     13  O   UNL     1      51.381   5.977  18.239  0.00  0.00    +0.000 OA
ATOM     14  C   UNL     1      49.579   4.512  17.722  0.00  0.00    +0.000 A 
ATOM     15  H   UNL     1      52.830   4.072  17.716  0.00  0.00    +0.000 HD
ENDBRANCH   3   5
BRANCH   2  16
ATOM     16  C   UNL     1      49.227   6.915  15.356  0.00  0.00    +0.000 C 
BRANCH  16  17
ATOM     17  C   UNL     1      48.089   6.638  14.410  0.00  0.00    +0.000 A 
ATOM     18  C   UNL     1      47.612   5.330  14.233  0.00  0.00    +0.000 A 
ATOM     19  C   UNL     1      46.575   5.071  13.339  0.00  0.00    +0.000 A 
ATOM     20  C   UNL     1      45.992   6.116  12.610  0.00  0.00    +0.000 A 
ATOM     21  C   UNL     1      46.467   7.422  12.792  0.00  0.00    +0.000 A 
ATOM     22  C   UNL     1      47.508   7.682  13.682  0.00  0.00    +0.000 A 
BRANCH  20  23
ATOM     23  C   UNL     1      44.897   5.837  11.606  0.00  0.00    +0.000 C 
BRANCH  23  24
ATOM     24  N   UNL     1      45.205   4.753  10.654  0.00  0.00    +0.000 NA
ATOM     25  C   UNL     1      44.060   3.842  10.489  0.00  0.00    +0.000 C 
ATOM     26  C   UNL     1      44.363   2.735   9.477  0.00  0.00    +0.000 C 
ATOM     27  C   UNL     1      44.775   3.316   8.132  0.00  0.00    +0.000 C 
ATOM     28  C   UNL     1      45.930   4.289   8.316  0.00  0.00    +0.000 C 
ATOM     29  C   UNL     1      45.598   5.349   9.365  0.00  0.00    +0.000 C 
ENDBRANCH  23  24
ENDBRANCH  20  23
ENDBRANCH  16  17
ENDBRANCH   2  16
TORSDOF 5
ENDMDL
MODEL 7
REMARK VINA RESULT:    -6.581      3.509      7.904
REMARK INTER + INTRA:          -9.361
REMARK INTER:                  -7.992
REMARK INTRA:                  -1.369
REMARK UNBOUND:                -0.857
REMARK  Name = 
REMARK  6 active torsions:
REMARK  status: ('A' for Active; 'I' for Inactive)
REMARK    1  A    between atoms: C_1  and  N_2
REMARK    2  A    between atoms: N_2  and  C_3
REMARK    3  A    between atoms: C_3  and  C_4
REMARK    4  A    between atoms: C_7  and  C_8
REMARK    5  A    between atoms: C_8  and  N_9
REMARK    6  A    between atoms: C_17  and  C_19
REMARK                            x       y       z     vdW  Elec       q    Type
REMARK                         _______ _______ _______ _____ _____    ______ ____
ROOT
ATOM      1  C   UNL     1      47.805   9.268  17.908  0.00  0.00    +0.000 C 
ATOM      2  N   UNL     1      48.760   8.248  17.491  0.00  0.00    +0.000 N 
ATOM      3  C   UNL     1      48.829   7.093  18.293  0.00  0.00    +0.000 C 
ATOM      4  O   UNL     1      48.122   6.971  19.291  0.00  0.00    +0.000 OA
ENDROOT
BRANCH   3   5
ATOM      5  C   UNL     1      49.789   6.035  17.955  0.00  0.00    +0.000 A 
ATOM      6  C   UNL     1      51.154   6.109  18.196  0.00  0.00    +0.000 A 
ATOM      7  S   UNL     1      52.005   4.700  17.750  0.00  0.00    +0.000 S 
ATOM      8  C   UNL     1      50.561   3.886  17.367  0.00  0.00    +0.000 A 
ATOM      9  N   UNL     1      50.570   2.573  17.015  0.00  0.00    +0.000 NA
ATOM     10  C   UNL     1      49.395   2.069  16.824  0.00  0.00    +0.000 A 
ATOM     11  N   UNL     1      48.220   2.772  16.917  0.00  0.00    +0.000 N 
ATOM     12  C   UNL     1      48.172   4.132  17.130  0.00  0.00    +0.000 A 
ATOM     13  O   UNL     1      47.133   4.759  16.968  0.00  0.00    +0.000 OA
ATOM     14  C   UNL     1      49.457   4.712  17.477  0.00  0.00    +0.000 A 
ATOM     15  H   UNL     1      47.339   2.334  16.689  0.00  0.00    +0.000 HD
ENDBRANCH   3   5
BRANCH   2  16
ATOM     16  C   UNL     1      49.395   8.346  16.171  0.00  0.00    +0.000 C 
BRANCH  16  17
ATOM     17  C   UNL     1      48.574   7.924  14.982  0.00  0.00    +0.000 A 
ATOM     18  C   UNL     1      47.645   8.806  14.408  0.00  0.00    +0.000 A 
ATOM     19  C   UNL     1      46.868   8.405  13.322  0.00  0.00    +0.000 A 
ATOM     20  C   UNL     1      47.011   7.119  12.787  0.00  0.00    +0.000 A 
ATOM     21  C   UNL     1      47.943   6.242  13.359  0.00  0.00    +0.000 A 
ATOM     22  C   UNL     1      48.717   6.639  14.448  0.00  0.00    +0.000 A 
BRANCH  20  23
ATOM     23  C   UNL     1      46.142   6.662  11.638  0.00  0.00    +0.000 C 
BRANCH  23  24
ATOM     24  N   UNL     1      45.482   5.360  11.853  0.00  0.00    +0.000 NA
ATOM     25  C   UNL     1      44.343   5.481  12.778  0.00  0.00    +0.000 C 
ATOM     26  C   UNL     1      43.634   4.140  12.979  0.00  0.00    +0.000 C 
ATOM     27  C   UNL     1      43.178   3.554  11.650  0.00  0.00    +0.000 C 
ATOM     28  C   UNL     1      44.353   3.471  10.687  0.00  0.00    +0.000 C 
ATOM     29  C   UNL     1      45.053   4.822  10.551  0.00  0.00    +0.000 C 
ENDBRANCH  23  24
ENDBRANCH  20  23
ENDBRANCH  16  17
ENDBRANCH   2  16
TORSDOF 5
ENDMDL
MODEL 8
REMARK VINA RESULT:    -6.298      3.580      8.644
REMARK INTER + INTRA:          -8.997
REMARK INTER:                  -8.129
REMARK INTRA:                  -0.868
REMARK UNBOUND:                -0.857
REMARK  Name = 
REMARK  6 active torsions:
REMARK  status: ('A' for Active; 'I' for Inactive)
REMARK    1  A    between atoms: C_1  and  N_2
REMARK    2  A    between atoms: N_2  and  C_3
REMARK    3  A    between atoms: C_3  and  C_4
REMARK    4  A    between atoms: C_7  and  C_8
REMARK    5  A    between atoms: C_8  and  N_9
REMARK    6  A    between atoms: C_17  and  C_19
REMARK                            x       y       z     vdW  Elec       q    Type
REMARK                         _______ _______ _______ _____ _____    ______ ____
ROOT
ATOM      1  C   UNL     1      49.553   7.603  12.870  0.00  0.00    +0.000 C 
ATOM      2  N   UNL     1      48.788   7.176  14.036  0.00  0.00    +0.000 N 
ATOM      3  C   UNL     1      49.518   6.978  15.222  0.00  0.00    +0.000 C 
ATOM      4  O   UNL     1      50.735   7.151  15.254  0.00  0.00    +0.000 OA
ENDROOT
BRANCH   3   5
ATOM      5  C   UNL     1      48.823   6.518  16.431  0.00  0.00    +0.000 A 
ATOM      6  C   UNL     1      48.559   5.187  16.724  0.00  0.00    +0.000 A 
ATOM      7  S   UNL     1      47.791   4.958  18.230  0.00  0.00    +0.000 S 
ATOM      8  C   UNL     1      47.927   6.611  18.609  0.00  0.00    +0.000 A 
ATOM      9  N   UNL     1      47.552   7.081  19.829  0.00  0.00    +0.000 NA
ATOM     10  C   UNL     1      47.780   8.342  20.001  0.00  0.00    +0.000 A 
ATOM     11  N   UNL     1      48.313   9.176  19.050  0.00  0.00    +0.000 N 
ATOM     12  C   UNL     1      48.574   8.774  17.758  0.00  0.00    +0.000 A 
ATOM     13  O   UNL     1      48.817   9.593  16.881  0.00  0.00    +0.000 OA
ATOM     14  C   UNL     1      48.454   7.341  17.560  0.00  0.00    +0.000 A 
ATOM     15  H   UNL     1      48.403  10.166  19.227  0.00  0.00    +0.000 HD
ENDBRANCH   3   5
BRANCH   2  16
ATOM     16  C   UNL     1      47.321   7.219  13.995  0.00  0.00    +0.000 C 
BRANCH  16  17
ATOM     17  C   UNL     1      46.637   6.362  12.965  0.00  0.00    +0.000 A 
ATOM     18  C   UNL     1      46.252   5.047  13.274  0.00  0.00    +0.000 A 
ATOM     19  C   UNL     1      45.641   4.245  12.312  0.00  0.00    +0.000 A 
ATOM     20  C   UNL     1      45.398   4.745  11.026  0.00  0.00    +0.000 A 
ATOM     21  C   UNL     1      45.779   6.060  10.722  0.00  0.00    +0.000 A 
ATOM     22  C   UNL     1      46.395   6.861  11.681  0.00  0.00    +0.000 A 
BRANCH  20  23
ATOM     23  C   UNL     1      44.775   3.868   9.964  0.00  0.00    +0.000 C 
BRANCH  23  24
ATOM     24  N   UNL     1      45.747   3.229   9.056  0.00  0.00    +0.000 NA
ATOM     25  C   UNL     1      45.432   1.805   8.849  0.00  0.00    +0.000 C 
ATOM     26  C   UNL     1      46.416   1.145   7.881  0.00  0.00    +0.000 C 
ATOM     27  C   UNL     1      46.453   1.879   6.548  0.00  0.00    +0.000 C 
ATOM     28  C   UNL     1      46.737   3.356   6.774  0.00  0.00    +0.000 C 
ATOM     29  C   UNL     1      45.757   3.960   7.777  0.00  0.00    +0.000 C 
ENDBRANCH  23  24
ENDBRANCH  20  23
ENDBRANCH  16  17
ENDBRANCH   2  16
TORSDOF 5
ENDMDL
MODEL 9
REMARK VINA RESULT:    -6.078      3.857      8.536
REMARK INTER + INTRA:          -8.711
REMARK INTER:                  -7.461
REMARK INTRA:                  -1.250
REMARK UNBOUND:                -0.857
REMARK  Name = 
REMARK  6 active torsions:
REMARK  status: ('A' for Active; 'I' for Inactive)
REMARK    1  A    between atoms: C_1  and  N_2
REMARK    2  A    between atoms: N_2  and  C_3
REMARK    3  A    between atoms: C_3  and  C_4
REMARK    4  A    between atoms: C_7  and  C_8
REMARK    5  A    between atoms: C_8  and  N_9
REMARK    6  A    between atoms: C_17  and  C_19
REMARK                            x       y       z     vdW  Elec       q    Type
REMARK                         _______ _______ _______ _____ _____    ______ ____
ROOT
ATOM      1  C   UNL     1      51.823   8.098  14.684  0.00  0.00    +0.000 C 
ATOM      2  N   UNL     1      50.593   7.694  15.359  0.00  0.00    +0.000 N 
ATOM      3  C   UNL     1      50.719   6.685  16.331  0.00  0.00    +0.000 C 
ATOM      4  O   UNL     1      51.810   6.176  16.580  0.00  0.00    +0.000 OA
ENDROOT
BRANCH   3   5
ATOM      5  C   UNL     1      49.522   6.202  17.030  0.00  0.00    +0.000 A 
ATOM      6  C   UNL     1      48.799   5.076  16.663  0.00  0.00    +0.000 A 
ATOM      7  S   UNL     1      47.492   4.731  17.702  0.00  0.00    +0.000 S 
ATOM      8  C   UNL     1      47.941   5.981  18.766  0.00  0.00    +0.000 A 
ATOM      9  N   UNL     1      47.287   6.165  19.944  0.00  0.00    +0.000 NA
ATOM     10  C   UNL     1      47.784   7.103  20.681  0.00  0.00    +0.000 A 
ATOM     11  N   UNL     1      48.848   7.895  20.327  0.00  0.00    +0.000 N 
ATOM     12  C   UNL     1      49.448   7.838  19.088  0.00  0.00    +0.000 A 
ATOM     13  O   UNL     1      50.224   8.712  18.724  0.00  0.00    +0.000 OA
ATOM     14  C   UNL     1      49.008   6.715  18.280  0.00  0.00    +0.000 A 
ATOM     15  H   UNL     1      49.144   8.656  20.922  0.00  0.00    +0.000 HD
ENDBRANCH   3   5
BRANCH   2  16
ATOM     16  C   UNL     1      49.377   8.499  15.190  0.00  0.00    +0.000 C 
BRANCH  16  17
ATOM     17  C   UNL     1      48.371   8.018  14.178  0.00  0.00    +0.000 A 
ATOM     18  C   UNL     1      47.189   8.740  13.951  0.00  0.00    +0.000 A 
ATOM     19  C   UNL     1      46.247   8.282  13.031  0.00  0.00    +0.000 A 
ATOM     20  C   UNL     1      46.474   7.098  12.318  0.00  0.00    +0.000 A 
ATOM     21  C   UNL     1      47.658   6.382  12.543  0.00  0.00    +0.000 A 
ATOM     22  C   UNL     1      48.598   6.836  13.466  0.00  0.00    +0.000 A 
BRANCH  20  23
ATOM     23  C   UNL     1      45.438   6.571  11.352  0.00  0.00    +0.000 C 
BRANCH  23  24
ATOM     24  N   UNL     1      45.102   5.146  11.536  0.00  0.00    +0.000 NA
ATOM     25  C   UNL     1      44.052   4.969  12.554  0.00  0.00    +0.000 C 
ATOM     26  C   UNL     1      43.676   3.496  12.725  0.00  0.00    +0.000 C 
ATOM     27  C   UNL     1      43.239   2.882  11.402  0.00  0.00    +0.000 C 
ATOM     28  C   UNL     1      44.310   3.106  10.345  0.00  0.00    +0.000 C 
ATOM     29  C   UNL     1      44.683   4.584  10.240  0.00  0.00    +0.000 C 
ENDBRANCH  23  24
ENDBRANCH  20  23
ENDBRANCH  16  17
ENDBRANCH   2  16
TORSDOF 5
ENDMDL
