MODEL 1
REMARK VINA RESULT:    -7.525      0.000      0.000
REMARK INTER + INTRA:         -10.019
REMARK INTER:                  -9.505
REMARK INTRA:                  -0.514
REMARK UNBOUND:                -0.514
REMARK  Name = 
REMARK  5 active torsions:
REMARK  status: ('A' for Active; 'I' for Inactive)
REMARK    1  A    between atoms: C_2  and  C_4
REMARK    2  A    between atoms: C_8  and  C_9
REMARK    3  A    between atoms: C_10  and  C_11
REMARK    4  A    between atoms: C_15  and  N_16
REMARK    5  A    between atoms: C_20  and  O_21
REMARK                            x       y       z     vdW  Elec       q    Type
REMARK                         _______ _______ _______ _____ _____    ______ ____
ROOT
ATOM      1  C   UNL     1      45.302   4.509  12.949  0.00  0.00    +0.000 A 
ATOM      2  C   UNL     1      44.172   5.301  13.068  0.00  0.00    +0.000 A 
ATOM      3  N   UNL     1      43.286   5.492  12.070  0.00  0.00    +0.000 NA
ATOM      4  C   UNL     1      43.564   4.865  10.898  0.00  0.00    +0.000 A 
ATOM      5  C   UNL     1      44.670   4.040  10.643  0.00  0.00    +0.000 A 
ATOM      6  C   UNL     1      45.541   3.874  11.729  0.00  0.00    +0.000 A 
ENDROOT
BRANCH   5   7
ATOM      7  N   UNL     1      44.901   3.460   9.408  0.00  0.00    +0.000 N 
ATOM      8  C   UNL     1      44.634   2.044   9.147  0.00  0.00    +0.000 C 
ATOM      9  C   UNL     1      45.860   1.412   8.479  0.00  0.00    +0.000 C 
ATOM     10  C   UNL     1      46.307   2.192   7.244  0.00  0.00    +0.000 C 
ATOM     11  C   UNL     1      46.536   3.667   7.580  0.00  0.00    +0.000 C 
ATOM     12  C   UNL     1      45.286   4.266   8.244  0.00  0.00    +0.000 C 
BRANCH  11  13
ATOM     13  O   UNL     1      46.877   4.381   6.391  0.00  0.00    +0.000 OA
ATOM     14  H   UNL     1      47.817   4.622   6.440  0.00  0.00    +0.000 HD
ENDBRANCH  11  13
ENDBRANCH   5   7
BRANCH   1  16
ATOM     15  C   UNL     1      46.888   4.231  15.027  0.00  0.00    +0.000 C 
ATOM     16  C   UNL     1      46.194   4.358  14.055  0.00  0.00    +0.000 C 
BRANCH  15  21
ATOM     17  C   UNL     1      49.499   3.098  17.447  0.00  0.00    +0.000 A 
ATOM     18  C   UNL     1      49.119   3.812  18.591  0.00  0.00    +0.000 A 
ATOM     19  C   UNL     1      47.998   4.643  18.556  0.00  0.00    +0.000 A 
ATOM     20  C   UNL     1      47.260   4.765  17.379  0.00  0.00    +0.000 A 
ATOM     21  C   UNL     1      47.643   4.066  16.231  0.00  0.00    +0.000 A 
ATOM     22  C   UNL     1      48.765   3.235  16.261  0.00  0.00    +0.000 A 
BRANCH  17  24
ATOM     23  N   UNL     1      51.727   2.556  18.269  0.00  0.00    +0.000 N 
ATOM     24  C   UNL     1      50.691   2.212  17.445  0.00  0.00    +0.000 C 
ATOM     25  O   UNL     1      50.737   1.196  16.765  0.00  0.00    +0.000 OA
ATOM     26  H   UNL     1      52.486   1.891  18.335  0.00  0.00    +0.000 HD
ATOM     27  H   UNL     1      51.627   3.229  19.015  0.00  0.00    +0.000 HD
ENDBRANCH  17  24
ENDBRANCH  15  21
ENDBRANCH   1  16
TORSDOF 5
ENDMDL
MODEL 2
REMARK VINA RESULT:    -7.373      1.794      2.225
REMARK INTER + INTRA:          -9.826
REMARK INTER:                  -9.316
REMARK INTRA:                  -0.510
REMARK UNBOUND:                -0.514
REMARK  Name = 
REMARK  5 active torsions:
REMARK  status: ('A' for Active; 'I' for Inactive)
REMARK    1  A    between atoms: C_2  and  C_4
REMARK    2  A    between atoms: C_8  and  C_9
REMARK    3  A    between atoms: C_10  and  C_11
REMARK    4  A    between atoms: C_15  and  N_16
REMARK    5  A    between atoms: C_20  and  O_21
REMARK                            x       y       z     vdW  Elec       q    Type
REMARK                         _______ _______ _______ _____ _____    ______ ____
ROOT
ATOM      1  C   UNL     1      45.204   4.536  12.908  0.00  0.00    +0.000 A 
ATOM      2  C   UNL     1      44.050   5.296  13.004  0.00  0.00    +0.000 A 
ATOM      3  N   UNL     1      43.170   5.448  11.995  0.00  0.00    +0.000 NA
ATOM      4  C   UNL     1      43.479   4.814  10.834  0.00  0.00    +0.000 A 
ATOM      5  C   UNL     1      44.611   4.019  10.601  0.00  0.00    +0.000 A 
ATOM      6  C   UNL     1      45.474   3.892  11.699  0.00  0.00    +0.000 A 
ENDROOT
BRANCH   5   7
ATOM      7  N   UNL     1      44.871   3.430   9.376  0.00  0.00    +0.000 N 
ATOM      8  C   UNL     1      44.615   2.011   9.121  0.00  0.00    +0.000 C 
ATOM      9  C   UNL     1      45.858   1.378   8.485  0.00  0.00    +0.000 C 
ATOM     10  C   UNL     1      46.330   2.150   7.256  0.00  0.00    +0.000 C 
ATOM     11  C   UNL     1      46.546   3.629   7.584  0.00  0.00    +0.000 C 
ATOM     12  C   UNL     1      45.279   4.228   8.215  0.00  0.00    +0.000 C 
BRANCH  11  13
ATOM     13  O   UNL     1      46.911   4.334   6.398  0.00  0.00    +0.000 OA
ATOM     14  H   UNL     1      46.473   3.907   5.642  0.00  0.00    +0.000 HD
ENDBRANCH  11  13
ENDBRANCH   5   7
BRANCH   1  16
ATOM     15  C   UNL     1      46.790   4.282  14.990  0.00  0.00    +0.000 C 
ATOM     16  C   UNL     1      46.088   4.425  14.025  0.00  0.00    +0.000 C 
BRANCH  15  21
ATOM     17  C   UNL     1      48.292   4.652  18.390  0.00  0.00    +0.000 A 
ATOM     18  C   UNL     1      49.097   3.507  18.444  0.00  0.00    +0.000 A 
ATOM     19  C   UNL     1      49.148   2.637  17.353  0.00  0.00    +0.000 A 
ATOM     20  C   UNL     1      48.394   2.908  16.212  0.00  0.00    +0.000 A 
ATOM     21  C   UNL     1      47.578   4.043  16.159  0.00  0.00    +0.000 A 
ATOM     22  C   UNL     1      47.522   4.913  17.249  0.00  0.00    +0.000 A 
BRANCH  17  24
ATOM     23  N   UNL     1      46.987   5.729  20.142  0.00  0.00    +0.000 N 
ATOM     24  C   UNL     1      48.205   5.595  19.535  0.00  0.00    +0.000 C 
ATOM     25  O   UNL     1      49.185   6.201  19.946  0.00  0.00    +0.000 OA
ATOM     26  H   UNL     1      46.965   6.293  20.981  0.00  0.00    +0.000 HD
ATOM     27  H   UNL     1      46.233   5.073  19.998  0.00  0.00    +0.000 HD
ENDBRANCH  17  24
ENDBRANCH  15  21
ENDBRANCH   1  16
TORSDOF 5
ENDMDL
MODEL 3
REMARK VINA RESULT:    -6.871      1.759      1.927
REMARK INTER + INTRA:          -9.192
REMARK INTER:                  -8.682
REMARK INTRA:                  -0.510
REMARK UNBOUND:                -0.514
REMARK  Name = 
REMARK  5 active torsions:
REMARK  status: ('A' for Active; 'I' for Inactive)
REMARK    1  A    between atoms: C_2  and  C_4
REMARK    2  A    between atoms: C_8  and  C_9
REMARK    3  A    between atoms: C_10  and  C_11
REMARK    4  A    between atoms: C_15  and  N_16
REMARK    5  A    between atoms: C_20  and  O_21
REMARK                            x       y       z     vdW  Elec       q    Type
REMARK                         _______ _______ _______ _____ _____    ______ ____
ROOT
ATOM      1  C   UNL     1      45.345   4.673  12.816  0.00  0.00    +0.000 A 
ATOM      2  C   UNL     1      44.022   4.961  13.108  0.00  0.00    +0.000 A 
ATOM      3  N   UNL     1      43.000   4.713  12.266  0.00  0.00    +0.000 NA
ATOM      4  C   UNL     1      43.333   4.162  11.070  0.00  0.00    +0.000 A 
ATOM      5  C   UNL     1      44.628   3.823  10.647  0.00  0.00    +0.000 A 
ATOM      6  C   UNL     1      45.639   4.094  11.579  0.00  0.00    +0.000 A 
ENDROOT
BRANCH   5   7
ATOM      7  N   UNL     1      44.889   3.291   9.397  0.00  0.00    +0.000 N 
ATOM      8  C   UNL     1      44.678   1.875   9.090  0.00  0.00    +0.000 C 
ATOM      9  C   UNL     1      45.933   1.311   8.413  0.00  0.00    +0.000 C 
ATOM     10  C   UNL     1      46.360   2.144   7.208  0.00  0.00    +0.000 C 
ATOM     11  C   UNL     1      46.530   3.616   7.591  0.00  0.00    +0.000 C 
ATOM     12  C   UNL     1      45.253   4.147   8.262  0.00  0.00    +0.000 C 
BRANCH  11  13
ATOM     13  O   UNL     1      46.853   4.379   6.428  0.00  0.00    +0.000 OA
ATOM     14  H   UNL     1      46.275   4.089   5.703  0.00  0.00    +0.000 HD
ENDBRANCH  11  13
ENDBRANCH   5   7
BRANCH   1  16
ATOM     15  C   UNL     1      47.195   5.262  14.589  0.00  0.00    +0.000 C 
ATOM     16  C   UNL     1      46.372   4.967  13.764  0.00  0.00    +0.000 C 
BRANCH  15  21
ATOM     17  C   UNL     1      49.215   5.279  17.731  0.00  0.00    +0.000 A 
ATOM     18  C   UNL     1      49.955   6.455  17.557  0.00  0.00    +0.000 A 
ATOM     19  C   UNL     1      49.767   7.237  16.416  0.00  0.00    +0.000 A 
ATOM     20  C   UNL     1      48.844   6.843  15.447  0.00  0.00    +0.000 A 
ATOM     21  C   UNL     1      48.112   5.662  15.610  0.00  0.00    +0.000 A 
ATOM     22  C   UNL     1      48.300   4.876  16.749  0.00  0.00    +0.000 A 
BRANCH  17  24
ATOM     23  N   UNL     1      48.394   3.531  19.216  0.00  0.00    +0.000 N 
ATOM     24  C   UNL     1      49.395   4.417  18.927  0.00  0.00    +0.000 C 
ATOM     25  O   UNL     1      50.410   4.465  19.608  0.00  0.00    +0.000 OA
ATOM     26  H   UNL     1      48.575   2.881  19.969  0.00  0.00    +0.000 HD
ATOM     27  H   UNL     1      47.675   3.289  18.550  0.00  0.00    +0.000 HD
ENDBRANCH  17  24
ENDBRANCH  15  21
ENDBRANCH   1  16
TORSDOF 5
ENDMDL
MODEL 4
REMARK VINA RESULT:    -6.507      3.514      9.688
REMARK INTER + INTRA:          -8.733
REMARK INTER:                  -8.223
REMARK INTRA:                  -0.510
REMARK UNBOUND:                -0.514
REMARK  Name = 
REMARK  5 active torsions:
REMARK  status: ('A' for Active; 'I' for Inactive)
REMARK    1  A    between atoms: C_2  and  C_4
REMARK    2  A    between atoms: C_8  and  C_9
REMARK    3  A    between atoms: C_10  and  C_11
REMARK    4  A    between atoms: C_15  and  N_16
REMARK    5  A    between atoms: C_20  and  O_21
REMARK                            x       y       z     vdW  Elec       q    Type
REMARK                         _______ _______ _______ _____ _____    ______ ____
ROOT
ATOM      1  C   UNL     1      47.796   4.468  16.852  0.00  0.00    +0.000 A 
ATOM      2  C   UNL     1      48.277   3.279  17.374  0.00  0.00    +0.000 A 
ATOM      3  N   UNL     1      48.740   3.149  18.634  0.00  0.00    +0.000 NA
ATOM      4  C   UNL     1      48.728   4.275  19.392  0.00  0.00    +0.000 A 
ATOM      5  C   UNL     1      48.273   5.540  18.989  0.00  0.00    +0.000 A 
ATOM      6  C   UNL     1      47.791   5.598  17.673  0.00  0.00    +0.000 A 
ENDROOT
BRANCH   5   7
ATOM      7  N   UNL     1      48.323   6.649  19.814  0.00  0.00    +0.000 N 
ATOM      8  C   UNL     1      48.419   6.536  21.271  0.00  0.00    +0.000 C 
ATOM      9  C   UNL     1      47.356   7.430  21.920  0.00  0.00    +0.000 C 
ATOM     10  C   UNL     1      47.424   8.867  21.408  0.00  0.00    +0.000 C 
ATOM     11  C   UNL     1      47.351   8.910  19.880  0.00  0.00    +0.000 C 
ATOM     12  C   UNL     1      48.432   8.006  19.267  0.00  0.00    +0.000 C 
BRANCH  11  13
ATOM     13  O   UNL     1      47.494  10.257  19.431  0.00  0.00    +0.000 OA
ATOM     14  H   UNL     1      47.546  10.252  18.461  0.00  0.00    +0.000 HD
ENDBRANCH  11  13
ENDBRANCH   5   7
BRANCH   1  16
ATOM     15  C   UNL     1      46.865   4.596  14.397  0.00  0.00    +0.000 C 
ATOM     16  C   UNL     1      47.322   4.523  15.506  0.00  0.00    +0.000 C 
BRANCH  15  21
ATOM     17  C   UNL     1      44.834   3.875  11.346  0.00  0.00    +0.000 A 
ATOM     18  C   UNL     1      45.039   5.051  10.614  0.00  0.00    +0.000 A 
ATOM     19  C   UNL     1      45.856   6.060  11.127  0.00  0.00    +0.000 A 
ATOM     20  C   UNL     1      46.466   5.896  12.370  0.00  0.00    +0.000 A 
ATOM     21  C   UNL     1      46.254   4.728  13.111  0.00  0.00    +0.000 A 
ATOM     22  C   UNL     1      45.434   3.719  12.603  0.00  0.00    +0.000 A 
BRANCH  17  24
ATOM     23  N   UNL     1      44.388   2.113   9.724  0.00  0.00    +0.000 N 
ATOM     24  C   UNL     1      43.963   2.784  10.837  0.00  0.00    +0.000 C 
ATOM     25  O   UNL     1      42.926   2.470  11.405  0.00  0.00    +0.000 OA
ATOM     26  H   UNL     1      43.840   1.309   9.449  0.00  0.00    +0.000 HD
ATOM     27  H   UNL     1      45.337   2.172   9.384  0.00  0.00    +0.000 HD
ENDBRANCH  17  24
ENDBRANCH  15  21
ENDBRANCH   1  16
TORSDOF 5
ENDMDL
MODEL 5
REMARK VINA RESULT:    -6.376      4.185      4.724
REMARK INTER + INTRA:          -8.568
REMARK INTER:                  -8.040
REMARK INTRA:                  -0.527
REMARK UNBOUND:                -0.514
REMARK  Name = 
REMARK  5 active torsions:
REMARK  status: ('A' for Active; 'I' for Inactive)
REMARK    1  A    between atoms: C_2  and  C_4
REMARK    2  A    between atoms: C_8  and  C_9
REMARK    3  A    between atoms: C_10  and  C_11
REMARK    4  A    between atoms: C_15  and  N_16
REMARK    5  A    between atoms: C_20  and  O_21
REMARK                            x       y       z     vdW  Elec       q    Type
REMARK                         _______ _______ _______ _____ _____    ______ ____
ROOT
ATOM      1  C   UNL     1      45.076   5.774  12.088  0.00  0.00    +0.000 A 
ATOM      2  C   UNL     1      44.014   5.285  12.831  0.00  0.00    +0.000 A 
ATOM      3  N   UNL     1      43.272   4.221  12.463  0.00  0.00    +0.000 NA
ATOM      4  C   UNL     1      43.613   3.636  11.286  0.00  0.00    +0.000 A 
ATOM      5  C   UNL     1      44.660   4.029  10.438  0.00  0.00    +0.000 A 
ATOM      6  C   UNL     1      45.398   5.132  10.890  0.00  0.00    +0.000 A 
ENDROOT
BRANCH   5   7
ATOM      7  N   UNL     1      44.925   3.398   9.236  0.00  0.00    +0.000 N 
ATOM      8  C   UNL     1      44.731   1.958   9.050  0.00  0.00    +0.000 C 
ATOM      9  C   UNL     1      45.991   1.356   8.417  0.00  0.00    +0.000 C 
ATOM     10  C   UNL     1      46.403   2.091   7.145  0.00  0.00    +0.000 C 
ATOM     11  C   UNL     1      46.555   3.592   7.402  0.00  0.00    +0.000 C 
ATOM     12  C   UNL     1      45.273   4.160   8.032  0.00  0.00    +0.000 C 
BRANCH  11  13
ATOM     13  O   UNL     1      46.864   4.258   6.178  0.00  0.00    +0.000 OA
ATOM     14  H   UNL     1      46.082   4.763   5.900  0.00  0.00    +0.000 HD
ENDBRANCH  11  13
ENDBRANCH   5   7
BRANCH   1  16
ATOM     15  C   UNL     1      46.490   7.823  12.933  0.00  0.00    +0.000 C 
ATOM     16  C   UNL     1      45.813   6.908  12.547  0.00  0.00    +0.000 C 
BRANCH  15  21
ATOM     17  C   UNL     1      48.817   9.833  15.054  0.00  0.00    +0.000 A 
ATOM     18  C   UNL     1      49.112  10.892  14.185  0.00  0.00    +0.000 A 
ATOM     19  C   UNL     1      48.526  10.939  12.919  0.00  0.00    +0.000 A 
ATOM     20  C   UNL     1      47.651   9.929  12.519  0.00  0.00    +0.000 A 
ATOM     21  C   UNL     1      47.365   8.863  13.378  0.00  0.00    +0.000 A 
ATOM     22  C   UNL     1      47.951   8.811  14.644  0.00  0.00    +0.000 A 
BRANCH  17  24
ATOM     23  N   UNL     1      50.354  10.695  16.736  0.00  0.00    +0.000 N 
ATOM     24  C   UNL     1      49.429   9.744  16.405  0.00  0.00    +0.000 C 
ATOM     25  O   UNL     1      49.097   8.881  17.207  0.00  0.00    +0.000 OA
ATOM     26  H   UNL     1      50.685  10.685  17.691  0.00  0.00    +0.000 HD
ATOM     27  H   UNL     1      50.466  11.550  16.210  0.00  0.00    +0.000 HD
ENDBRANCH  17  24
ENDBRANCH  15  21
ENDBRANCH   1  16
TORSDOF 5
ENDMDL
MODEL 6
REMARK VINA RESULT:    -6.155      5.844      7.486
REMARK INTER + INTRA:          -8.288
REMARK INTER:                  -7.772
REMARK INTRA:                  -0.517
REMARK UNBOUND:                -0.514
REMARK  Name = 
REMARK  5 active torsions:
REMARK  status: ('A' for Active; 'I' for Inactive)
REMARK    1  A    between atoms: C_2  and  C_4
REMARK    2  A    between atoms: C_8  and  C_9
REMARK    3  A    between atoms: C_10  and  C_11
REMARK    4  A    between atoms: C_15  and  N_16
REMARK    5  A    between atoms: C_20  and  O_21
REMARK                            x       y       z     vdW  Elec       q    Type
REMARK                         _______ _______ _______ _____ _____    ______ ____
ROOT
ATOM      1  C   UNL     1      48.635   7.932  12.009  0.00  0.00    +0.000 A 
ATOM      2  C   UNL     1      48.244   9.039  12.745  0.00  0.00    +0.000 A 
ATOM      3  N   UNL     1      47.025   9.168  13.307  0.00  0.00    +0.000 NA
ATOM      4  C   UNL     1      46.163   8.139  13.104  0.00  0.00    +0.000 A 
ATOM      5  C   UNL     1      46.428   6.967  12.380  0.00  0.00    +0.000 A 
ATOM      6  C   UNL     1      47.719   6.893  11.837  0.00  0.00    +0.000 A 
ENDROOT
BRANCH   5   7
ATOM      7  N   UNL     1      45.482   5.975  12.192  0.00  0.00    +0.000 N 
ATOM      8  C   UNL     1      45.264   4.907  13.171  0.00  0.00    +0.000 C 
ATOM      9  C   UNL     1      45.268   3.553  12.453  0.00  0.00    +0.000 C 
ATOM     10  C   UNL     1      44.293   3.522  11.279  0.00  0.00    +0.000 C 
ATOM     11  C   UNL     1      44.556   4.680  10.315  0.00  0.00    +0.000 C 
ATOM     12  C   UNL     1      44.540   6.019  11.069  0.00  0.00    +0.000 C 
BRANCH  11  13
ATOM     13  O   UNL     1      43.580   4.667   9.273  0.00  0.00    +0.000 OA
ATOM     14  H   UNL     1      43.988   4.282   8.479  0.00  0.00    +0.000 HD
ENDBRANCH  11  13
ENDBRANCH   5   7
BRANCH   1  16
ATOM     15  C   UNL     1      51.026   7.771  10.926  0.00  0.00    +0.000 C 
ATOM     16  C   UNL     1      49.946   7.871  11.444  0.00  0.00    +0.000 C 
BRANCH  15  21
ATOM     17  C   UNL     1      53.610   6.603   8.495  0.00  0.00    +0.000 A 
ATOM     18  C   UNL     1      54.721   7.342   8.922  0.00  0.00    +0.000 A 
ATOM     19  C   UNL     1      54.609   8.202  10.015  0.00  0.00    +0.000 A 
ATOM     20  C   UNL     1      53.389   8.328  10.680  0.00  0.00    +0.000 A 
ATOM     21  C   UNL     1      52.273   7.602  10.249  0.00  0.00    +0.000 A 
ATOM     22  C   UNL     1      52.381   6.743   9.153  0.00  0.00    +0.000 A 
BRANCH  17  24
ATOM     23  N   UNL     1      53.884   4.357   7.592  0.00  0.00    +0.000 N 
ATOM     24  C   UNL     1      53.689   5.685   7.329  0.00  0.00    +0.000 C 
ATOM     25  O   UNL     1      53.548   6.088   6.183  0.00  0.00    +0.000 OA
ATOM     26  H   UNL     1      53.832   3.732   6.799  0.00  0.00    +0.000 HD
ATOM     27  H   UNL     1      53.754   3.960   8.511  0.00  0.00    +0.000 HD
ENDBRANCH  17  24
ENDBRANCH  15  21
ENDBRANCH   1  16
TORSDOF 5
ENDMDL
MODEL 7
REMARK VINA RESULT:    -6.118      2.889      9.453
REMARK INTER + INTRA:          -8.241
REMARK INTER:                  -7.739
REMARK INTRA:                  -0.502
REMARK UNBOUND:                -0.514
REMARK  Name = 
REMARK  5 active torsions:
REMARK  status: ('A' for Active; 'I' for Inactive)
REMARK    1  A    between atoms: C_2  and  C_4
REMARK    2  A    between atoms: C_8  and  C_9
REMARK    3  A    between atoms: C_10  and  C_11
REMARK    4  A    between atoms: C_15  and  N_16
REMARK    5  A    between atoms: C_20  and  O_21
REMARK                            x       y       z     vdW  Elec       q    Type
REMARK                         _______ _______ _______ _____ _____    ______ ____
ROOT
ATOM      1  C   UNL     1      48.491   6.397  14.837  0.00  0.00    +0.000 A 
ATOM      2  C   UNL     1      49.481   7.188  14.277  0.00  0.00    +0.000 A 
ATOM      3  N   UNL     1      50.525   7.682  14.972  0.00  0.00    +0.000 NA
ATOM      4  C   UNL     1      50.559   7.375  16.294  0.00  0.00    +0.000 A 
ATOM      5  C   UNL     1      49.624   6.590  16.986  0.00  0.00    +0.000 A 
ATOM      6  C   UNL     1      48.575   6.097  16.198  0.00  0.00    +0.000 A 
ENDROOT
BRANCH   5   7
ATOM      7  N   UNL     1      49.713   6.348  18.345  0.00  0.00    +0.000 N 
ATOM      8  C   UNL     1      50.737   6.972  19.186  0.00  0.00    +0.000 C 
ATOM      9  C   UNL     1      51.423   5.895  20.033  0.00  0.00    +0.000 C 
ATOM     10  C   UNL     1      50.418   5.050  20.812  0.00  0.00    +0.000 C 
ATOM     11  C   UNL     1      49.360   4.456  19.880  0.00  0.00    +0.000 C 
ATOM     12  C   UNL     1      48.693   5.565  19.052  0.00  0.00    +0.000 C 
BRANCH  11  13
ATOM     13  O   UNL     1      48.394   3.738  20.649  0.00  0.00    +0.000 OA
ATOM     14  H   UNL     1      47.568   3.697  20.138  0.00  0.00    +0.000 HD
ENDBRANCH  11  13
ENDBRANCH   5   7
BRANCH   1  16
ATOM     15  C   UNL     1      46.477   5.560  13.369  0.00  0.00    +0.000 C 
ATOM     16  C   UNL     1      47.416   5.912  14.031  0.00  0.00    +0.000 C 
BRANCH  15  21
ATOM     17  C   UNL     1      44.305   4.148  10.679  0.00  0.00    +0.000 A 
ATOM     18  C   UNL     1      43.039   4.536  11.136  0.00  0.00    +0.000 A 
ATOM     19  C   UNL     1      42.919   5.273  12.316  0.00  0.00    +0.000 A 
ATOM     20  C   UNL     1      44.060   5.619  13.039  0.00  0.00    +0.000 A 
ATOM     21  C   UNL     1      45.325   5.221  12.594  0.00  0.00    +0.000 A 
ATOM     22  C   UNL     1      45.449   4.481  11.416  0.00  0.00    +0.000 A 
BRANCH  17  24
ATOM     23  N   UNL     1      44.580   1.998   9.567  0.00  0.00    +0.000 N 
ATOM     24  C   UNL     1      44.471   3.355   9.433  0.00  0.00    +0.000 C 
ATOM     25  O   UNL     1      44.474   3.882   8.329  0.00  0.00    +0.000 OA
ATOM     26  H   UNL     1      44.588   1.463   8.708  0.00  0.00    +0.000 HD
ATOM     27  H   UNL     1      44.333   1.515  10.418  0.00  0.00    +0.000 HD
ENDBRANCH  17  24
ENDBRANCH  15  21
ENDBRANCH   1  16
TORSDOF 5
ENDMDL
MODEL 8
REMARK VINA RESULT:    -6.056      4.518      5.454
REMARK INTER + INTRA:          -8.164
REMARK INTER:                  -7.654
REMARK INTRA:                  -0.510
REMARK UNBOUND:                -0.514
REMARK  Name = 
REMARK  5 active torsions:
REMARK  status: ('A' for Active; 'I' for Inactive)
REMARK    1  A    between atoms: C_2  and  C_4
REMARK    2  A    between atoms: C_8  and  C_9
REMARK    3  A    between atoms: C_10  and  C_11
REMARK    4  A    between atoms: C_15  and  N_16
REMARK    5  A    between atoms: C_20  and  O_21
REMARK                            x       y       z     vdW  Elec       q    Type
REMARK                         _______ _______ _______ _____ _____    ______ ____
ROOT
ATOM      1  C   UNL     1      45.193   5.377  12.011  0.00  0.00    +0.000 A 
ATOM      2  C   UNL     1      44.129   4.857  12.730  0.00  0.00    +0.000 A 
ATOM      3  N   UNL     1      43.398   3.799  12.325  0.00  0.00    +0.000 NA
ATOM      4  C   UNL     1      43.751   3.254  11.132  0.00  0.00    +0.000 A 
ATOM      5  C   UNL     1      44.800   3.681  10.304  0.00  0.00    +0.000 A 
ATOM      6  C   UNL     1      45.527   4.774  10.796  0.00  0.00    +0.000 A 
ENDROOT
BRANCH   5   7
ATOM      7  N   UNL     1      45.077   3.089   9.085  0.00  0.00    +0.000 N 
ATOM      8  C   UNL     1      45.001   1.640   8.883  0.00  0.00    +0.000 C 
ATOM      9  C   UNL     1      46.286   1.156   8.202  0.00  0.00    +0.000 C 
ATOM     10  C   UNL     1      46.591   1.939   6.928  0.00  0.00    +0.000 C 
ATOM     11  C   UNL     1      46.623   3.444   7.202  0.00  0.00    +0.000 C 
ATOM     12  C   UNL     1      45.319   3.893   7.881  0.00  0.00    +0.000 C 
BRANCH  11  13
ATOM     13  O   UNL     1      46.833   4.150   5.979  0.00  0.00    +0.000 OA
ATOM     14  H   UNL     1      46.135   3.891   5.354  0.00  0.00    +0.000 HD
ENDBRANCH  11  13
ENDBRANCH   5   7
BRANCH   1  16
ATOM     15  C   UNL     1      46.574   7.404  12.956  0.00  0.00    +0.000 C 
ATOM     16  C   UNL     1      45.918   6.501  12.510  0.00  0.00    +0.000 C 
BRANCH  15  21
ATOM     17  C   UNL     1      48.364  10.646  13.443  0.00  0.00    +0.000 A 
ATOM     18  C   UNL     1      49.034  10.394  14.647  0.00  0.00    +0.000 A 
ATOM     19  C   UNL     1      48.902   9.154  15.274  0.00  0.00    +0.000 A 
ATOM     20  C   UNL     1      48.099   8.167  14.702  0.00  0.00    +0.000 A 
ATOM     21  C   UNL     1      47.416   8.419  13.507  0.00  0.00    +0.000 A 
ATOM     22  C   UNL     1      47.544   9.660  12.879  0.00  0.00    +0.000 A 
BRANCH  17  24
ATOM     23  N   UNL     1      49.731  12.449  12.542  0.00  0.00    +0.000 N 
ATOM     24  C   UNL     1      48.473  11.957  12.753  0.00  0.00    +0.000 C 
ATOM     25  O   UNL     1      47.485  12.559  12.354  0.00  0.00    +0.000 OA
ATOM     26  H   UNL     1      49.795  13.289  11.982  0.00  0.00    +0.000 HD
ATOM     27  H   UNL     1      50.559  11.878  12.627  0.00  0.00    +0.000 HD
ENDBRANCH  17  24
ENDBRANCH  15  21
ENDBRANCH   1  16
TORSDOF 5
ENDMDL
MODEL 9
REMARK VINA RESULT:    -5.865      5.981      8.254
REMARK INTER + INTRA:          -7.922
REMARK INTER:                  -7.399
REMARK INTRA:                  -0.523
REMARK UNBOUND:                -0.514
REMARK  Name = 
REMARK  5 active torsions:
REMARK  status: ('A' for Active; 'I' for Inactive)
REMARK    1  A    between atoms: C_2  and  C_4
REMARK    2  A    between atoms: C_8  and  C_9
REMARK    3  A    between atoms: C_10  and  C_11
REMARK    4  A    between atoms: C_15  and  N_16
REMARK    5  A    between atoms: C_20  and  O_21
REMARK                            x       y       z     vdW  Elec       q    Type
REMARK                         _______ _______ _______ _____ _____    ______ ____
ROOT
ATOM      1  C   UNL     1      49.543   8.193  11.772  0.00  0.00    +0.000 A 
ATOM      2  C   UNL     1      49.744   9.359  12.492  0.00  0.00    +0.000 A 
ATOM      3  N   UNL     1      50.873  10.093  12.425  0.00  0.00    +0.000 NA
ATOM      4  C   UNL     1      51.844   9.617  11.603  0.00  0.00    +0.000 A 
ATOM      5  C   UNL     1      51.772   8.454  10.822  0.00  0.00    +0.000 A 
ATOM      6  C   UNL     1      50.565   7.749  10.930  0.00  0.00    +0.000 A 
ENDROOT
BRANCH   5   7
ATOM      7  N   UNL     1      52.821   8.019  10.032  0.00  0.00    +0.000 N 
ATOM      8  C   UNL     1      53.613   8.936   9.209  0.00  0.00    +0.000 C 
ATOM      9  C   UNL     1      53.714   8.381   7.784  0.00  0.00    +0.000 C 
ATOM     10  C   UNL     1      54.221   6.941   7.763  0.00  0.00    +0.000 C 
ATOM     11  C   UNL     1      53.371   6.045   8.667  0.00  0.00    +0.000 C 
ATOM     12  C   UNL     1      53.296   6.632  10.086  0.00  0.00    +0.000 C 
BRANCH  11  13
ATOM     13  O   UNL     1      53.917   4.727   8.685  0.00  0.00    +0.000 OA
ATOM     14  H   UNL     1      54.307   4.546   7.813  0.00  0.00    +0.000 HD
ENDBRANCH  11  13
ENDBRANCH   5   7
BRANCH   1  16
ATOM     15  C   UNL     1      47.272   6.879  11.940  0.00  0.00    +0.000 C 
ATOM     16  C   UNL     1      48.316   7.472  11.899  0.00  0.00    +0.000 C 
BRANCH  15  21
ATOM     17  C   UNL     1      44.493   4.641  10.835  0.00  0.00    +0.000 A 
ATOM     18  C   UNL     1      43.592   4.802  11.895  0.00  0.00    +0.000 A 
ATOM     19  C   UNL     1      43.904   5.658  12.952  0.00  0.00    +0.000 A 
ATOM     20  C   UNL     1      45.115   6.351  12.952  0.00  0.00    +0.000 A 
ATOM     21  C   UNL     1      46.023   6.183  11.902  0.00  0.00    +0.000 A 
ATOM     22  C   UNL     1      45.716   5.324  10.845  0.00  0.00    +0.000 A 
BRANCH  17  24
ATOM     23  N   UNL     1      44.228   4.270   8.441  0.00  0.00    +0.000 N 
ATOM     24  C   UNL     1      44.200   3.730   9.698  0.00  0.00    +0.000 C 
ATOM     25  O   UNL     1      43.978   2.539   9.868  0.00  0.00    +0.000 OA
ATOM     26  H   UNL     1      44.129   3.620   7.673  0.00  0.00    +0.000 HD
ATOM     27  H   UNL     1      44.646   5.168   8.246  0.00  0.00    +0.000 HD
ENDBRANCH  17  24
ENDBRANCH  15  21
ENDBRANCH   1  16
TORSDOF 5
ENDMDL
