MODEL 1
REMARK VINA RESULT:    -8.387      0.000      0.000
REMARK INTER + INTRA:         -12.296
REMARK INTER:                 -11.329
REMARK INTRA:                  -0.967
REMARK UNBOUND:                -0.967
REMARK  Name = 
REMARK  6 active torsions:
REMARK  status: ('A' for Active; 'I' for Inactive)
REMARK    1  A    between atoms: C_2  and  C_4
REMARK    2  A    between atoms: C_7  and  O_8
REMARK    3  A    between atoms: O_8  and  C_9
REMARK    4  A    between atoms: C_9  and  C_10
REMARK    5  A    between atoms: C_10  and  C_11
REMARK    6  A    between atoms: C_15  and  C_16
REMARK                            x       y       z     vdW  Elec       q    Type
REMARK                         _______ _______ _______ _____ _____    ______ ____
ROOT
ATOM      1  C   UNL     1      43.331   5.029  12.388  0.00  0.00    +0.000 C 
ENDROOT
BRANCH   1   2
ATOM      2  C   UNL     1      44.773   5.267  12.764  0.00  0.00    +0.000 A 
ATOM      3  C   UNL     1      45.545   4.248  13.323  0.00  0.00    +0.000 A 
ATOM      4  C   UNL     1      46.882   4.483  13.629  0.00  0.00    +0.000 A 
ATOM      5  C   UNL     1      47.455   5.733  13.373  0.00  0.00    +0.000 A 
ATOM      6  C   UNL     1      46.724   6.773  12.765  0.00  0.00    +0.000 A 
ATOM      7  C   UNL     1      45.374   6.505  12.474  0.00  0.00    +0.000 A 
BRANCH   6   8
ATOM      8  C   UNL     1      47.384   8.040  12.345  0.00  0.00    +0.000 A 
ATOM      9  C   UNL     1      48.765   8.007  12.039  0.00  0.00    +0.000 A 
ATOM     10  C   UNL     1      49.453   9.127  11.561  0.00  0.00    +0.000 A 
ATOM     11  C   UNL     1      48.774  10.317  11.347  0.00  0.00    +0.000 A 
ATOM     12  C   UNL     1      47.418  10.394  11.651  0.00  0.00    +0.000 A 
ATOM     13  C   UNL     1      46.732   9.282  12.167  0.00  0.00    +0.000 A 
ATOM     14 CL   UNL     1      45.078   9.563  12.605  0.00  0.00    +0.000 Cl
ENDBRANCH   6   8
ENDBRANCH   1   2
BRANCH   1  15
ATOM     15  C   UNL     1      43.241   3.983  11.280  0.00  0.00    +0.000 C 
BRANCH  15  16
ATOM     16  O   UNL     1      43.673   4.547  10.042  0.00  0.00    +0.000 OA
BRANCH  16  20
ATOM     17  C   UNL     1      46.437   2.454   7.726  0.00  0.00    +0.000 A 
ATOM     18  C   UNL     1      45.632   1.736   8.608  0.00  0.00    +0.000 A 
ATOM     19  C   UNL     1      44.695   2.404   9.402  0.00  0.00    +0.000 A 
ATOM     20  C   UNL     1      44.567   3.794   9.329  0.00  0.00    +0.000 A 
ATOM     21  C   UNL     1      45.398   4.510   8.464  0.00  0.00    +0.000 A 
ATOM     22  C   UNL     1      46.337   3.848   7.667  0.00  0.00    +0.000 A 
BRANCH  17  24
ATOM     23  N   UNL     1      48.520   2.486   6.470  0.00  0.00    +0.000 N 
ATOM     24  C   UNL     1      47.420   1.768   6.846  0.00  0.00    +0.000 C 
ATOM     25  O   UNL     1      47.279   0.603   6.506  0.00  0.00    +0.000 OA
ATOM     26  H   UNL     1      49.241   1.971   5.968  0.00  0.00    +0.000 HD
ATOM     27  H   UNL     1      48.797   3.336   6.940  0.00  0.00    +0.000 HD
ENDBRANCH  17  24
ENDBRANCH  16  20
ENDBRANCH  15  16
ENDBRANCH   1  15
TORSDOF 6
ENDMDL
MODEL 2
REMARK VINA RESULT:    -8.268      2.035      3.836
REMARK INTER + INTRA:         -12.135
REMARK INTER:                 -11.143
REMARK INTRA:                  -0.992
REMARK UNBOUND:                -0.967
REMARK  Name = 
REMARK  6 active torsions:
REMARK  status: ('A' for Active; 'I' for Inactive)
REMARK    1  A    between atoms: C_2  and  C_4
REMARK    2  A    between atoms: C_7  and  O_8
REMARK    3  A    between atoms: O_8  and  C_9
REMARK    4  A    between atoms: C_9  and  C_10
REMARK    5  A    between atoms: C_10  and  C_11
REMARK    6  A    between atoms: C_15  and  C_16
REMARK                            x       y       z     vdW  Elec       q    Type
REMARK                         _______ _______ _______ _____ _____    ______ ____
ROOT
ATOM      1  C   UNL     1      43.631   5.307  12.120  0.00  0.00    +0.000 C 
ENDROOT
BRANCH   1   2
ATOM      2  C   UNL     1      45.087   5.577  12.407  0.00  0.00    +0.000 A 
ATOM      3  C   UNL     1      45.854   6.362  11.545  0.00  0.00    +0.000 A 
ATOM      4  C   UNL     1      47.187   6.625  11.851  0.00  0.00    +0.000 A 
ATOM      5  C   UNL     1      47.756   6.110  13.021  0.00  0.00    +0.000 A 
ATOM      6  C   UNL     1      47.004   5.354  13.941  0.00  0.00    +0.000 A 
ATOM      7  C   UNL     1      45.663   5.103  13.600  0.00  0.00    +0.000 A 
BRANCH   6   8
ATOM      8  C   UNL     1      47.570   4.953  15.259  0.00  0.00    +0.000 A 
ATOM      9  C   UNL     1      47.328   3.637  15.720  0.00  0.00    +0.000 A 
ATOM     10  C   UNL     1      47.882   3.146  16.906  0.00  0.00    +0.000 A 
ATOM     11  C   UNL     1      48.723   3.949  17.662  0.00  0.00    +0.000 A 
ATOM     12  C   UNL     1      48.972   5.255  17.250  0.00  0.00    +0.000 A 
ATOM     13  C   UNL     1      48.387   5.764  16.079  0.00  0.00    +0.000 A 
ATOM     14 CL   UNL     1      48.698   7.440  15.759  0.00  0.00    +0.000 Cl
ENDBRANCH   6   8
ENDBRANCH   1   2
BRANCH   1  15
ATOM     15  C   UNL     1      43.426   5.054  10.629  0.00  0.00    +0.000 C 
BRANCH  15  16
ATOM     16  O   UNL     1      43.552   3.659  10.351  0.00  0.00    +0.000 OA
BRANCH  16  20
ATOM     17  C   UNL     1      46.451   2.412   7.626  0.00  0.00    +0.000 A 
ATOM     18  C   UNL     1      46.154   3.771   7.703  0.00  0.00    +0.000 A 
ATOM     19  C   UNL     1      45.186   4.226   8.604  0.00  0.00    +0.000 A 
ATOM     20  C   UNL     1      44.500   3.325   9.422  0.00  0.00    +0.000 A 
ATOM     21  C   UNL     1      44.783   1.960   9.319  0.00  0.00    +0.000 A 
ATOM     22  C   UNL     1      45.749   1.498   8.420  0.00  0.00    +0.000 A 
BRANCH  17  24
ATOM     23  N   UNL     1      48.583   2.702   6.493  0.00  0.00    +0.000 N 
ATOM     24  C   UNL     1      47.496   1.901   6.701  0.00  0.00    +0.000 C 
ATOM     25  O   UNL     1      47.414   0.799   6.180  0.00  0.00    +0.000 OA
ATOM     26  H   UNL     1      49.345   2.293   5.953  0.00  0.00    +0.000 HD
ATOM     27  H   UNL     1      48.807   3.477   7.100  0.00  0.00    +0.000 HD
ENDBRANCH  17  24
ENDBRANCH  16  20
ENDBRANCH  15  16
ENDBRANCH   1  15
TORSDOF 6
ENDMDL
MODEL 3
REMARK VINA RESULT:    -7.443      4.036      7.422
REMARK INTER + INTRA:         -11.021
REMARK INTER:                  -9.638
REMARK INTRA:                  -1.383
REMARK UNBOUND:                -0.967
REMARK  Name = 
REMARK  6 active torsions:
REMARK  status: ('A' for Active; 'I' for Inactive)
REMARK    1  A    between atoms: C_2  and  C_4
REMARK    2  A    between atoms: C_7  and  O_8
REMARK    3  A    between atoms: O_8  and  C_9
REMARK    4  A    between atoms: C_9  and  C_10
REMARK    5  A    between atoms: C_10  and  C_11
REMARK    6  A    between atoms: C_15  and  C_16
REMARK                            x       y       z     vdW  Elec       q    Type
REMARK                         _______ _______ _______ _____ _____    ______ ____
ROOT
ATOM      1  C   UNL     1      48.951   8.043  11.918  0.00  0.00    +0.000 C 
ENDROOT
BRANCH   1   2
ATOM      2  C   UNL     1      47.469   7.771  11.837  0.00  0.00    +0.000 A 
ATOM      3  C   UNL     1      46.540   8.749  12.193  0.00  0.00    +0.000 A 
ATOM      4  C   UNL     1      45.178   8.485  12.076  0.00  0.00    +0.000 A 
ATOM      5  C   UNL     1      44.739   7.246  11.598  0.00  0.00    +0.000 A 
ATOM      6  C   UNL     1      45.644   6.249  11.182  0.00  0.00    +0.000 A 
ATOM      7  C   UNL     1      47.012   6.546  11.318  0.00  0.00    +0.000 A 
BRANCH   6   8
ATOM      8  C   UNL     1      45.171   5.002  10.520  0.00  0.00    +0.000 A 
ATOM      9  C   UNL     1      45.469   4.815   9.149  0.00  0.00    +0.000 A 
ATOM     10  C   UNL     1      45.136   3.644   8.462  0.00  0.00    +0.000 A 
ATOM     11  C   UNL     1      44.513   2.603   9.133  0.00  0.00    +0.000 A 
ATOM     12  C   UNL     1      44.187   2.754  10.478  0.00  0.00    +0.000 A 
ATOM     13  C   UNL     1      44.487   3.944  11.161  0.00  0.00    +0.000 A 
ATOM     14 CL   UNL     1      43.918   4.028  12.797  0.00  0.00    +0.000 Cl
ENDBRANCH   6   8
ENDBRANCH   1   2
BRANCH   1  15
ATOM     15  C   UNL     1      49.565   7.272  13.083  0.00  0.00    +0.000 C 
BRANCH  15  16
ATOM     16  O   UNL     1      48.893   7.609  14.298  0.00  0.00    +0.000 OA
BRANCH  16  20
ATOM     17  C   UNL     1      47.829   4.432  16.779  0.00  0.00    +0.000 A 
ATOM     18  C   UNL     1      47.248   4.510  15.515  0.00  0.00    +0.000 A 
ATOM     19  C   UNL     1      47.579   5.562  14.656  0.00  0.00    +0.000 A 
ATOM     20  C   UNL     1      48.482   6.549  15.060  0.00  0.00    +0.000 A 
ATOM     21  C   UNL     1      49.038   6.481  16.340  0.00  0.00    +0.000 A 
ATOM     22  C   UNL     1      48.711   5.431  17.204  0.00  0.00    +0.000 A 
BRANCH  17  24
ATOM     23  N   UNL     1      48.373   3.119  18.752  0.00  0.00    +0.000 N 
ATOM     24  C   UNL     1      47.521   3.308  17.702  0.00  0.00    +0.000 C 
ATOM     25  O   UNL     1      46.529   2.609  17.559  0.00  0.00    +0.000 OA
ATOM     26  H   UNL     1      48.088   2.425  19.442  0.00  0.00    +0.000 HD
ATOM     27  H   UNL     1      49.031   3.826  19.049  0.00  0.00    +0.000 HD
ENDBRANCH  17  24
ENDBRANCH  16  20
ENDBRANCH  15  16
ENDBRANCH   1  15
TORSDOF 6
ENDMDL
MODEL 4
REMARK VINA RESULT:    -7.359      2.137      2.993
REMARK INTER + INTRA:         -10.908
REMARK INTER:                 -10.050
REMARK INTRA:                  -0.857
REMARK UNBOUND:                -0.967
REMARK  Name = 
REMARK  6 active torsions:
REMARK  status: ('A' for Active; 'I' for Inactive)
REMARK    1  A    between atoms: C_2  and  C_4
REMARK    2  A    between atoms: C_7  and  O_8
REMARK    3  A    between atoms: O_8  and  C_9
REMARK    4  A    between atoms: C_9  and  C_10
REMARK    5  A    between atoms: C_10  and  C_11
REMARK    6  A    between atoms: C_15  and  C_16
REMARK                            x       y       z     vdW  Elec       q    Type
REMARK                         _______ _______ _______ _____ _____    ______ ____
ROOT
ATOM      1  C   UNL     1      45.240   5.086  11.767  0.00  0.00    +0.000 C 
ENDROOT
BRANCH   1   2
ATOM      2  C   UNL     1      45.812   6.359  12.341  0.00  0.00    +0.000 A 
ATOM      3  C   UNL     1      45.087   7.550  12.307  0.00  0.00    +0.000 A 
ATOM      4  C   UNL     1      45.623   8.702  12.875  0.00  0.00    +0.000 A 
ATOM      5  C   UNL     1      46.882   8.667  13.483  0.00  0.00    +0.000 A 
ATOM      6  C   UNL     1      47.626   7.475  13.582  0.00  0.00    +0.000 A 
ATOM      7  C   UNL     1      47.058   6.330  12.994  0.00  0.00    +0.000 A 
BRANCH   6   8
ATOM      8  C   UNL     1      48.884   7.410  14.375  0.00  0.00    +0.000 A 
ATOM      9  C   UNL     1      48.856   6.749  15.626  0.00  0.00    +0.000 A 
ATOM     10  C   UNL     1      50.003   6.570  16.405  0.00  0.00    +0.000 A 
ATOM     11  C   UNL     1      51.230   7.025  15.945  0.00  0.00    +0.000 A 
ATOM     12  C   UNL     1      51.297   7.695  14.727  0.00  0.00    +0.000 A 
ATOM     13  C   UNL     1      50.140   7.910  13.960  0.00  0.00    +0.000 A 
ATOM     14 CL   UNL     1      50.363   8.859  12.525  0.00  0.00    +0.000 Cl
ENDBRANCH   6   8
ENDBRANCH   1   2
BRANCH   1  15
ATOM     15  C   UNL     1      44.276   5.408  10.629  0.00  0.00    +0.000 C 
BRANCH  15  16
ATOM     16  O   UNL     1      43.833   4.200  10.009  0.00  0.00    +0.000 OA
BRANCH  16  20
ATOM     17  C   UNL     1      46.704   2.445   7.546  0.00  0.00    +0.000 A 
ATOM     18  C   UNL     1      45.933   1.618   8.361  0.00  0.00    +0.000 A 
ATOM     19  C   UNL     1      44.963   2.171   9.201  0.00  0.00    +0.000 A 
ATOM     20  C   UNL     1      44.765   3.554   9.242  0.00  0.00    +0.000 A 
ATOM     21  C   UNL     1      45.561   4.379   8.444  0.00  0.00    +0.000 A 
ATOM     22  C   UNL     1      46.534   3.833   7.601  0.00  0.00    +0.000 A 
BRANCH  17  24
ATOM     23  N   UNL     1      48.707   2.730   6.197  0.00  0.00    +0.000 N 
ATOM     24  C   UNL     1      47.721   1.884   6.619  0.00  0.00    +0.000 C 
ATOM     25  O   UNL     1      47.708   0.711   6.280  0.00  0.00    +0.000 OA
ATOM     26  H   UNL     1      49.462   2.307   5.660  0.00  0.00    +0.000 HD
ATOM     27  H   UNL     1      48.900   3.608   6.658  0.00  0.00    +0.000 HD
ENDBRANCH  17  24
ENDBRANCH  16  20
ENDBRANCH  15  16
ENDBRANCH   1  15
TORSDOF 6
ENDMDL
MODEL 5
REMARK VINA RESULT:    -7.151      1.532      2.411
REMARK INTER + INTRA:         -10.627
REMARK INTER:                  -9.719
REMARK INTRA:                  -0.908
REMARK UNBOUND:                -0.967
REMARK  Name = 
REMARK  6 active torsions:
REMARK  status: ('A' for Active; 'I' for Inactive)
REMARK    1  A    between atoms: C_2  and  C_4
REMARK    2  A    between atoms: C_7  and  O_8
REMARK    3  A    between atoms: O_8  and  C_9
REMARK    4  A    between atoms: C_9  and  C_10
REMARK    5  A    between atoms: C_10  and  C_11
REMARK    6  A    between atoms: C_15  and  C_16
REMARK                            x       y       z     vdW  Elec       q    Type
REMARK                         _______ _______ _______ _____ _____    ______ ____
ROOT
ATOM      1  C   UNL     1      45.810   4.924  11.887  0.00  0.00    +0.000 C 
ENDROOT
BRANCH   1   2
ATOM      2  C   UNL     1      46.012   6.415  12.000  0.00  0.00    +0.000 A 
ATOM      3  C   UNL     1      44.935   7.268  12.241  0.00  0.00    +0.000 A 
ATOM      4  C   UNL     1      45.154   8.637  12.375  0.00  0.00    +0.000 A 
ATOM      5  C   UNL     1      46.449   9.156  12.276  0.00  0.00    +0.000 A 
ATOM      6  C   UNL     1      47.569   8.324  12.082  0.00  0.00    +0.000 A 
ATOM      7  C   UNL     1      47.313   6.948  11.945  0.00  0.00    +0.000 A 
BRANCH   6   8
ATOM      8  C   UNL     1      48.955   8.865  12.144  0.00  0.00    +0.000 A 
ATOM      9  C   UNL     1      49.332   9.855  11.206  0.00  0.00    +0.000 A 
ATOM     10  C   UNL     1      50.584  10.477  11.236  0.00  0.00    +0.000 A 
ATOM     11  C   UNL     1      51.497  10.148  12.226  0.00  0.00    +0.000 A 
ATOM     12  C   UNL     1      51.170   9.166  13.157  0.00  0.00    +0.000 A 
ATOM     13  C   UNL     1      49.928   8.513  13.108  0.00  0.00    +0.000 A 
ATOM     14 CL   UNL     1      49.711   7.235  14.261  0.00  0.00    +0.000 Cl
ENDBRANCH   6   8
ENDBRANCH   1   2
BRANCH   1  15
ATOM     15  C   UNL     1      44.366   4.616  11.500  0.00  0.00    +0.000 C 
BRANCH  15  16
ATOM     16  O   UNL     1      44.193   4.783  10.093  0.00  0.00    +0.000 OA
BRANCH  16  20
ATOM     17  C   UNL     1      46.571   2.500   7.540  0.00  0.00    +0.000 A 
ATOM     18  C   UNL     1      45.778   1.839   8.477  0.00  0.00    +0.000 A 
ATOM     19  C   UNL     1      44.970   2.572   9.350  0.00  0.00    +0.000 A 
ATOM     20  C   UNL     1      44.958   3.968   9.303  0.00  0.00    +0.000 A 
ATOM     21  C   UNL     1      45.777   4.625   8.380  0.00  0.00    +0.000 A 
ATOM     22  C   UNL     1      46.588   3.899   7.504  0.00  0.00    +0.000 A 
BRANCH  17  24
ATOM     23  N   UNL     1      48.518   2.391   6.087  0.00  0.00    +0.000 N 
ATOM     24  C   UNL     1      47.417   1.748   6.577  0.00  0.00    +0.000 C 
ATOM     25  O   UNL     1      47.169   0.593   6.265  0.00  0.00    +0.000 OA
ATOM     26  H   UNL     1      49.153   1.827   5.523  0.00  0.00    +0.000 HD
ATOM     27  H   UNL     1      48.894   3.223   6.518  0.00  0.00    +0.000 HD
ENDBRANCH  17  24
ENDBRANCH  16  20
ENDBRANCH  15  16
ENDBRANCH   1  15
TORSDOF 6
ENDMDL
MODEL 6
REMARK VINA RESULT:    -7.147      1.635      2.426
REMARK INTER + INTRA:         -10.621
REMARK INTER:                  -9.939
REMARK INTRA:                  -0.682
REMARK UNBOUND:                -0.967
REMARK  Name = 
REMARK  6 active torsions:
REMARK  status: ('A' for Active; 'I' for Inactive)
REMARK    1  A    between atoms: C_2  and  C_4
REMARK    2  A    between atoms: C_7  and  O_8
REMARK    3  A    between atoms: O_8  and  C_9
REMARK    4  A    between atoms: C_9  and  C_10
REMARK    5  A    between atoms: C_10  and  C_11
REMARK    6  A    between atoms: C_15  and  C_16
REMARK                            x       y       z     vdW  Elec       q    Type
REMARK                         _______ _______ _______ _____ _____    ______ ____
ROOT
ATOM      1  C   UNL     1      45.261   4.737  11.658  0.00  0.00    +0.000 C 
ENDROOT
BRANCH   1   2
ATOM      2  C   UNL     1      45.857   5.984  12.263  0.00  0.00    +0.000 A 
ATOM      3  C   UNL     1      46.916   5.906  13.167  0.00  0.00    +0.000 A 
ATOM      4  C   UNL     1      47.472   7.073  13.684  0.00  0.00    +0.000 A 
ATOM      5  C   UNL     1      46.976   8.322  13.295  0.00  0.00    +0.000 A 
ATOM      6  C   UNL     1      45.940   8.446  12.348  0.00  0.00    +0.000 A 
ATOM      7  C   UNL     1      45.398   7.247  11.849  0.00  0.00    +0.000 A 
BRANCH   6   8
ATOM      8  C   UNL     1      45.533   9.776  11.816  0.00  0.00    +0.000 A 
ATOM      9  C   UNL     1      44.151  10.064  11.717  0.00  0.00    +0.000 A 
ATOM     10  C   UNL     1      43.674  11.312  11.304  0.00  0.00    +0.000 A 
ATOM     11  C   UNL     1      44.567  12.328  10.999  0.00  0.00    +0.000 A 
ATOM     12  C   UNL     1      45.935  12.079  11.068  0.00  0.00    +0.000 A 
ATOM     13  C   UNL     1      46.417  10.815  11.446  0.00  0.00    +0.000 A 
ATOM     14 CL   UNL     1      48.140  10.623  11.374  0.00  0.00    +0.000 Cl
ENDBRANCH   6   8
ENDBRANCH   1   2
BRANCH   1  15
ATOM     15  C   UNL     1      44.040   5.093  10.813  0.00  0.00    +0.000 C 
BRANCH  15  16
ATOM     16  O   UNL     1      43.619   3.954  10.063  0.00  0.00    +0.000 OA
BRANCH  16  20
ATOM     17  C   UNL     1      46.517   2.467   7.460  0.00  0.00    +0.000 A 
ATOM     18  C   UNL     1      45.884   1.578   8.327  0.00  0.00    +0.000 A 
ATOM     19  C   UNL     1      44.909   2.041   9.215  0.00  0.00    +0.000 A 
ATOM     20  C   UNL     1      44.569   3.396   9.252  0.00  0.00    +0.000 A 
ATOM     21  C   UNL     1      45.229   4.286   8.400  0.00  0.00    +0.000 A 
ATOM     22  C   UNL     1      46.205   3.830   7.510  0.00  0.00    +0.000 A 
BRANCH  17  24
ATOM     23  N   UNL     1      48.089   2.945   5.668  0.00  0.00    +0.000 N 
ATOM     24  C   UNL     1      47.535   2.000   6.483  0.00  0.00    +0.000 C 
ATOM     25  O   UNL     1      47.896   0.834   6.435  0.00  0.00    +0.000 OA
ATOM     26  H   UNL     1      48.868   2.636   5.087  0.00  0.00    +0.000 HD
ATOM     27  H   UNL     1      48.016   3.934   5.859  0.00  0.00    +0.000 HD
ENDBRANCH  17  24
ENDBRANCH  16  20
ENDBRANCH  15  16
ENDBRANCH   1  15
TORSDOF 6
ENDMDL
MODEL 7
REMARK VINA RESULT:    -7.059      1.996      2.713
REMARK INTER + INTRA:         -10.503
REMARK INTER:                  -9.668
REMARK INTRA:                  -0.834
REMARK UNBOUND:                -0.967
REMARK  Name = 
REMARK  6 active torsions:
REMARK  status: ('A' for Active; 'I' for Inactive)
REMARK    1  A    between atoms: C_2  and  C_4
REMARK    2  A    between atoms: C_7  and  O_8
REMARK    3  A    between atoms: O_8  and  C_9
REMARK    4  A    between atoms: C_9  and  C_10
REMARK    5  A    between atoms: C_10  and  C_11
REMARK    6  A    between atoms: C_15  and  C_16
REMARK                            x       y       z     vdW  Elec       q    Type
REMARK                         _______ _______ _______ _____ _____    ______ ____
ROOT
ATOM      1  C   UNL     1      44.677   4.280   9.279  0.00  0.00    +0.000 C 
ENDROOT
BRANCH   1   2
ATOM      2  C   UNL     1      45.057   4.822  10.635  0.00  0.00    +0.000 A 
ATOM      3  C   UNL     1      44.715   4.139  11.801  0.00  0.00    +0.000 A 
ATOM      4  C   UNL     1      45.108   4.642  13.038  0.00  0.00    +0.000 A 
ATOM      5  C   UNL     1      45.850   5.826  13.114  0.00  0.00    +0.000 A 
ATOM      6  C   UNL     1      46.258   6.520  11.958  0.00  0.00    +0.000 A 
ATOM      7  C   UNL     1      45.840   5.988  10.725  0.00  0.00    +0.000 A 
BRANCH   6   8
ATOM      8  C   UNL     1      47.186   7.682  12.040  0.00  0.00    +0.000 A 
ATOM      9  C   UNL     1      48.570   7.450  11.861  0.00  0.00    +0.000 A 
ATOM     10  C   UNL     1      49.508   8.487  11.842  0.00  0.00    +0.000 A 
ATOM     11  C   UNL     1      49.088   9.802  11.977  0.00  0.00    +0.000 A 
ATOM     12  C   UNL     1      47.736  10.071  12.172  0.00  0.00    +0.000 A 
ATOM     13  C   UNL     1      46.796   9.028  12.228  0.00  0.00    +0.000 A 
ATOM     14 CL   UNL     1      45.170   9.510  12.591  0.00  0.00    +0.000 Cl
ENDBRANCH   6   8
ENDBRANCH   1   2
BRANCH   1  15
ATOM     15  C   UNL     1      45.502   3.037   8.958  0.00  0.00    +0.000 C 
BRANCH  15  16
ATOM     16  O   UNL     1      46.524   3.362   8.016  0.00  0.00    +0.000 OA
BRANCH  16  20
ATOM     17  C   UNL     1      47.045   0.731   4.823  0.00  0.00    +0.000 A 
ATOM     18  C   UNL     1      47.161   0.233   6.119  0.00  0.00    +0.000 A 
ATOM     19  C   UNL     1      46.995   1.085   7.214  0.00  0.00    +0.000 A 
ATOM     20  C   UNL     1      46.725   2.443   7.021  0.00  0.00    +0.000 A 
ATOM     21  C   UNL     1      46.639   2.941   5.718  0.00  0.00    +0.000 A 
ATOM     22  C   UNL     1      46.805   2.094   4.619  0.00  0.00    +0.000 A 
BRANCH  17  24
ATOM     23  N   UNL     1      46.675  -1.419   3.748  0.00  0.00    +0.000 N 
ATOM     24  C   UNL     1      47.186  -0.157   3.639  0.00  0.00    +0.000 C 
ATOM     25  O   UNL     1      47.695   0.232   2.599  0.00  0.00    +0.000 OA
ATOM     26  H   UNL     1      46.671  -1.976   2.894  0.00  0.00    +0.000 HD
ATOM     27  H   UNL     1      46.024  -1.678   4.475  0.00  0.00    +0.000 HD
ENDBRANCH  17  24
ENDBRANCH  16  20
ENDBRANCH  15  16
ENDBRANCH   1  15
TORSDOF 6
ENDMDL
MODEL 8
REMARK VINA RESULT:    -6.896      2.383      3.749
REMARK INTER + INTRA:         -10.282
REMARK INTER:                  -9.424
REMARK INTRA:                  -0.858
REMARK UNBOUND:                -0.967
REMARK  Name = 
REMARK  6 active torsions:
REMARK  status: ('A' for Active; 'I' for Inactive)
REMARK    1  A    between atoms: C_2  and  C_4
REMARK    2  A    between atoms: C_7  and  O_8
REMARK    3  A    between atoms: O_8  and  C_9
REMARK    4  A    between atoms: C_9  and  C_10
REMARK    5  A    between atoms: C_10  and  C_11
REMARK    6  A    between atoms: C_15  and  C_16
REMARK                            x       y       z     vdW  Elec       q    Type
REMARK                         _______ _______ _______ _____ _____    ______ ____
ROOT
ATOM      1  C   UNL     1      44.589   4.055   8.687  0.00  0.00    +0.000 C 
ENDROOT
BRANCH   1   2
ATOM      2  C   UNL     1      44.425   4.656  10.061  0.00  0.00    +0.000 A 
ATOM      3  C   UNL     1      43.254   4.463  10.794  0.00  0.00    +0.000 A 
ATOM      4  C   UNL     1      43.142   4.999  12.073  0.00  0.00    +0.000 A 
ATOM      5  C   UNL     1      44.201   5.725  12.628  0.00  0.00    +0.000 A 
ATOM      6  C   UNL     1      45.418   5.902  11.942  0.00  0.00    +0.000 A 
ATOM      7  C   UNL     1      45.497   5.352  10.649  0.00  0.00    +0.000 A 
BRANCH   6   8
ATOM      8  C   UNL     1      46.596   6.530  12.603  0.00  0.00    +0.000 A 
ATOM      9  C   UNL     1      47.043   7.785  12.126  0.00  0.00    +0.000 A 
ATOM     10  C   UNL     1      48.089   8.488  12.732  0.00  0.00    +0.000 A 
ATOM     11  C   UNL     1      48.710   7.968  13.858  0.00  0.00    +0.000 A 
ATOM     12  C   UNL     1      48.310   6.728  14.348  0.00  0.00    +0.000 A 
ATOM     13  C   UNL     1      47.285   6.003  13.719  0.00  0.00    +0.000 A 
ATOM     14 CL   UNL     1      46.977   4.427  14.375  0.00  0.00    +0.000 Cl
ENDBRANCH   6   8
ENDBRANCH   1   2
BRANCH   1  15
ATOM     15  C   UNL     1      45.619   2.929   8.725  0.00  0.00    +0.000 C 
BRANCH  15  16
ATOM     16  O   UNL     1      46.692   3.221   7.829  0.00  0.00    +0.000 OA
BRANCH  16  20
ATOM     17  C   UNL     1      47.047   0.580   4.622  0.00  0.00    +0.000 A 
ATOM     18  C   UNL     1      46.805   1.926   4.350  0.00  0.00    +0.000 A 
ATOM     19  C   UNL     1      46.678   2.840   5.400  0.00  0.00    +0.000 A 
ATOM     20  C   UNL     1      46.779   2.414   6.727  0.00  0.00    +0.000 A 
ATOM     21  C   UNL     1      46.993   1.059   6.993  0.00  0.00    +0.000 A 
ATOM     22  C   UNL     1      47.120   0.139   5.948  0.00  0.00    +0.000 A 
BRANCH  17  24
ATOM     23  N   UNL     1      46.712  -1.661   3.739  0.00  0.00    +0.000 N 
ATOM     24  C   UNL     1      47.218  -0.410   3.527  0.00  0.00    +0.000 C 
ATOM     25  O   UNL     1      47.748  -0.114   2.467  0.00  0.00    +0.000 OA
ATOM     26  H   UNL     1      46.729  -2.293   2.940  0.00  0.00    +0.000 HD
ATOM     27  H   UNL     1      46.047  -1.857   4.473  0.00  0.00    +0.000 HD
ENDBRANCH  17  24
ENDBRANCH  16  20
ENDBRANCH  15  16
ENDBRANCH   1  15
TORSDOF 6
ENDMDL
MODEL 9
REMARK VINA RESULT:    -6.737      4.187      6.431
REMARK INTER + INTRA:         -10.067
REMARK INTER:                  -8.704
REMARK INTRA:                  -1.363
REMARK UNBOUND:                -0.967
REMARK  Name = 
REMARK  6 active torsions:
REMARK  status: ('A' for Active; 'I' for Inactive)
REMARK    1  A    between atoms: C_2  and  C_4
REMARK    2  A    between atoms: C_7  and  O_8
REMARK    3  A    between atoms: O_8  and  C_9
REMARK    4  A    between atoms: C_9  and  C_10
REMARK    5  A    between atoms: C_10  and  C_11
REMARK    6  A    between atoms: C_15  and  C_16
REMARK                            x       y       z     vdW  Elec       q    Type
REMARK                         _______ _______ _______ _____ _____    ______ ____
ROOT
ATOM      1  C   UNL     1      48.437   9.048  14.438  0.00  0.00    +0.000 C 
ENDROOT
BRANCH   1   2
ATOM      2  C   UNL     1      48.549   8.380  15.786  0.00  0.00    +0.000 A 
ATOM      3  C   UNL     1      48.099   9.018  16.942  0.00  0.00    +0.000 A 
ATOM      4  C   UNL     1      48.181   8.365  18.169  0.00  0.00    +0.000 A 
ATOM      5  C   UNL     1      48.708   7.072  18.245  0.00  0.00    +0.000 A 
ATOM      6  C   UNL     1      49.129   6.374  17.096  0.00  0.00    +0.000 A 
ATOM      7  C   UNL     1      49.037   7.063  15.873  0.00  0.00    +0.000 A 
BRANCH   6   8
ATOM      8  C   UNL     1      49.530   4.941  17.164  0.00  0.00    +0.000 A 
ATOM      9  C   UNL     1      50.891   4.637  17.409  0.00  0.00    +0.000 A 
ATOM     10  C   UNL     1      51.348   3.326  17.568  0.00  0.00    +0.000 A 
ATOM     11  C   UNL     1      50.452   2.269  17.513  0.00  0.00    +0.000 A 
ATOM     12  C   UNL     1      49.107   2.525  17.257  0.00  0.00    +0.000 A 
ATOM     13  C   UNL     1      48.651   3.839  17.060  0.00  0.00    +0.000 A 
ATOM     14 CL   UNL     1      46.976   3.991  16.638  0.00  0.00    +0.000 Cl
ENDBRANCH   6   8
ENDBRANCH   1   2
BRANCH   1  15
ATOM     15  C   UNL     1      47.263   8.464  13.657  0.00  0.00    +0.000 C 
BRANCH  15  16
ATOM     16  O   UNL     1      47.737   7.497  12.718  0.00  0.00    +0.000 OA
BRANCH  16  20
ATOM     17  C   UNL     1      45.114   4.364  11.889  0.00  0.00    +0.000 A 
ATOM     18  C   UNL     1      45.867   4.307  13.060  0.00  0.00    +0.000 A 
ATOM     19  C   UNL     1      46.758   5.338  13.370  0.00  0.00    +0.000 A 
ATOM     20  C   UNL     1      46.912   6.426  12.506  0.00  0.00    +0.000 A 
ATOM     21  C   UNL     1      46.175   6.462  11.319  0.00  0.00    +0.000 A 
ATOM     22  C   UNL     1      45.283   5.434  11.003  0.00  0.00    +0.000 A 
BRANCH  17  24
ATOM     23  N   UNL     1      43.816   2.411  12.535  0.00  0.00    +0.000 N 
ATOM     24  C   UNL     1      44.136   3.298  11.547  0.00  0.00    +0.000 C 
ATOM     25  O   UNL     1      43.606   3.238  10.448  0.00  0.00    +0.000 OA
ATOM     26  H   UNL     1      43.059   1.761  12.327  0.00  0.00    +0.000 HD
ATOM     27  H   UNL     1      44.022   2.589  13.508  0.00  0.00    +0.000 HD
ENDBRANCH  17  24
ENDBRANCH  16  20
ENDBRANCH  15  16
ENDBRANCH   1  15
TORSDOF 6
ENDMDL
