MODEL 1
REMARK VINA RESULT:    -7.954      0.000      0.000
REMARK INTER + INTRA:         -10.788
REMARK INTER:                 -10.279
REMARK INTRA:                  -0.509
REMARK UNBOUND:                -0.509
REMARK  Name = 
REMARK  5 active torsions:
REMARK  status: ('A' for Active; 'I' for Inactive)
REMARK    1  A    between atoms: C_2  and  C_4
REMARK    2  A    between atoms: C_7  and  C_8
REMARK    3  A    between atoms: C_8  and  N_9
REMARK    4  A    between atoms: C_14  and  N_15
REMARK    5  A    between atoms: N_15  and  C_16
REMARK                            x       y       z     vdW  Elec       q    Type
REMARK                         _______ _______ _______ _____ _____    ______ ____
ROOT
ATOM      1  N   UNL     1      44.823   5.802  10.627  0.00  0.00    +0.000 N 
ATOM      2  C   UNL     1      45.601   5.897  11.797  0.00  0.00    +0.000 A 
ATOM      3  C   UNL     1      46.247   7.100  12.095  0.00  0.00    +0.000 A 
ATOM      4  N   UNL     1      47.066   7.266  13.158  0.00  0.00    +0.000 NA
ATOM      5  C   UNL     1      47.226   6.156  13.915  0.00  0.00    +0.000 A 
ATOM      6  C   UNL     1      46.571   4.945  13.674  0.00  0.00    +0.000 A 
ATOM      7  N   UNL     1      45.762   4.818  12.601  0.00  0.00    +0.000 NA
ATOM      8  H   UNL     1      44.094   6.513  10.636  0.00  0.00    +0.000 HD
ENDROOT
BRANCH   6   9
ATOM      9  N   UNL     1      46.807   3.835  14.521  0.00  0.00    +0.000 N 
ATOM     10  H   UNL     1      47.094   3.043  13.956  0.00  0.00    +0.000 HD
BRANCH   9  11
ATOM     11  C   UNL     1      47.640   3.934  15.688  0.00  0.00    +0.000 C 
ATOM     12  C   UNL     1      48.157   2.537  16.115  0.00  0.00    +0.000 C 
ATOM     13  C   UNL     1      47.992   3.010  17.572  0.00  0.00    +0.000 C 
ATOM     14  C   UNL     1      46.907   3.984  17.047  0.00  0.00    +0.000 C 
ENDBRANCH   9  11
ENDBRANCH   6   9
BRANCH   1  15
ATOM     15  C   UNL     1      44.284   4.467  10.414  0.00  0.00    +0.000 C 
BRANCH  15  19
ATOM     16  C   UNL     1      46.611   2.413   7.405  0.00  0.00    +0.000 A 
ATOM     17  C   UNL     1      46.517   3.810   7.381  0.00  0.00    +0.000 A 
ATOM     18  C   UNL     1      45.752   4.474   8.345  0.00  0.00    +0.000 A 
ATOM     19  C   UNL     1      45.073   3.752   9.340  0.00  0.00    +0.000 A 
ATOM     20  C   UNL     1      45.160   2.353   9.344  0.00  0.00    +0.000 A 
ATOM     21  C   UNL     1      45.920   1.687   8.382  0.00  0.00    +0.000 A 
BRANCH  16  23
ATOM     22  N   UNL     1      48.464   2.309   5.828  0.00  0.00    +0.000 N 
ATOM     23  C   UNL     1      47.412   1.658   6.408  0.00  0.00    +0.000 C 
ATOM     24  O   UNL     1      47.175   0.486   6.144  0.00  0.00    +0.000 OA
ATOM     25  H   UNL     1      49.066   1.744   5.243  0.00  0.00    +0.000 HD
ATOM     26  H   UNL     1      48.846   3.163   6.207  0.00  0.00    +0.000 HD
ENDBRANCH  16  23
ENDBRANCH  15  19
ENDBRANCH   1  15
TORSDOF 5
ENDMDL
MODEL 2
REMARK VINA RESULT:    -7.682      1.710      3.901
REMARK INTER + INTRA:         -10.437
REMARK INTER:                 -10.072
REMARK INTRA:                  -0.365
REMARK UNBOUND:                -0.509
REMARK  Name = 
REMARK  5 active torsions:
REMARK  status: ('A' for Active; 'I' for Inactive)
REMARK    1  A    between atoms: C_2  and  C_4
REMARK    2  A    between atoms: C_7  and  C_8
REMARK    3  A    between atoms: C_8  and  N_9
REMARK    4  A    between atoms: C_14  and  N_15
REMARK    5  A    between atoms: N_15  and  C_16
REMARK                            x       y       z     vdW  Elec       q    Type
REMARK                         _______ _______ _______ _____ _____    ______ ____
ROOT
ATOM      1  N   UNL     1      44.994   3.007  11.941  0.00  0.00    +0.000 N 
ATOM      2  C   UNL     1      45.807   4.014  12.494  0.00  0.00    +0.000 A 
ATOM      3  C   UNL     1      46.550   3.740  13.646  0.00  0.00    +0.000 A 
ATOM      4  N   UNL     1      47.307   4.660  14.285  0.00  0.00    +0.000 NA
ATOM      5  C   UNL     1      47.279   5.891  13.722  0.00  0.00    +0.000 A 
ATOM      6  C   UNL     1      46.580   6.198  12.551  0.00  0.00    +0.000 A 
ATOM      7  N   UNL     1      45.834   5.252  11.944  0.00  0.00    +0.000 NA
ATOM      8  H   UNL     1      45.557   2.188  11.719  0.00  0.00    +0.000 HD
ENDROOT
BRANCH   6   9
ATOM      9  N   UNL     1      46.606   7.519  12.041  0.00  0.00    +0.000 N 
ATOM     10  H   UNL     1      46.675   7.481  11.029  0.00  0.00    +0.000 HD
BRANCH   9  11
ATOM     11  C   UNL     1      45.636   8.503  12.432  0.00  0.00    +0.000 C 
ATOM     12  C   UNL     1      44.519   8.629  11.364  0.00  0.00    +0.000 C 
ATOM     13  C   UNL     1      44.514  10.140  11.663  0.00  0.00    +0.000 C 
ATOM     14  C   UNL     1      45.988   9.973  12.112  0.00  0.00    +0.000 C 
ENDBRANCH   9  11
ENDBRANCH   6   9
BRANCH   1  15
ATOM     15  C   UNL     1      44.223   3.468  10.795  0.00  0.00    +0.000 C 
BRANCH  15  19
ATOM     16  C   UNL     1      46.518   2.793   7.196  0.00  0.00    +0.000 A 
ATOM     17  C   UNL     1      46.145   4.095   7.550  0.00  0.00    +0.000 A 
ATOM     18  C   UNL     1      45.389   4.313   8.707  0.00  0.00    +0.000 A 
ATOM     19  C   UNL     1      44.999   3.235   9.518  0.00  0.00    +0.000 A 
ATOM     20  C   UNL     1      45.363   1.934   9.144  0.00  0.00    +0.000 A 
ATOM     21  C   UNL     1      46.114   1.713   7.989  0.00  0.00    +0.000 A 
BRANCH  16  23
ATOM     22  N   UNL     1      48.681   2.466   6.125  0.00  0.00    +0.000 N 
ATOM     23  C   UNL     1      47.323   2.505   5.981  0.00  0.00    +0.000 C 
ATOM     24  O   UNL     1      46.798   2.267   4.901  0.00  0.00    +0.000 OA
ATOM     25  H   UNL     1      49.204   2.153   5.316  0.00  0.00    +0.000 HD
ATOM     26  H   UNL     1      49.128   2.392   7.028  0.00  0.00    +0.000 HD
ENDBRANCH  16  23
ENDBRANCH  15  19
ENDBRANCH   1  15
TORSDOF 5
ENDMDL
MODEL 3
REMARK VINA RESULT:    -7.488      1.825      3.741
REMARK INTER + INTRA:         -10.185
REMARK INTER:                  -9.768
REMARK INTRA:                  -0.417
REMARK UNBOUND:                -0.509
REMARK  Name = 
REMARK  5 active torsions:
REMARK  status: ('A' for Active; 'I' for Inactive)
REMARK    1  A    between atoms: C_2  and  C_4
REMARK    2  A    between atoms: C_7  and  C_8
REMARK    3  A    between atoms: C_8  and  N_9
REMARK    4  A    between atoms: C_14  and  N_15
REMARK    5  A    between atoms: N_15  and  C_16
REMARK                            x       y       z     vdW  Elec       q    Type
REMARK                         _______ _______ _______ _____ _____    ______ ____
ROOT
ATOM      1  N   UNL     1      44.326   3.665  11.578  0.00  0.00    +0.000 N 
ATOM      2  C   UNL     1      45.304   4.447  12.219  0.00  0.00    +0.000 A 
ATOM      3  C   UNL     1      45.652   4.162  13.543  0.00  0.00    +0.000 A 
ATOM      4  N   UNL     1      46.532   4.896  14.261  0.00  0.00    +0.000 NA
ATOM      5  C   UNL     1      47.048   5.954  13.593  0.00  0.00    +0.000 A 
ATOM      6  C   UNL     1      46.756   6.253  12.259  0.00  0.00    +0.000 A 
ATOM      7  N   UNL     1      45.871   5.497  11.577  0.00  0.00    +0.000 NA
ATOM      8  H   UNL     1      44.603   2.685  11.587  0.00  0.00    +0.000 HD
ENDROOT
BRANCH   6   9
ATOM      9  N   UNL     1      47.342   7.388  11.647  0.00  0.00    +0.000 N 
ATOM     10  H   UNL     1      46.613   8.059  11.425  0.00  0.00    +0.000 HD
BRANCH   9  11
ATOM     11  C   UNL     1      48.472   8.063  12.223  0.00  0.00    +0.000 C 
ATOM     12  C   UNL     1      48.555   9.526  11.719  0.00  0.00    +0.000 C 
ATOM     13  C   UNL     1      50.086   9.352  11.713  0.00  0.00    +0.000 C 
ATOM     14  C   UNL     1      49.832   7.836  11.526  0.00  0.00    +0.000 C 
ENDBRANCH   9  11
ENDBRANCH   6   9
BRANCH   1  15
ATOM     15  C   UNL     1      44.016   4.135  10.236  0.00  0.00    +0.000 C 
BRANCH  15  19
ATOM     16  C   UNL     1      46.581   2.274   7.297  0.00  0.00    +0.000 A 
ATOM     17  C   UNL     1      45.983   1.494   8.294  0.00  0.00    +0.000 A 
ATOM     18  C   UNL     1      45.165   2.098   9.255  0.00  0.00    +0.000 A 
ATOM     19  C   UNL     1      44.938   3.483   9.230  0.00  0.00    +0.000 A 
ATOM     20  C   UNL     1      45.556   4.257   8.237  0.00  0.00    +0.000 A 
ATOM     21  C   UNL     1      46.375   3.658   7.280  0.00  0.00    +0.000 A 
BRANCH  16  23
ATOM     22  N   UNL     1      48.550   2.408   5.869  0.00  0.00    +0.000 N 
ATOM     23  C   UNL     1      47.456   1.684   6.251  0.00  0.00    +0.000 C 
ATOM     24  O   UNL     1      47.239   0.576   5.779  0.00  0.00    +0.000 OA
ATOM     25  H   UNL     1      49.195   1.941   5.245  0.00  0.00    +0.000 HD
ATOM     26  H   UNL     1      48.903   3.183   6.413  0.00  0.00    +0.000 HD
ENDBRANCH  16  23
ENDBRANCH  15  19
ENDBRANCH   1  15
TORSDOF 5
ENDMDL
MODEL 4
REMARK VINA RESULT:    -7.287      3.740      8.371
REMARK INTER + INTRA:          -9.926
REMARK INTER:                  -9.565
REMARK INTRA:                  -0.361
REMARK UNBOUND:                -0.509
REMARK  Name = 
REMARK  5 active torsions:
REMARK  status: ('A' for Active; 'I' for Inactive)
REMARK    1  A    between atoms: C_2  and  C_4
REMARK    2  A    between atoms: C_7  and  C_8
REMARK    3  A    between atoms: C_8  and  N_9
REMARK    4  A    between atoms: C_14  and  N_15
REMARK    5  A    between atoms: N_15  and  C_16
REMARK                            x       y       z     vdW  Elec       q    Type
REMARK                         _______ _______ _______ _____ _____    ______ ____
ROOT
ATOM      1  N   UNL     1      45.833   5.125  14.107  0.00  0.00    +0.000 N 
ATOM      2  C   UNL     1      44.947   4.794  13.064  0.00  0.00    +0.000 A 
ATOM      3  C   UNL     1      43.742   5.491  12.942  0.00  0.00    +0.000 A 
ATOM      4  N   UNL     1      42.801   5.203  12.015  0.00  0.00    +0.000 NA
ATOM      5  C   UNL     1      43.115   4.162  11.210  0.00  0.00    +0.000 A 
ATOM      6  C   UNL     1      44.323   3.462  11.273  0.00  0.00    +0.000 A 
ATOM      7  N   UNL     1      45.237   3.779  12.214  0.00  0.00    +0.000 NA
ATOM      8  H   UNL     1      46.087   6.109  14.049  0.00  0.00    +0.000 HD
ENDROOT
BRANCH   6   9
ATOM      9  N   UNL     1      44.559   2.381  10.390  0.00  0.00    +0.000 N 
ATOM     10  H   UNL     1      43.894   1.640  10.587  0.00  0.00    +0.000 HD
BRANCH   9  11
ATOM     11  C   UNL     1      44.675   2.571   8.971  0.00  0.00    +0.000 C 
ATOM     12  C   UNL     1      45.918   1.831   8.416  0.00  0.00    +0.000 C 
ATOM     13  C   UNL     1      46.100   3.023   7.457  0.00  0.00    +0.000 C 
ATOM     14  C   UNL     1      45.356   3.880   8.510  0.00  0.00    +0.000 C 
ENDBRANCH   9  11
ENDBRANCH   6   9
BRANCH   1  15
ATOM     15  C   UNL     1      47.003   4.259  14.150  0.00  0.00    +0.000 C 
BRANCH  15  19
ATOM     16  C   UNL     1      48.735   4.406  18.107  0.00  0.00    +0.000 A 
ATOM     17  C   UNL     1      48.637   5.576  17.346  0.00  0.00    +0.000 A 
ATOM     18  C   UNL     1      48.091   5.527  16.059  0.00  0.00    +0.000 A 
ATOM     19  C   UNL     1      47.639   4.311  15.521  0.00  0.00    +0.000 A 
ATOM     20  C   UNL     1      47.757   3.142  16.286  0.00  0.00    +0.000 A 
ATOM     21  C   UNL     1      48.305   3.188  17.569  0.00  0.00    +0.000 A 
BRANCH  16  23
ATOM     22  N   UNL     1      48.540   3.854  20.472  0.00  0.00    +0.000 N 
ATOM     23  C   UNL     1      49.303   4.402  19.480  0.00  0.00    +0.000 C 
ATOM     24  O   UNL     1      50.426   4.828  19.714  0.00  0.00    +0.000 OA
ATOM     25  H   UNL     1      48.989   3.754  21.373  0.00  0.00    +0.000 HD
ATOM     26  H   UNL     1      47.743   3.265  20.278  0.00  0.00    +0.000 HD
ENDBRANCH  16  23
ENDBRANCH  15  19
ENDBRANCH   1  15
TORSDOF 5
ENDMDL
MODEL 5
REMARK VINA RESULT:    -7.123      1.925      2.371
REMARK INTER + INTRA:          -9.714
REMARK INTER:                  -9.339
REMARK INTRA:                  -0.375
REMARK UNBOUND:                -0.509
REMARK  Name = 
REMARK  5 active torsions:
REMARK  status: ('A' for Active; 'I' for Inactive)
REMARK    1  A    between atoms: C_2  and  C_4
REMARK    2  A    between atoms: C_7  and  C_8
REMARK    3  A    between atoms: C_8  and  N_9
REMARK    4  A    between atoms: C_14  and  N_15
REMARK    5  A    between atoms: N_15  and  C_16
REMARK                            x       y       z     vdW  Elec       q    Type
REMARK                         _______ _______ _______ _____ _____    ______ ____
ROOT
ATOM      1  N   UNL     1      43.708   5.642  10.622  0.00  0.00    +0.000 N 
ATOM      2  C   UNL     1      44.483   6.491  11.434  0.00  0.00    +0.000 A 
ATOM      3  C   UNL     1      44.343   7.876  11.307  0.00  0.00    +0.000 A 
ATOM      4  N   UNL     1      45.088   8.771  11.995  0.00  0.00    +0.000 NA
ATOM      5  C   UNL     1      46.005   8.213  12.818  0.00  0.00    +0.000 A 
ATOM      6  C   UNL     1      46.153   6.835  13.003  0.00  0.00    +0.000 A 
ATOM      7  N   UNL     1      45.392   5.975  12.296  0.00  0.00    +0.000 NA
ATOM      8  H   UNL     1      42.718   5.833  10.763  0.00  0.00    +0.000 HD
ENDROOT
BRANCH   6   9
ATOM      9  N   UNL     1      47.148   6.345  13.885  0.00  0.00    +0.000 N 
ATOM     10  H   UNL     1      47.612   5.553  13.453  0.00  0.00    +0.000 HD
BRANCH   9  11
ATOM     11  C   UNL     1      48.119   7.213  14.491  0.00  0.00    +0.000 C 
ATOM     12  C   UNL     1      49.444   7.203  13.687  0.00  0.00    +0.000 C 
ATOM     13  C   UNL     1      50.173   7.296  15.041  0.00  0.00    +0.000 C 
ATOM     14  C   UNL     1      48.928   6.618  15.665  0.00  0.00    +0.000 C 
ENDBRANCH   9  11
ENDBRANCH   6   9
BRANCH   1  15
ATOM     15  C   UNL     1      44.026   4.233  10.813  0.00  0.00    +0.000 C 
BRANCH  15  19
ATOM     16  C   UNL     1      46.482   2.771   7.571  0.00  0.00    +0.000 A 
ATOM     17  C   UNL     1      46.293   4.148   7.735  0.00  0.00    +0.000 A 
ATOM     18  C   UNL     1      45.485   4.622   8.775  0.00  0.00    +0.000 A 
ATOM     19  C   UNL     1      44.860   3.727   9.658  0.00  0.00    +0.000 A 
ATOM     20  C   UNL     1      45.044   2.349   9.474  0.00  0.00    +0.000 A 
ATOM     21  C   UNL     1      45.845   1.874   8.436  0.00  0.00    +0.000 A 
BRANCH  16  23
ATOM     22  N   UNL     1      47.427   2.940   5.333  0.00  0.00    +0.000 N 
ATOM     23  C   UNL     1      47.331   2.215   6.487  0.00  0.00    +0.000 C 
ATOM     24  O   UNL     1      47.959   1.173   6.629  0.00  0.00    +0.000 OA
ATOM     25  H   UNL     1      48.100   2.606   4.654  0.00  0.00    +0.000 HD
ATOM     26  H   UNL     1      47.149   3.909   5.278  0.00  0.00    +0.000 HD
ENDBRANCH  16  23
ENDBRANCH  15  19
ENDBRANCH   1  15
TORSDOF 5
ENDMDL
MODEL 6
REMARK VINA RESULT:    -6.741      3.562      7.067
REMARK INTER + INTRA:          -9.220
REMARK INTER:                  -8.648
REMARK INTRA:                  -0.572
REMARK UNBOUND:                -0.509
REMARK  Name = 
REMARK  5 active torsions:
REMARK  status: ('A' for Active; 'I' for Inactive)
REMARK    1  A    between atoms: C_2  and  C_4
REMARK    2  A    between atoms: C_7  and  C_8
REMARK    3  A    between atoms: C_8  and  N_9
REMARK    4  A    between atoms: C_14  and  N_15
REMARK    5  A    between atoms: N_15  and  C_16
REMARK                            x       y       z     vdW  Elec       q    Type
REMARK                         _______ _______ _______ _____ _____    ______ ____
ROOT
ATOM      1  N   UNL     1      45.777   5.967  13.572  0.00  0.00    +0.000 N 
ATOM      2  C   UNL     1      44.917   5.141  12.824  0.00  0.00    +0.000 A 
ATOM      3  C   UNL     1      43.539   5.201  13.052  0.00  0.00    +0.000 A 
ATOM      4  N   UNL     1      42.642   4.402  12.431  0.00  0.00    +0.000 NA
ATOM      5  C   UNL     1      43.191   3.516  11.569  0.00  0.00    +0.000 A 
ATOM      6  C   UNL     1      44.558   3.446  11.285  0.00  0.00    +0.000 A 
ATOM      7  N   UNL     1      45.422   4.260  11.927  0.00  0.00    +0.000 NA
ATOM      8  H   UNL     1      45.518   6.944  13.445  0.00  0.00    +0.000 HD
ENDROOT
BRANCH   6   9
ATOM      9  N   UNL     1      45.040   2.478  10.370  0.00  0.00    +0.000 N 
ATOM     10  H   UNL     1      44.706   1.562  10.651  0.00  0.00    +0.000 HD
BRANCH   9  11
ATOM     11  C   UNL     1      44.897   2.639   8.950  0.00  0.00    +0.000 C 
ATOM     12  C   UNL     1      46.112   2.032   8.202  0.00  0.00    +0.000 C 
ATOM     13  C   UNL     1      45.990   3.209   7.215  0.00  0.00    +0.000 C 
ATOM     14  C   UNL     1      45.332   4.004   8.370  0.00  0.00    +0.000 C 
ENDBRANCH   9  11
ENDBRANCH   6   9
BRANCH   1  15
ATOM     15  C   UNL     1      47.184   5.731  13.279  0.00  0.00    +0.000 C 
BRANCH  15  19
ATOM     16  C   UNL     1      48.953   9.294  11.588  0.00  0.00    +0.000 A 
ATOM     17  C   UNL     1      49.735   8.146  11.770  0.00  0.00    +0.000 A 
ATOM     18  C   UNL     1      49.167   6.998  12.332  0.00  0.00    +0.000 A 
ATOM     19  C   UNL     1      47.817   6.984  12.717  0.00  0.00    +0.000 A 
ATOM     20  C   UNL     1      47.048   8.144  12.546  0.00  0.00    +0.000 A 
ATOM     21  C   UNL     1      47.612   9.292  11.989  0.00  0.00    +0.000 A 
BRANCH  16  23
ATOM     22  N   UNL     1      48.615  11.411  10.434  0.00  0.00    +0.000 N 
ATOM     23  C   UNL     1      49.504  10.538  10.994  0.00  0.00    +0.000 C 
ATOM     24  O   UNL     1      50.699  10.801  11.040  0.00  0.00    +0.000 OA
ATOM     25  H   UNL     1      48.993  12.304  10.141  0.00  0.00    +0.000 HD
ATOM     26  H   UNL     1      47.621  11.360  10.611  0.00  0.00    +0.000 HD
ENDBRANCH  16  23
ENDBRANCH  15  19
ENDBRANCH   1  15
TORSDOF 5
ENDMDL
MODEL 7
REMARK VINA RESULT:    -6.423      4.261      7.853
REMARK INTER + INTRA:          -8.810
REMARK INTER:                  -8.618
REMARK INTRA:                  -0.192
REMARK UNBOUND:                -0.509
REMARK  Name = 
REMARK  5 active torsions:
REMARK  status: ('A' for Active; 'I' for Inactive)
REMARK    1  A    between atoms: C_2  and  C_4
REMARK    2  A    between atoms: C_7  and  C_8
REMARK    3  A    between atoms: C_8  and  N_9
REMARK    4  A    between atoms: C_14  and  N_15
REMARK    5  A    between atoms: N_15  and  C_16
REMARK                            x       y       z     vdW  Elec       q    Type
REMARK                         _______ _______ _______ _____ _____    ______ ____
ROOT
ATOM      1  N   UNL     1      48.110   6.053  15.787  0.00  0.00    +0.000 N 
ATOM      2  C   UNL     1      47.524   5.883  14.519  0.00  0.00    +0.000 A 
ATOM      3  C   UNL     1      47.732   6.851  13.532  0.00  0.00    +0.000 A 
ATOM      4  N   UNL     1      47.160   6.807  12.308  0.00  0.00    +0.000 NA
ATOM      5  C   UNL     1      46.346   5.744  12.113  0.00  0.00    +0.000 A 
ATOM      6  C   UNL     1      46.140   4.735  13.058  0.00  0.00    +0.000 A 
ATOM      7  N   UNL     1      46.728   4.815  14.270  0.00  0.00    +0.000 NA
ATOM      8  H   UNL     1      49.120   6.142  15.695  0.00  0.00    +0.000 HD
ENDROOT
BRANCH   6   9
ATOM      9  N   UNL     1      45.263   3.662  12.763  0.00  0.00    +0.000 N 
ATOM     10  H   UNL     1      45.471   2.885  13.382  0.00  0.00    +0.000 HD
BRANCH   9  11
ATOM     11  C   UNL     1      43.842   3.848  12.668  0.00  0.00    +0.000 C 
ATOM     12  C   UNL     1      43.425   4.174  11.211  0.00  0.00    +0.000 C 
ATOM     13  C   UNL     1      42.378   5.132  11.810  0.00  0.00    +0.000 C 
ATOM     14  C   UNL     1      43.309   5.249  13.042  0.00  0.00    +0.000 C 
ENDBRANCH   9  11
ENDBRANCH   6   9
BRANCH   1  15
ATOM     15  C   UNL     1      47.735   5.006  16.728  0.00  0.00    +0.000 C 
BRANCH  15  19
ATOM     16  C   UNL     1      51.027   2.302  17.459  0.00  0.00    +0.000 A 
ATOM     17  C   UNL     1      51.197   3.677  17.661  0.00  0.00    +0.000 A 
ATOM     18  C   UNL     1      50.137   4.555  17.410  0.00  0.00    +0.000 A 
ATOM     19  C   UNL     1      48.900   4.069  16.955  0.00  0.00    +0.000 A 
ATOM     20  C   UNL     1      48.747   2.692  16.740  0.00  0.00    +0.000 A 
ATOM     21  C   UNL     1      49.804   1.815  16.986  0.00  0.00    +0.000 A 
BRANCH  16  23
ATOM     22  N   UNL     1      51.757   0.087  18.162  0.00  0.00    +0.000 N 
ATOM     23  C   UNL     1      52.118   1.327  17.713  0.00  0.00    +0.000 C 
ATOM     24  O   UNL     1      53.290   1.597  17.489  0.00  0.00    +0.000 OA
ATOM     25  H   UNL     1      52.499  -0.598  18.216  0.00  0.00    +0.000 HD
ATOM     26  H   UNL     1      50.808  -0.254  18.103  0.00  0.00    +0.000 HD
ENDBRANCH  16  23
ENDBRANCH  15  19
ENDBRANCH   1  15
TORSDOF 5
ENDMDL
MODEL 8
REMARK VINA RESULT:    -6.399      4.473      9.946
REMARK INTER + INTRA:          -8.778
REMARK INTER:                  -8.246
REMARK INTRA:                  -0.532
REMARK UNBOUND:                -0.509
REMARK  Name = 
REMARK  5 active torsions:
REMARK  status: ('A' for Active; 'I' for Inactive)
REMARK    1  A    between atoms: C_2  and  C_4
REMARK    2  A    between atoms: C_7  and  C_8
REMARK    3  A    between atoms: C_8  and  N_9
REMARK    4  A    between atoms: C_14  and  N_15
REMARK    5  A    between atoms: N_15  and  C_16
REMARK                            x       y       z     vdW  Elec       q    Type
REMARK                         _______ _______ _______ _____ _____    ______ ____
ROOT
ATOM      1  N   UNL     1      47.112   1.726   4.541  0.00  0.00    +0.000 N 
ATOM      2  C   UNL     1      46.743   0.520   3.916  0.00  0.00    +0.000 A 
ATOM      3  C   UNL     1      46.090   0.559   2.680  0.00  0.00    +0.000 A 
ATOM      4  N   UNL     1      45.641  -0.541   2.035  0.00  0.00    +0.000 NA
ATOM      5  C   UNL     1      45.862  -1.701   2.695  0.00  0.00    +0.000 A 
ATOM      6  C   UNL     1      46.543  -1.789   3.913  0.00  0.00    +0.000 A 
ATOM      7  N   UNL     1      46.974  -0.667   4.527  0.00  0.00    +0.000 NA
ATOM      8  H   UNL     1      47.717   2.266   3.926  0.00  0.00    +0.000 HD
ENDROOT
BRANCH   6   9
ATOM      9  N   UNL     1      46.721  -3.051   4.532  0.00  0.00    +0.000 N 
ATOM     10  H   UNL     1      46.085  -3.126   5.319  0.00  0.00    +0.000 HD
BRANCH   9  11
ATOM     11  C   UNL     1      46.716  -4.273   3.777  0.00  0.00    +0.000 C 
ATOM     12  C   UNL     1      46.828  -5.501   4.717  0.00  0.00    +0.000 C 
ATOM     13  C   UNL     1      47.707  -6.151   3.632  0.00  0.00    +0.000 C 
ATOM     14  C   UNL     1      48.072  -4.714   3.182  0.00  0.00    +0.000 C 
ENDBRANCH   9  11
ENDBRANCH   6   9
BRANCH   1  15
ATOM     15  C   UNL     1      47.706   1.523   5.854  0.00  0.00    +0.000 C 
BRANCH  15  19
ATOM     16  C   UNL     1      45.046   3.093   8.877  0.00  0.00    +0.000 A 
ATOM     17  C   UNL     1      45.564   3.945   7.894  0.00  0.00    +0.000 A 
ATOM     18  C   UNL     1      46.437   3.441   6.925  0.00  0.00    +0.000 A 
ATOM     19  C   UNL     1      46.801   2.085   6.928  0.00  0.00    +0.000 A 
ATOM     20  C   UNL     1      46.290   1.245   7.927  0.00  0.00    +0.000 A 
ATOM     21  C   UNL     1      45.421   1.746   8.898  0.00  0.00    +0.000 A 
BRANCH  16  23
ATOM     22  N   UNL     1      43.795   4.904   9.921  0.00  0.00    +0.000 N 
ATOM     23  C   UNL     1      44.113   3.575   9.928  0.00  0.00    +0.000 C 
ATOM     24  O   UNL     1      43.609   2.813  10.742  0.00  0.00    +0.000 OA
ATOM     25  H   UNL     1      43.070   5.191  10.567  0.00  0.00    +0.000 HD
ATOM     26  H   UNL     1      43.973   5.499   9.124  0.00  0.00    +0.000 HD
ENDBRANCH  16  23
ENDBRANCH  15  19
ENDBRANCH   1  15
TORSDOF 5
ENDMDL
MODEL 9
REMARK VINA RESULT:    -6.280      4.075      5.164
REMARK INTER + INTRA:          -8.625
REMARK INTER:                  -8.039
REMARK INTRA:                  -0.587
REMARK UNBOUND:                -0.509
REMARK  Name = 
REMARK  5 active torsions:
REMARK  status: ('A' for Active; 'I' for Inactive)
REMARK    1  A    between atoms: C_2  and  C_4
REMARK    2  A    between atoms: C_7  and  C_8
REMARK    3  A    between atoms: C_8  and  N_9
REMARK    4  A    between atoms: C_14  and  N_15
REMARK    5  A    between atoms: N_15  and  C_16
REMARK                            x       y       z     vdW  Elec       q    Type
REMARK                         _______ _______ _______ _____ _____    ______ ____
ROOT
ATOM      1  N   UNL     1      48.486   7.698  13.920  0.00  0.00    +0.000 N 
ATOM      2  C   UNL     1      48.894   7.460  15.246  0.00  0.00    +0.000 A 
ATOM      3  C   UNL     1      49.028   8.537  16.127  0.00  0.00    +0.000 A 
ATOM      4  N   UNL     1      49.474   8.415  17.397  0.00  0.00    +0.000 NA
ATOM      5  C   UNL     1      49.801   7.151  17.752  0.00  0.00    +0.000 A 
ATOM      6  C   UNL     1      49.648   6.041  16.917  0.00  0.00    +0.000 A 
ATOM      7  N   UNL     1      49.200   6.204  15.654  0.00  0.00    +0.000 NA
ATOM      8  H   UNL     1      47.586   8.174  13.913  0.00  0.00    +0.000 HD
ENDROOT
BRANCH   6   9
ATOM      9  N   UNL     1      50.023   4.755  17.377  0.00  0.00    +0.000 N 
ATOM     10  H   UNL     1      50.824   4.845  17.994  0.00  0.00    +0.000 HD
BRANCH   9  11
ATOM     11  C   UNL     1      49.069   3.842  17.940  0.00  0.00    +0.000 C 
ATOM     12  C   UNL     1      48.657   2.767  16.903  0.00  0.00    +0.000 C 
ATOM     13  C   UNL     1      47.237   2.854  17.494  0.00  0.00    +0.000 C 
ATOM     14  C   UNL     1      47.593   4.300  17.923  0.00  0.00    +0.000 C 
ENDBRANCH   9  11
ENDBRANCH   6   9
BRANCH   1  15
ATOM     15  C   UNL     1      48.473   6.490  13.107  0.00  0.00    +0.000 C 
BRANCH  15  19
ATOM     16  C   UNL     1      44.445   5.381  12.001  0.00  0.00    +0.000 A 
ATOM     17  C   UNL     1      45.185   6.232  11.173  0.00  0.00    +0.000 A 
ATOM     18  C   UNL     1      46.484   6.604  11.538  0.00  0.00    +0.000 A 
ATOM     19  C   UNL     1      47.053   6.131  12.731  0.00  0.00    +0.000 A 
ATOM     20  C   UNL     1      46.296   5.293  13.561  0.00  0.00    +0.000 A 
ATOM     21  C   UNL     1      44.999   4.923  13.202  0.00  0.00    +0.000 A 
BRANCH  16  23
ATOM     22  N   UNL     1      42.079   5.896  11.736  0.00  0.00    +0.000 N 
ATOM     23  C   UNL     1      43.064   4.952  11.660  0.00  0.00    +0.000 C 
ATOM     24  O   UNL     1      42.817   3.814  11.282  0.00  0.00    +0.000 OA
ATOM     25  H   UNL     1      41.170   5.617  11.389  0.00  0.00    +0.000 HD
ATOM     26  H   UNL     1      42.280   6.885  11.782  0.00  0.00    +0.000 HD
ENDBRANCH  16  23
ENDBRANCH  15  19
ENDBRANCH   1  15
TORSDOF 5
ENDMDL
