MODEL 1
REMARK VINA RESULT:    -6.741      0.000      0.000
REMARK INTER + INTRA:          -9.753
REMARK INTER:                  -8.712
REMARK INTRA:                  -1.041
REMARK UNBOUND:                -1.041
REMARK  Name = 
REMARK  5 active torsions:
REMARK  status: ('A' for Active; 'I' for Inactive)
REMARK    1  A    between atoms: N_2  and  C_4
REMARK    2  A    between atoms: C_8  and  O_9
REMARK    3  A    between atoms: O_9  and  C_10
REMARK    4  A    between atoms: C_10  and  C_11
REMARK    5  A    between atoms: C_15  and  C_16
REMARK                            x       y       z     vdW  Elec       q    Type
REMARK                         _______ _______ _______ _____ _____    ______ ____
ROOT
ATOM      1  C   UNL     1      49.119   7.677  13.811  0.00  0.00    +0.000 C 
ATOM      2  C   UNL     1      50.144   8.195  12.806  0.00  0.00    +0.000 C 
ATOM      3  C   UNL     1      49.572   9.134  13.811  0.00  0.00    +0.000 C 
ENDROOT
BRANCH   1   4
ATOM      4  C   UNL     1      47.680   7.448  13.397  0.00  0.00    +0.000 A 
ATOM      5  C   UNL     1      46.753   8.500  13.428  0.00  0.00    +0.000 A 
ATOM      6  C   UNL     1      45.482   8.359  12.886  0.00  0.00    +0.000 A 
ATOM      7  C   UNL     1      45.114   7.157  12.290  0.00  0.00    +0.000 A 
ATOM      8  C   UNL     1      45.980   6.057  12.280  0.00  0.00    +0.000 A 
ATOM      9  C   UNL     1      47.245   6.219  12.872  0.00  0.00    +0.000 A 
BRANCH   8  10
ATOM     10  C   UNL     1      45.685   4.747  11.554  0.00  0.00    +0.000 C 
ATOM     11  C   UNL     1      44.790   4.859  10.308  0.00  0.00    +0.000 C 
ATOM     12  C   UNL     1      43.309   4.995  10.666  0.00  0.00    +0.000 C 
ATOM     13  N   UNL     1      42.849   3.902  11.519  0.00  0.00    +0.000 NA
ATOM     14  C   UNL     1      43.634   3.829  12.753  0.00  0.00    +0.000 C 
ATOM     15  C   UNL     1      45.122   3.644  12.471  0.00  0.00    +0.000 C 
ATOM     16  H   UNL     1      42.940   3.021  11.012  0.00  0.00    +0.000 HD
ENDBRANCH   8  10
ENDBRANCH   1   4
BRANCH   1  17
ATOM     17  O   UNL     1      49.674   6.684  14.723  0.00  0.00    +0.000 OA
BRANCH  17  22
ATOM     18  C   UNL     1      48.002   5.019  17.479  0.00  0.00    +0.000 A 
ATOM     19  C   UNL     1      47.910   6.053  18.424  0.00  0.00    +0.000 A 
ATOM     20  C   UNL     1      48.324   7.339  18.079  0.00  0.00    +0.000 A 
ATOM     21  C   UNL     1      48.866   7.579  16.820  0.00  0.00    +0.000 A 
ATOM     22  C   UNL     1      49.025   6.526  15.918  0.00  0.00    +0.000 A 
ATOM     23  C   UNL     1      48.550   5.252  16.216  0.00  0.00    +0.000 A 
BRANCH  18  25
ATOM     24  O   UNL     1      46.513   3.247  17.358  0.00  0.00    +0.000 OA
ATOM     25  N   UNL     1      47.572   3.668  17.841  0.00  0.00    +0.000 N 
ATOM     26  O   UNL     1      48.293   3.020  18.616  0.00  0.00    +0.000 OA
ENDBRANCH  18  25
ENDBRANCH  17  22
ENDBRANCH   1  17
TORSDOF 5
ENDMDL
MODEL 2
REMARK VINA RESULT:    -6.700      3.556      5.691
REMARK INTER + INTRA:          -9.699
REMARK INTER:                  -8.911
REMARK INTRA:                  -0.788
REMARK UNBOUND:                -1.041
REMARK  Name = 
REMARK  5 active torsions:
REMARK  status: ('A' for Active; 'I' for Inactive)
REMARK    1  A    between atoms: N_2  and  C_4
REMARK    2  A    between atoms: C_8  and  O_9
REMARK    3  A    between atoms: O_9  and  C_10
REMARK    4  A    between atoms: C_10  and  C_11
REMARK    5  A    between atoms: C_15  and  C_16
REMARK                            x       y       z     vdW  Elec       q    Type
REMARK                         _______ _______ _______ _____ _____    ______ ____
ROOT
ATOM      1  C   UNL     1      48.249   7.948  12.574  0.00  0.00    +0.000 C 
ATOM      2  C   UNL     1      49.764   7.920  12.759  0.00  0.00    +0.000 C 
ATOM      3  C   UNL     1      49.200   7.981  11.381  0.00  0.00    +0.000 C 
ENDROOT
BRANCH   1   4
ATOM      4  C   UNL     1      47.432   6.681  12.714  0.00  0.00    +0.000 A 
ATOM      5  C   UNL     1      47.496   5.918  13.890  0.00  0.00    +0.000 A 
ATOM      6  C   UNL     1      46.625   4.858  14.110  0.00  0.00    +0.000 A 
ATOM      7  C   UNL     1      45.662   4.544  13.157  0.00  0.00    +0.000 A 
ATOM      8  C   UNL     1      45.589   5.237  11.943  0.00  0.00    +0.000 A 
ATOM      9  C   UNL     1      46.510   6.279  11.732  0.00  0.00    +0.000 A 
BRANCH   8  10
ATOM     10  C   UNL     1      44.496   5.018  10.901  0.00  0.00    +0.000 C 
ATOM     11  C   UNL     1      43.226   4.308  11.403  0.00  0.00    +0.000 C 
ATOM     12  C   UNL     1      43.415   2.795  11.524  0.00  0.00    +0.000 C 
ATOM     13  N   UNL     1      43.863   2.197  10.268  0.00  0.00    +0.000 NA
ATOM     14  C   UNL     1      45.117   2.800   9.815  0.00  0.00    +0.000 C 
ATOM     15  C   UNL     1      44.989   4.309   9.625  0.00  0.00    +0.000 C 
ATOM     16  H   UNL     1      43.146   2.339   9.556  0.00  0.00    +0.000 HD
ENDBRANCH   8  10
ENDBRANCH   1   4
BRANCH   1  17
ATOM     17  O   UNL     1      47.636   9.153  13.120  0.00  0.00    +0.000 OA
BRANCH  17  22
ATOM     18  C   UNL     1      44.793  10.583  11.377  0.00  0.00    +0.000 A 
ATOM     19  C   UNL     1      45.396  11.628  10.658  0.00  0.00    +0.000 A 
ATOM     20  C   UNL     1      46.782  11.776  10.690  0.00  0.00    +0.000 A 
ATOM     21  C   UNL     1      47.553  10.916  11.467  0.00  0.00    +0.000 A 
ATOM     22  C   UNL     1      46.935   9.931  12.239  0.00  0.00    +0.000 A 
ATOM     23  C   UNL     1      45.561   9.722  12.163  0.00  0.00    +0.000 A 
BRANCH  18  25
ATOM     24  O   UNL     1      42.864   9.527  10.647  0.00  0.00    +0.000 OA
ATOM     25  N   UNL     1      43.338  10.430  11.348  0.00  0.00    +0.000 N 
ATOM     26  O   UNL     1      42.661  11.217  12.027  0.00  0.00    +0.000 OA
ENDBRANCH  18  25
ENDBRANCH  17  22
ENDBRANCH   1  17
TORSDOF 5
ENDMDL
MODEL 3
REMARK VINA RESULT:    -6.536      2.683      6.184
REMARK INTER + INTRA:          -9.487
REMARK INTER:                  -8.264
REMARK INTRA:                  -1.222
REMARK UNBOUND:                -1.041
REMARK  Name = 
REMARK  5 active torsions:
REMARK  status: ('A' for Active; 'I' for Inactive)
REMARK    1  A    between atoms: N_2  and  C_4
REMARK    2  A    between atoms: C_8  and  O_9
REMARK    3  A    between atoms: O_9  and  C_10
REMARK    4  A    between atoms: C_10  and  C_11
REMARK    5  A    between atoms: C_15  and  C_16
REMARK                            x       y       z     vdW  Elec       q    Type
REMARK                         _______ _______ _______ _____ _____    ______ ____
ROOT
ATOM      1  C   UNL     1      48.128   7.741  12.894  0.00  0.00    +0.000 C 
ATOM      2  C   UNL     1      49.038   8.336  11.822  0.00  0.00    +0.000 C 
ATOM      3  C   UNL     1      49.153   6.888  12.153  0.00  0.00    +0.000 C 
ENDROOT
BRANCH   1   4
ATOM      4  C   UNL     1      48.417   7.968  14.363  0.00  0.00    +0.000 A 
ATOM      5  C   UNL     1      48.181   9.220  14.951  0.00  0.00    +0.000 A 
ATOM      6  C   UNL     1      48.267   9.400  16.326  0.00  0.00    +0.000 A 
ATOM      7  C   UNL     1      48.583   8.322  17.146  0.00  0.00    +0.000 A 
ATOM      8  C   UNL     1      48.881   7.064  16.608  0.00  0.00    +0.000 A 
ATOM      9  C   UNL     1      48.825   6.924  15.210  0.00  0.00    +0.000 A 
BRANCH   8  10
ATOM     10  C   UNL     1      49.132   5.816  17.450  0.00  0.00    +0.000 C 
ATOM     11  C   UNL     1      48.752   4.478  16.793  0.00  0.00    +0.000 C 
ATOM     12  C   UNL     1      47.246   4.211  16.846  0.00  0.00    +0.000 C 
ATOM     13  N   UNL     1      46.727   4.267  18.211  0.00  0.00    +0.000 NA
ATOM     14  C   UNL     1      47.005   5.565  18.827  0.00  0.00    +0.000 C 
ATOM     15  C   UNL     1      48.498   5.877  18.853  0.00  0.00    +0.000 C 
ATOM     16  H   UNL     1      47.167   3.532  18.765  0.00  0.00    +0.000 HD
ENDBRANCH   8  10
ENDBRANCH   1   4
BRANCH   1  17
ATOM     17  O   UNL     1      46.719   7.773  12.519  0.00  0.00    +0.000 OA
BRANCH  17  22
ATOM     18  C   UNL     1      45.352   4.924  10.737  0.00  0.00    +0.000 A 
ATOM     19  C   UNL     1      45.120   4.017  11.783  0.00  0.00    +0.000 A 
ATOM     20  C   UNL     1      45.334   4.418  13.102  0.00  0.00    +0.000 A 
ATOM     21  C   UNL     1      45.816   5.696  13.368  0.00  0.00    +0.000 A 
ATOM     22  C   UNL     1      46.117   6.561  12.315  0.00  0.00    +0.000 A 
ATOM     23  C   UNL     1      45.842   6.205  10.998  0.00  0.00    +0.000 A 
BRANCH  18  25
ATOM     24  O   UNL     1      45.815   5.036   8.469  0.00  0.00    +0.000 OA
ATOM     25  N   UNL     1      45.133   4.502   9.353  0.00  0.00    +0.000 N 
ATOM     26  O   UNL     1      44.272   3.634   9.143  0.00  0.00    +0.000 OA
ENDBRANCH  18  25
ENDBRANCH  17  22
ENDBRANCH   1  17
TORSDOF 5
ENDMDL
MODEL 4
REMARK VINA RESULT:    -6.101      4.135      7.920
REMARK INTER + INTRA:          -8.925
REMARK INTER:                  -9.557
REMARK INTRA:                   0.633
REMARK UNBOUND:                -1.041
REMARK  Name = 
REMARK  5 active torsions:
REMARK  status: ('A' for Active; 'I' for Inactive)
REMARK    1  A    between atoms: N_2  and  C_4
REMARK    2  A    between atoms: C_8  and  O_9
REMARK    3  A    between atoms: O_9  and  C_10
REMARK    4  A    between atoms: C_10  and  C_11
REMARK    5  A    between atoms: C_15  and  C_16
REMARK                            x       y       z     vdW  Elec       q    Type
REMARK                         _______ _______ _______ _____ _____    ______ ____
ROOT
ATOM      1  C   UNL     1      44.344   5.353  10.949  0.00  0.00    +0.000 C 
ATOM      2  C   UNL     1      43.077   4.538  11.191  0.00  0.00    +0.000 C 
ATOM      3  C   UNL     1      43.030   6.019  11.344  0.00  0.00    +0.000 C 
ENDROOT
BRANCH   1   4
ATOM      4  C   UNL     1      45.437   5.407  11.997  0.00  0.00    +0.000 A 
ATOM      5  C   UNL     1      45.476   4.464  13.035  0.00  0.00    +0.000 A 
ATOM      6  C   UNL     1      46.563   4.385  13.898  0.00  0.00    +0.000 A 
ATOM      7  C   UNL     1      47.642   5.247  13.732  0.00  0.00    +0.000 A 
ATOM      8  C   UNL     1      47.631   6.242  12.747  0.00  0.00    +0.000 A 
ATOM      9  C   UNL     1      46.500   6.323  11.916  0.00  0.00    +0.000 A 
BRANCH   8  10
ATOM     10  C   UNL     1      48.819   7.150  12.441  0.00  0.00    +0.000 C 
ATOM     11  C   UNL     1      49.772   7.426  13.616  0.00  0.00    +0.000 C 
ATOM     12  C   UNL     1      49.217   8.477  14.580  0.00  0.00    +0.000 C 
ATOM     13  N   UNL     1      48.886   9.725  13.897  0.00  0.00    +0.000 NA
ATOM     14  C   UNL     1      47.915   9.498  12.825  0.00  0.00    +0.000 C 
ATOM     15  C   UNL     1      48.423   8.493  11.797  0.00  0.00    +0.000 C 
ATOM     16  H   UNL     1      49.737  10.123  13.499  0.00  0.00    +0.000 HD
ENDBRANCH   8  10
ENDBRANCH   1   4
BRANCH   1  17
ATOM     17  O   UNL     1      44.804   5.286   9.567  0.00  0.00    +0.000 OA
BRANCH  17  22
ATOM     18  C   UNL     1      46.397   2.714   7.564  0.00  0.00    +0.000 A 
ATOM     19  C   UNL     1      45.946   1.543   8.192  0.00  0.00    +0.000 A 
ATOM     20  C   UNL     1      45.019   1.632   9.230  0.00  0.00    +0.000 A 
ATOM     21  C   UNL     1      44.582   2.879   9.665  0.00  0.00    +0.000 A 
ATOM     22  C   UNL     1      45.099   4.040   9.085  0.00  0.00    +0.000 A 
ATOM     23  C   UNL     1      45.968   3.969   8.000  0.00  0.00    +0.000 A 
BRANCH  18  25
ATOM     24  O   UNL     1      47.016   2.971   5.346  0.00  0.00    +0.000 OA
ATOM     25  N   UNL     1      47.374   2.622   6.478  0.00  0.00    +0.000 N 
ATOM     26  O   UNL     1      48.506   2.195   6.754  0.00  0.00    +0.000 OA
ENDBRANCH  18  25
ENDBRANCH  17  22
ENDBRANCH   1  17
TORSDOF 5
ENDMDL
MODEL 5
REMARK VINA RESULT:    -5.835      2.122      6.077
REMARK INTER + INTRA:          -8.582
REMARK INTER:                  -7.926
REMARK INTRA:                  -0.656
REMARK UNBOUND:                -1.041
REMARK  Name = 
REMARK  5 active torsions:
REMARK  status: ('A' for Active; 'I' for Inactive)
REMARK    1  A    between atoms: N_2  and  C_4
REMARK    2  A    between atoms: C_8  and  O_9
REMARK    3  A    between atoms: O_9  and  C_10
REMARK    4  A    between atoms: C_10  and  C_11
REMARK    5  A    between atoms: C_15  and  C_16
REMARK                            x       y       z     vdW  Elec       q    Type
REMARK                         _______ _______ _______ _____ _____    ______ ____
ROOT
ATOM      1  C   UNL     1      48.107   7.827  13.090  0.00  0.00    +0.000 C 
ATOM      2  C   UNL     1      48.581   8.915  12.130  0.00  0.00    +0.000 C 
ATOM      3  C   UNL     1      48.584   7.494  11.680  0.00  0.00    +0.000 C 
ENDROOT
BRANCH   1   4
ATOM      4  C   UNL     1      49.005   7.341  14.209  0.00  0.00    +0.000 A 
ATOM      5  C   UNL     1      50.347   7.744  14.271  0.00  0.00    +0.000 A 
ATOM      6  C   UNL     1      51.136   7.458  15.378  0.00  0.00    +0.000 A 
ATOM      7  C   UNL     1      50.592   6.767  16.456  0.00  0.00    +0.000 A 
ATOM      8  C   UNL     1      49.274   6.295  16.424  0.00  0.00    +0.000 A 
ATOM      9  C   UNL     1      48.513   6.565  15.272  0.00  0.00    +0.000 A 
BRANCH   8  10
ATOM     10  C   UNL     1      48.581   5.625  17.607  0.00  0.00    +0.000 C 
ATOM     11  C   UNL     1      49.498   5.196  18.765  0.00  0.00    +0.000 C 
ATOM     12  C   UNL     1      50.243   3.895  18.466  0.00  0.00    +0.000 C 
ATOM     13  N   UNL     1      49.331   2.808  18.118  0.00  0.00    +0.000 NA
ATOM     14  C   UNL     1      48.505   3.163  16.963  0.00  0.00    +0.000 C 
ATOM     15  C   UNL     1      47.692   4.430  17.210  0.00  0.00    +0.000 C 
ATOM     16  H   UNL     1      48.725   2.613  18.915  0.00  0.00    +0.000 HD
ENDBRANCH   8  10
ENDBRANCH   1   4
BRANCH   1  17
ATOM     17  O   UNL     1      46.694   7.950  13.430  0.00  0.00    +0.000 OA
BRANCH  17  22
ATOM     18  C   UNL     1      44.884   4.970  12.426  0.00  0.00    +0.000 A 
ATOM     19  C   UNL     1      43.940   5.498  11.532  0.00  0.00    +0.000 A 
ATOM     20  C   UNL     1      43.990   6.850  11.195  0.00  0.00    +0.000 A 
ATOM     21  C   UNL     1      44.946   7.675  11.780  0.00  0.00    +0.000 A 
ATOM     22  C   UNL     1      45.829   7.155  12.729  0.00  0.00    +0.000 A 
ATOM     23  C   UNL     1      45.841   5.794  13.021  0.00  0.00    +0.000 A 
BRANCH  18  25
ATOM     24  O   UNL     1      45.900   2.946  12.918  0.00  0.00    +0.000 OA
ATOM     25  N   UNL     1      44.829   3.552  12.783  0.00  0.00    +0.000 N 
ATOM     26  O   UNL     1      43.710   3.036  12.929  0.00  0.00    +0.000 OA
ENDBRANCH  18  25
ENDBRANCH  17  22
ENDBRANCH   1  17
TORSDOF 5
ENDMDL
MODEL 6
REMARK VINA RESULT:    -5.732      2.032      6.028
REMARK INTER + INTRA:          -8.448
REMARK INTER:                  -7.553
REMARK INTRA:                  -0.896
REMARK UNBOUND:                -1.041
REMARK  Name = 
REMARK  5 active torsions:
REMARK  status: ('A' for Active; 'I' for Inactive)
REMARK    1  A    between atoms: N_2  and  C_4
REMARK    2  A    between atoms: C_8  and  O_9
REMARK    3  A    between atoms: O_9  and  C_10
REMARK    4  A    between atoms: C_10  and  C_11
REMARK    5  A    between atoms: C_15  and  C_16
REMARK                            x       y       z     vdW  Elec       q    Type
REMARK                         _______ _______ _______ _____ _____    ______ ____
ROOT
ATOM      1  C   UNL     1      48.449   8.383  14.429  0.00  0.00    +0.000 C 
ATOM      2  C   UNL     1      49.249   9.432  13.662  0.00  0.00    +0.000 C 
ATOM      3  C   UNL     1      49.567   7.989  13.468  0.00  0.00    +0.000 C 
ENDROOT
BRANCH   1   4
ATOM      4  C   UNL     1      48.731   8.116  15.893  0.00  0.00    +0.000 A 
ATOM      5  C   UNL     1      48.204   8.958  16.885  0.00  0.00    +0.000 A 
ATOM      6  C   UNL     1      48.298   8.632  18.232  0.00  0.00    +0.000 A 
ATOM      7  C   UNL     1      48.918   7.447  18.616  0.00  0.00    +0.000 A 
ATOM      8  C   UNL     1      49.508   6.598  17.672  0.00  0.00    +0.000 A 
ATOM      9  C   UNL     1      49.431   6.975  16.319  0.00  0.00    +0.000 A 
BRANCH   8  10
ATOM     10  C   UNL     1      50.109   5.236  18.009  0.00  0.00    +0.000 C 
ATOM     11  C   UNL     1      49.418   4.022  17.365  0.00  0.00    +0.000 C 
ATOM     12  C   UNL     1      48.129   3.633  18.091  0.00  0.00    +0.000 C 
ATOM     13  N   UNL     1      48.354   3.388  19.514  0.00  0.00    +0.000 NA
ATOM     14  C   UNL     1      48.934   4.564  20.166  0.00  0.00    +0.000 C 
ATOM     15  C   UNL     1      50.253   4.980  19.522  0.00  0.00    +0.000 C 
ATOM     16  H   UNL     1      48.991   2.598  19.620  0.00  0.00    +0.000 HD
ENDBRANCH   8  10
ENDBRANCH   1   4
BRANCH   1  17
ATOM     17  O   UNL     1      47.042   8.355  14.046  0.00  0.00    +0.000 OA
BRANCH  17  22
ATOM     18  C   UNL     1      46.345   5.003  12.843  0.00  0.00    +0.000 A 
ATOM     19  C   UNL     1      45.704   5.266  11.623  0.00  0.00    +0.000 A 
ATOM     20  C   UNL     1      45.604   6.579  11.166  0.00  0.00    +0.000 A 
ATOM     21  C   UNL     1      46.100   7.623  11.942  0.00  0.00    +0.000 A 
ATOM     22  C   UNL     1      46.665   7.356  13.191  0.00  0.00    +0.000 A 
ATOM     23  C   UNL     1      46.839   6.046  13.629  0.00  0.00    +0.000 A 
BRANCH  18  25
ATOM     24  O   UNL     1      45.610   2.806  12.922  0.00  0.00    +0.000 OA
ATOM     25  N   UNL     1      46.446   3.625  13.326  0.00  0.00    +0.000 N 
ATOM     26  O   UNL     1      47.364   3.356  14.115  0.00  0.00    +0.000 OA
ENDBRANCH  18  25
ENDBRANCH  17  22
ENDBRANCH   1  17
TORSDOF 5
ENDMDL
MODEL 7
REMARK VINA RESULT:    -5.673      1.782      2.363
REMARK INTER + INTRA:          -8.371
REMARK INTER:                  -7.393
REMARK INTRA:                  -0.978
REMARK UNBOUND:                -1.041
REMARK  Name = 
REMARK  5 active torsions:
REMARK  status: ('A' for Active; 'I' for Inactive)
REMARK    1  A    between atoms: N_2  and  C_4
REMARK    2  A    between atoms: C_8  and  O_9
REMARK    3  A    between atoms: O_9  and  C_10
REMARK    4  A    between atoms: C_10  and  C_11
REMARK    5  A    between atoms: C_15  and  C_16
REMARK                            x       y       z     vdW  Elec       q    Type
REMARK                         _______ _______ _______ _____ _____    ______ ____
ROOT
ATOM      1  C   UNL     1      48.458   8.952  12.286  0.00  0.00    +0.000 C 
ATOM      2  C   UNL     1      49.167  10.007  11.440  0.00  0.00    +0.000 C 
ATOM      3  C   UNL     1      48.836  10.315  12.860  0.00  0.00    +0.000 C 
ENDROOT
BRANCH   1   4
ATOM      4  C   UNL     1      46.972   8.708  12.128  0.00  0.00    +0.000 A 
ATOM      5  C   UNL     1      46.070   9.782  12.118  0.00  0.00    +0.000 A 
ATOM      6  C   UNL     1      44.731   9.598  11.795  0.00  0.00    +0.000 A 
ATOM      7  C   UNL     1      44.268   8.328  11.466  0.00  0.00    +0.000 A 
ATOM      8  C   UNL     1      45.112   7.212  11.513  0.00  0.00    +0.000 A 
ATOM      9  C   UNL     1      46.452   7.426  11.882  0.00  0.00    +0.000 A 
BRANCH   8  10
ATOM     10  C   UNL     1      44.700   5.813  11.064  0.00  0.00    +0.000 C 
ATOM     11  C   UNL     1      43.210   5.469  11.229  0.00  0.00    +0.000 C 
ATOM     12  C   UNL     1      42.851   5.112  12.672  0.00  0.00    +0.000 C 
ATOM     13  N   UNL     1      43.678   4.024  13.190  0.00  0.00    +0.000 NA
ATOM     14  C   UNL     1      45.101   4.365  13.120  0.00  0.00    +0.000 C 
ATOM     15  C   UNL     1      45.541   4.687  11.696  0.00  0.00    +0.000 C 
ATOM     16  H   UNL     1      43.508   3.184  12.637  0.00  0.00    +0.000 HD
ENDBRANCH   8  10
ENDBRANCH   1   4
BRANCH   1  17
ATOM     17  O   UNL     1      49.271   7.760  12.500  0.00  0.00    +0.000 OA
BRANCH  17  22
ATOM     18  C   UNL     1      49.419   6.480  15.892  0.00  0.00    +0.000 A 
ATOM     19  C   UNL     1      50.697   6.895  16.298  0.00  0.00    +0.000 A 
ATOM     20  C   UNL     1      51.461   7.699  15.452  0.00  0.00    +0.000 A 
ATOM     21  C   UNL     1      50.971   8.046  14.196  0.00  0.00    +0.000 A 
ATOM     22  C   UNL     1      49.733   7.560  13.772  0.00  0.00    +0.000 A 
ATOM     23  C   UNL     1      48.925   6.819  14.630  0.00  0.00    +0.000 A 
BRANCH  18  25
ATOM     24  O   UNL     1      48.541   4.426  16.511  0.00  0.00    +0.000 OA
ATOM     25  N   UNL     1      48.619   5.632  16.776  0.00  0.00    +0.000 N 
ATOM     26  O   UNL     1      48.059   6.173  17.743  0.00  0.00    +0.000 OA
ENDBRANCH  18  25
ENDBRANCH  17  22
ENDBRANCH   1  17
TORSDOF 5
ENDMDL
MODEL 8
REMARK VINA RESULT:    -5.666      2.794      6.536
REMARK INTER + INTRA:          -8.363
REMARK INTER:                  -7.740
REMARK INTRA:                  -0.623
REMARK UNBOUND:                -1.041
REMARK  Name = 
REMARK  5 active torsions:
REMARK  status: ('A' for Active; 'I' for Inactive)
REMARK    1  A    between atoms: N_2  and  C_4
REMARK    2  A    between atoms: C_8  and  O_9
REMARK    3  A    between atoms: O_9  and  C_10
REMARK    4  A    between atoms: C_10  and  C_11
REMARK    5  A    between atoms: C_15  and  C_16
REMARK                            x       y       z     vdW  Elec       q    Type
REMARK                         _______ _______ _______ _____ _____    ______ ____
ROOT
ATOM      1  C   UNL     1      48.029   7.522  13.121  0.00  0.00    +0.000 C 
ATOM      2  C   UNL     1      48.133   8.735  12.200  0.00  0.00    +0.000 C 
ATOM      3  C   UNL     1      48.538   7.396  11.688  0.00  0.00    +0.000 C 
ENDROOT
BRANCH   1   4
ATOM      4  C   UNL     1      49.065   7.281  14.199  0.00  0.00    +0.000 A 
ATOM      5  C   UNL     1      50.365   7.790  14.064  0.00  0.00    +0.000 A 
ATOM      6  C   UNL     1      51.273   7.736  15.114  0.00  0.00    +0.000 A 
ATOM      7  C   UNL     1      50.893   7.178  16.330  0.00  0.00    +0.000 A 
ATOM      8  C   UNL     1      49.626   6.606  16.502  0.00  0.00    +0.000 A 
ATOM      9  C   UNL     1      48.744   6.640  15.408  0.00  0.00    +0.000 A 
BRANCH   8  10
ATOM     10  C   UNL     1      49.106   6.073  17.834  0.00  0.00    +0.000 C 
ATOM     11  C   UNL     1      50.180   5.658  18.854  0.00  0.00    +0.000 C 
ATOM     12  C   UNL     1      50.783   4.287  18.540  0.00  0.00    +0.000 C 
ATOM     13  N   UNL     1      49.759   3.250  18.437  0.00  0.00    +0.000 NA
ATOM     14  C   UNL     1      48.771   3.584  17.411  0.00  0.00    +0.000 C 
ATOM     15  C   UNL     1      48.092   4.922  17.687  0.00  0.00    +0.000 C 
ATOM     16  H   UNL     1      49.288   3.155  19.337  0.00  0.00    +0.000 HD
ENDBRANCH   8  10
ENDBRANCH   1   4
BRANCH   1  17
ATOM     17  O   UNL     1      46.653   7.211  13.492  0.00  0.00    +0.000 OA
BRANCH  17  22
ATOM     18  C   UNL     1      44.791   4.726  11.615  0.00  0.00    +0.000 A 
ATOM     19  C   UNL     1      45.344   3.530  12.099  0.00  0.00    +0.000 A 
ATOM     20  C   UNL     1      46.275   3.572  13.136  0.00  0.00    +0.000 A 
ATOM     21  C   UNL     1      46.682   4.798  13.654  0.00  0.00    +0.000 A 
ATOM     22  C   UNL     1      46.184   5.984  13.111  0.00  0.00    +0.000 A 
ATOM     23  C   UNL     1      45.200   5.959  12.126  0.00  0.00    +0.000 A 
BRANCH  18  25
ATOM     24  O   UNL     1      42.798   5.377  10.629  0.00  0.00    +0.000 OA
ATOM     25  N   UNL     1      43.817   4.684  10.524  0.00  0.00    +0.000 N 
ATOM     26  O   UNL     1      44.068   3.951   9.554  0.00  0.00    +0.000 OA
ENDBRANCH  18  25
ENDBRANCH  17  22
ENDBRANCH   1  17
TORSDOF 5
ENDMDL
MODEL 9
REMARK VINA RESULT:    -5.543      2.798      4.156
REMARK INTER + INTRA:          -8.204
REMARK INTER:                  -7.680
REMARK INTRA:                  -0.524
REMARK UNBOUND:                -1.041
REMARK  Name = 
REMARK  5 active torsions:
REMARK  status: ('A' for Active; 'I' for Inactive)
REMARK    1  A    between atoms: N_2  and  C_4
REMARK    2  A    between atoms: C_8  and  O_9
REMARK    3  A    between atoms: O_9  and  C_10
REMARK    4  A    between atoms: C_10  and  C_11
REMARK    5  A    between atoms: C_15  and  C_16
REMARK                            x       y       z     vdW  Elec       q    Type
REMARK                         _______ _______ _______ _____ _____    ______ ____
ROOT
ATOM      1  C   UNL     1      49.041   6.444  17.291  0.00  0.00    +0.000 C 
ATOM      2  C   UNL     1      48.424   7.660  17.976  0.00  0.00    +0.000 C 
ATOM      3  C   UNL     1      48.233   6.311  18.578  0.00  0.00    +0.000 C 
ENDROOT
BRANCH   1   4
ATOM      4  C   UNL     1      48.397   5.844  16.058  0.00  0.00    +0.000 A 
ATOM      5  C   UNL     1      47.677   4.643  16.143  0.00  0.00    +0.000 A 
ATOM      6  C   UNL     1      46.931   4.171  15.070  0.00  0.00    +0.000 A 
ATOM      7  C   UNL     1      46.883   4.901  13.887  0.00  0.00    +0.000 A 
ATOM      8  C   UNL     1      47.625   6.078  13.730  0.00  0.00    +0.000 A 
ATOM      9  C   UNL     1      48.402   6.508  14.820  0.00  0.00    +0.000 A 
BRANCH   8  10
ATOM     10  C   UNL     1      47.537   6.982  12.503  0.00  0.00    +0.000 C 
ATOM     11  C   UNL     1      47.240   8.465  12.784  0.00  0.00    +0.000 C 
ATOM     12  C   UNL     1      45.760   8.717  13.076  0.00  0.00    +0.000 C 
ATOM     13  N   UNL     1      44.899   8.226  12.002  0.00  0.00    +0.000 NA
ATOM     14  C   UNL     1      45.105   6.795  11.773  0.00  0.00    +0.000 C 
ATOM     15  C   UNL     1      46.557   6.475  11.428  0.00  0.00    +0.000 C 
ATOM     16  H   UNL     1      45.112   8.736  11.144  0.00  0.00    +0.000 HD
ENDBRANCH   8  10
ENDBRANCH   1   4
BRANCH   1  17
ATOM     17  O   UNL     1      50.499   6.480  17.282  0.00  0.00    +0.000 OA
BRANCH  17  22
ATOM     18  C   UNL     1      51.437   3.002  17.718  0.00  0.00    +0.000 A 
ATOM     19  C   UNL     1      52.536   3.109  18.584  0.00  0.00    +0.000 A 
ATOM     20  C   UNL     1      52.888   4.357  19.098  0.00  0.00    +0.000 A 
ATOM     21  C   UNL     1      52.178   5.490  18.715  0.00  0.00    +0.000 A 
ATOM     22  C   UNL     1      51.136   5.381  17.791  0.00  0.00    +0.000 A 
ATOM     23  C   UNL     1      50.724   4.136  17.325  0.00  0.00    +0.000 A 
BRANCH  18  25
ATOM     24  O   UNL     1      50.202   1.655  16.293  0.00  0.00    +0.000 OA
ATOM     25  N   UNL     1      51.069   1.694  17.175  0.00  0.00    +0.000 N 
ATOM     26  O   UNL     1      51.647   0.695  17.631  0.00  0.00    +0.000 OA
ENDBRANCH  18  25
ENDBRANCH  17  22
ENDBRANCH   1  17
TORSDOF 5
ENDMDL
