MODEL 1
REMARK VINA RESULT:    -7.969      0.000      0.000
REMARK INTER + INTRA:         -11.665
REMARK INTER:                 -10.998
REMARK INTRA:                  -0.668
REMARK UNBOUND:                -0.668
REMARK  Name = 
REMARK  8 active torsions:
REMARK  status: ('A' for Active; 'I' for Inactive)
REMARK    1  A    between atoms: C_1  and  C_2
REMARK    2  A    between atoms: C_2  and  C_3
REMARK    3  A    between atoms: C_2  and  O_14
REMARK    4  A    between atoms: C_3  and  C_4
REMARK    5  A    between atoms: C_7  and  C_8
REMARK    6  A    between atoms: O_14  and  C_15
REMARK    7  A    between atoms: C_19  and  C_20
REMARK    8  A    between atoms: C_20  and  N_21
REMARK                            x       y       z     vdW  Elec       q    Type
REMARK                         _______ _______ _______ _____ _____    ______ ____
ROOT
ATOM      1  C   UNL     1      42.817   5.222  12.278  0.00  0.00    +0.000 C 
ATOM      2  C   UNL     1      44.068   4.775  11.516  0.00  0.00    +0.000 C 
ENDROOT
BRANCH   2   3
ATOM      3  C   UNL     1      43.636   4.160  10.167  0.00  0.00    +0.000 C 
BRANCH   3   4
ATOM      4  C   UNL     1      44.740   3.606   9.288  0.00  0.00    +0.000 A 
ATOM      5  C   UNL     1      45.478   4.447   8.447  0.00  0.00    +0.000 A 
ATOM      6  C   UNL     1      46.398   3.923   7.533  0.00  0.00    +0.000 A 
ATOM      7  C   UNL     1      46.597   2.542   7.434  0.00  0.00    +0.000 A 
ATOM      8  C   UNL     1      45.885   1.702   8.292  0.00  0.00    +0.000 A 
ATOM      9  F   UNL     1      46.032   0.369   8.241  0.00  0.00    +0.000 F 
ATOM     10  C   UNL     1      44.968   2.225   9.212  0.00  0.00    +0.000 A 
BRANCH   7  11
ATOM     11  C   UNL     1      47.532   2.039   6.389  0.00  0.00    +0.000 C 
ATOM     12  N   UNL     1      48.795   2.555   6.347  0.00  0.00    +0.000 N 
ATOM     13  O   UNL     1      47.191   1.173   5.594  0.00  0.00    +0.000 OA
ATOM     14  H   UNL     1      49.126   3.259   6.994  0.00  0.00    +0.000 HD
ATOM     15  H   UNL     1      49.432   2.187   5.654  0.00  0.00    +0.000 HD
ENDBRANCH   7  11
ENDBRANCH   3   4
ENDBRANCH   2   3
BRANCH   2  16
ATOM     16  O   UNL     1      44.877   5.943  11.296  0.00  0.00    +0.000 OA
BRANCH  16  17
ATOM     17  C   UNL     1      45.986   6.142  12.077  0.00  0.00    +0.000 A 
ATOM     18  C   UNL     1      46.903   7.185  11.935  0.00  0.00    +0.000 A 
ATOM     19  C   UNL     1      47.989   7.291  12.805  0.00  0.00    +0.000 A 
ATOM     20  C   UNL     1      48.150   6.380  13.845  0.00  0.00    +0.000 A 
ATOM     21  C   UNL     1      47.216   5.353  14.038  0.00  0.00    +0.000 A 
ATOM     22  C   UNL     1      46.147   5.236  13.133  0.00  0.00    +0.000 A 
BRANCH  21  23
ATOM     23  C   UNL     1      47.308   4.473  15.260  0.00  0.00    +0.000 C 
BRANCH  23  24
ATOM     24  N   UNL     1      47.663   3.095  14.942  0.00  0.00    +0.000 NA
ATOM     25  H   UNL     1      47.673   2.983  13.929  0.00  0.00    +0.000 HD
ATOM     26  H   UNL     1      46.935   2.476  15.292  0.00  0.00    +0.000 HD
ENDBRANCH  23  24
ENDBRANCH  21  23
ENDBRANCH  16  17
ENDBRANCH   2  16
TORSDOF 7
ENDMDL
MODEL 2
REMARK VINA RESULT:    -7.601      2.097      2.608
REMARK INTER + INTRA:         -11.157
REMARK INTER:                 -10.374
REMARK INTRA:                  -0.784
REMARK UNBOUND:                -0.668
REMARK  Name = 
REMARK  8 active torsions:
REMARK  status: ('A' for Active; 'I' for Inactive)
REMARK    1  A    between atoms: C_1  and  C_2
REMARK    2  A    between atoms: C_2  and  C_3
REMARK    3  A    between atoms: C_2  and  O_14
REMARK    4  A    between atoms: C_3  and  C_4
REMARK    5  A    between atoms: C_7  and  C_8
REMARK    6  A    between atoms: O_14  and  C_15
REMARK    7  A    between atoms: C_19  and  C_20
REMARK    8  A    between atoms: C_20  and  N_21
REMARK                            x       y       z     vdW  Elec       q    Type
REMARK                         _______ _______ _______ _____ _____    ______ ____
ROOT
ATOM      1  C   UNL     1      43.527   2.555  12.268  0.00  0.00    +0.000 C 
ATOM      2  C   UNL     1      44.485   3.655  11.802  0.00  0.00    +0.000 C 
ENDROOT
BRANCH   2   3
ATOM      3  C   UNL     1      44.150   4.020  10.339  0.00  0.00    +0.000 C 
BRANCH   3   4
ATOM      4  C   UNL     1      45.092   3.493   9.275  0.00  0.00    +0.000 A 
ATOM      5  C   UNL     1      45.640   4.350   8.313  0.00  0.00    +0.000 A 
ATOM      6  C   UNL     1      46.394   3.846   7.248  0.00  0.00    +0.000 A 
ATOM      7  C   UNL     1      46.611   2.472   7.115  0.00  0.00    +0.000 A 
ATOM      8  C   UNL     1      46.092   1.616   8.087  0.00  0.00    +0.000 A 
ATOM      9  F   UNL     1      46.265   0.288   8.012  0.00  0.00    +0.000 F 
ATOM     10  C   UNL     1      45.342   2.118   9.158  0.00  0.00    +0.000 A 
BRANCH   7  11
ATOM     11  C   UNL     1      47.356   1.989   5.918  0.00  0.00    +0.000 C 
ATOM     12  N   UNL     1      46.804   2.191   4.687  0.00  0.00    +0.000 N 
ATOM     13  O   UNL     1      48.444   1.438   6.026  0.00  0.00    +0.000 OA
ATOM     14  H   UNL     1      45.916   2.657   4.548  0.00  0.00    +0.000 HD
ATOM     15  H   UNL     1      47.329   1.887   3.879  0.00  0.00    +0.000 HD
ENDBRANCH   7  11
ENDBRANCH   3   4
ENDBRANCH   2   3
BRANCH   2  16
ATOM     16  O   UNL     1      44.282   4.792  12.658  0.00  0.00    +0.000 OA
BRANCH  16  17
ATOM     17  C   UNL     1      45.306   5.687  12.832  0.00  0.00    +0.000 A 
ATOM     18  C   UNL     1      46.597   5.372  13.260  0.00  0.00    +0.000 A 
ATOM     19  C   UNL     1      47.562   6.372  13.383  0.00  0.00    +0.000 A 
ATOM     20  C   UNL     1      47.258   7.688  13.046  0.00  0.00    +0.000 A 
ATOM     21  C   UNL     1      45.984   8.021  12.568  0.00  0.00    +0.000 A 
ATOM     22  C   UNL     1      45.011   7.011  12.482  0.00  0.00    +0.000 A 
BRANCH  21  23
ATOM     23  C   UNL     1      45.715   9.414  12.052  0.00  0.00    +0.000 C 
BRANCH  23  24
ATOM     24  N   UNL     1      44.477   9.983  12.572  0.00  0.00    +0.000 NA
ATOM     25  H   UNL     1      44.211   9.475  13.414  0.00  0.00    +0.000 HD
ATOM     26  H   UNL     1      43.732   9.828  11.896  0.00  0.00    +0.000 HD
ENDBRANCH  23  24
ENDBRANCH  21  23
ENDBRANCH  16  17
ENDBRANCH   2  16
TORSDOF 7
ENDMDL
MODEL 3
REMARK VINA RESULT:    -7.580      1.554      1.806
REMARK INTER + INTRA:         -11.129
REMARK INTER:                 -10.270
REMARK INTRA:                  -0.858
REMARK UNBOUND:                -0.668
REMARK  Name = 
REMARK  8 active torsions:
REMARK  status: ('A' for Active; 'I' for Inactive)
REMARK    1  A    between atoms: C_1  and  C_2
REMARK    2  A    between atoms: C_2  and  C_3
REMARK    3  A    between atoms: C_2  and  O_14
REMARK    4  A    between atoms: C_3  and  C_4
REMARK    5  A    between atoms: C_7  and  C_8
REMARK    6  A    between atoms: O_14  and  C_15
REMARK    7  A    between atoms: C_19  and  C_20
REMARK    8  A    between atoms: C_20  and  N_21
REMARK                            x       y       z     vdW  Elec       q    Type
REMARK                         _______ _______ _______ _____ _____    ______ ____
ROOT
ATOM      1  C   UNL     1      43.425   4.645  12.759  0.00  0.00    +0.000 C 
ATOM      2  C   UNL     1      44.372   4.734  11.558  0.00  0.00    +0.000 C 
ENDROOT
BRANCH   2   3
ATOM      3  C   UNL     1      43.902   3.737  10.478  0.00  0.00    +0.000 C 
BRANCH   3   4
ATOM      4  C   UNL     1      44.920   3.346   9.425  0.00  0.00    +0.000 A 
ATOM      5  C   UNL     1      45.475   4.307   8.572  0.00  0.00    +0.000 A 
ATOM      6  C   UNL     1      46.304   3.931   7.510  0.00  0.00    +0.000 A 
ATOM      7  C   UNL     1      46.592   2.584   7.270  0.00  0.00    +0.000 A 
ATOM      8  C   UNL     1      46.064   1.625   8.136  0.00  0.00    +0.000 A 
ATOM      9  F   UNL     1      46.302   0.317   7.956  0.00  0.00    +0.000 F 
ATOM     10  C   UNL     1      45.238   1.998   9.204  0.00  0.00    +0.000 A 
BRANCH   7  11
ATOM     11  C   UNL     1      47.417   2.241   6.079  0.00  0.00    +0.000 C 
ATOM     12  N   UNL     1      48.773   2.353   6.176  0.00  0.00    +0.000 N 
ATOM     13  O   UNL     1      46.901   1.852   5.039  0.00  0.00    +0.000 OA
ATOM     14  H   UNL     1      49.244   2.653   7.020  0.00  0.00    +0.000 HD
ATOM     15  H   UNL     1      49.327   2.090   5.373  0.00  0.00    +0.000 HD
ENDBRANCH   7  11
ENDBRANCH   3   4
ENDBRANCH   2   3
BRANCH   2  16
ATOM     16  O   UNL     1      44.304   6.081  11.058  0.00  0.00    +0.000 OA
BRANCH  16  17
ATOM     17  C   UNL     1      45.191   7.013  11.531  0.00  0.00    +0.000 A 
ATOM     18  C   UNL     1      44.862   8.296  11.974  0.00  0.00    +0.000 A 
ATOM     19  C   UNL     1      45.856   9.152  12.450  0.00  0.00    +0.000 A 
ATOM     20  C   UNL     1      47.178   8.724  12.523  0.00  0.00    +0.000 A 
ATOM     21  C   UNL     1      47.525   7.425  12.131  0.00  0.00    +0.000 A 
ATOM     22  C   UNL     1      46.522   6.585  11.619  0.00  0.00    +0.000 A 
BRANCH  21  23
ATOM     23  C   UNL     1      48.927   6.918  12.366  0.00  0.00    +0.000 C 
BRANCH  23  24
ATOM     24  N   UNL     1      49.177   6.563  13.758  0.00  0.00    +0.000 NA
ATOM     25  H   UNL     1      50.080   6.944  14.037  0.00  0.00    +0.000 HD
ATOM     26  H   UNL     1      49.257   5.551  13.832  0.00  0.00    +0.000 HD
ENDBRANCH  23  24
ENDBRANCH  21  23
ENDBRANCH  16  17
ENDBRANCH   2  16
TORSDOF 7
ENDMDL
MODEL 4
REMARK VINA RESULT:    -6.753      3.015      6.808
REMARK INTER + INTRA:          -9.986
REMARK INTER:                  -9.338
REMARK INTRA:                  -0.648
REMARK UNBOUND:                -0.668
REMARK  Name = 
REMARK  8 active torsions:
REMARK  status: ('A' for Active; 'I' for Inactive)
REMARK    1  A    between atoms: C_1  and  C_2
REMARK    2  A    between atoms: C_2  and  C_3
REMARK    3  A    between atoms: C_2  and  O_14
REMARK    4  A    between atoms: C_3  and  C_4
REMARK    5  A    between atoms: C_7  and  C_8
REMARK    6  A    between atoms: O_14  and  C_15
REMARK    7  A    between atoms: C_19  and  C_20
REMARK    8  A    between atoms: C_20  and  N_21
REMARK                            x       y       z     vdW  Elec       q    Type
REMARK                         _______ _______ _______ _____ _____    ______ ____
ROOT
ATOM      1  C   UNL     1      43.200   2.725  12.293  0.00  0.00    +0.000 C 
ATOM      2  C   UNL     1      44.004   3.486  11.234  0.00  0.00    +0.000 C 
ENDROOT
BRANCH   2   3
ATOM      3  C   UNL     1      45.462   3.626  11.721  0.00  0.00    +0.000 C 
BRANCH   3   4
ATOM      4  C   UNL     1      45.935   5.026  12.058  0.00  0.00    +0.000 A 
ATOM      5  C   UNL     1      46.980   5.232  12.967  0.00  0.00    +0.000 A 
ATOM      6  C   UNL     1      47.324   6.521  13.387  0.00  0.00    +0.000 A 
ATOM      7  C   UNL     1      46.625   7.636  12.913  0.00  0.00    +0.000 A 
ATOM      8  C   UNL     1      45.603   7.437  11.984  0.00  0.00    +0.000 A 
ATOM      9  F   UNL     1      44.895   8.468  11.495  0.00  0.00    +0.000 F 
ATOM     10  C   UNL     1      45.260   6.149  11.557  0.00  0.00    +0.000 A 
BRANCH   7  11
ATOM     11  C   UNL     1      46.986   8.976  13.455  0.00  0.00    +0.000 C 
ATOM     12  N   UNL     1      47.200   9.096  14.797  0.00  0.00    +0.000 N 
ATOM     13  O   UNL     1      47.106   9.948  12.720  0.00  0.00    +0.000 OA
ATOM     14  H   UNL     1      47.130   8.317  15.440  0.00  0.00    +0.000 HD
ATOM     15  H   UNL     1      47.473  10.001  15.152  0.00  0.00    +0.000 HD
ENDBRANCH   7  11
ENDBRANCH   3   4
ENDBRANCH   2   3
BRANCH   2  16
ATOM     16  O   UNL     1      43.954   2.715  10.022  0.00  0.00    +0.000 OA
BRANCH  16  17
ATOM     17  C   UNL     1      44.899   2.935   9.053  0.00  0.00    +0.000 A 
ATOM     18  C   UNL     1      45.310   4.185   8.586  0.00  0.00    +0.000 A 
ATOM     19  C   UNL     1      46.296   4.281   7.604  0.00  0.00    +0.000 A 
ATOM     20  C   UNL     1      46.908   3.134   7.106  0.00  0.00    +0.000 A 
ATOM     21  C   UNL     1      46.548   1.871   7.594  0.00  0.00    +0.000 A 
ATOM     22  C   UNL     1      45.528   1.785   8.557  0.00  0.00    +0.000 A 
BRANCH  21  23
ATOM     23  C   UNL     1      47.328   0.651   7.168  0.00  0.00    +0.000 C 
BRANCH  23  24
ATOM     24  N   UNL     1      46.856  -0.575   7.802  0.00  0.00    +0.000 NA
ATOM     25  H   UNL     1      47.544  -0.875   8.490  0.00  0.00    +0.000 HD
ATOM     26  H   UNL     1      46.809  -1.312   7.102  0.00  0.00    +0.000 HD
ENDBRANCH  23  24
ENDBRANCH  21  23
ENDBRANCH  16  17
ENDBRANCH   2  16
TORSDOF 7
ENDMDL
MODEL 5
REMARK VINA RESULT:    -6.297      3.707      5.693
REMARK INTER + INTRA:          -9.357
REMARK INTER:                  -8.345
REMARK INTRA:                  -1.013
REMARK UNBOUND:                -0.668
REMARK  Name = 
REMARK  8 active torsions:
REMARK  status: ('A' for Active; 'I' for Inactive)
REMARK    1  A    between atoms: C_1  and  C_2
REMARK    2  A    between atoms: C_2  and  C_3
REMARK    3  A    between atoms: C_2  and  O_14
REMARK    4  A    between atoms: C_3  and  C_4
REMARK    5  A    between atoms: C_7  and  C_8
REMARK    6  A    between atoms: O_14  and  C_15
REMARK    7  A    between atoms: C_19  and  C_20
REMARK    8  A    between atoms: C_20  and  N_21
REMARK                            x       y       z     vdW  Elec       q    Type
REMARK                         _______ _______ _______ _____ _____    ______ ____
ROOT
ATOM      1  C   UNL     1      49.250   8.437  11.849  0.00  0.00    +0.000 C 
ATOM      2  C   UNL     1      47.746   8.235  12.058  0.00  0.00    +0.000 C 
ENDROOT
BRANCH   2   3
ATOM      3  C   UNL     1      47.528   6.975  12.923  0.00  0.00    +0.000 C 
BRANCH   3   4
ATOM      4  C   UNL     1      46.503   5.976  12.424  0.00  0.00    +0.000 A 
ATOM      5  C   UNL     1      46.061   4.931  13.243  0.00  0.00    +0.000 A 
ATOM      6  C   UNL     1      45.225   3.928  12.740  0.00  0.00    +0.000 A 
ATOM      7  C   UNL     1      44.817   3.944  11.403  0.00  0.00    +0.000 A 
ATOM      8  C   UNL     1      45.231   5.000  10.591  0.00  0.00    +0.000 A 
ATOM      9  F   UNL     1      44.874   5.068   9.299  0.00  0.00    +0.000 F 
ATOM     10  C   UNL     1      46.063   6.009  11.092  0.00  0.00    +0.000 A 
BRANCH   7  11
ATOM     11  C   UNL     1      43.990   2.808  10.906  0.00  0.00    +0.000 C 
ATOM     12  N   UNL     1      44.455   2.082   9.849  0.00  0.00    +0.000 N 
ATOM     13  O   UNL     1      42.926   2.516  11.437  0.00  0.00    +0.000 OA
ATOM     14  H   UNL     1      45.337   2.276   9.390  0.00  0.00    +0.000 HD
ATOM     15  H   UNL     1      43.903   1.296   9.537  0.00  0.00    +0.000 HD
ENDBRANCH   7  11
ENDBRANCH   3   4
ENDBRANCH   2   3
BRANCH   2  16
ATOM     16  O   UNL     1      47.248   9.400  12.738  0.00  0.00    +0.000 OA
BRANCH  16  17
ATOM     17  C   UNL     1      46.313  10.186  12.115  0.00  0.00    +0.000 A 
ATOM     18  C   UNL     1      46.490  11.521  11.745  0.00  0.00    +0.000 A 
ATOM     19  C   UNL     1      45.466  12.214  11.099  0.00  0.00    +0.000 A 
ATOM     20  C   UNL     1      44.272  11.574  10.785  0.00  0.00    +0.000 A 
ATOM     21  C   UNL     1      44.088  10.221  11.103  0.00  0.00    +0.000 A 
ATOM     22  C   UNL     1      45.113   9.544  11.785  0.00  0.00    +0.000 A 
BRANCH  21  23
ATOM     23  C   UNL     1      42.859   9.495  10.614  0.00  0.00    +0.000 C 
BRANCH  23  24
ATOM     24  N   UNL     1      42.845   8.086  10.988  0.00  0.00    +0.000 NA
ATOM     25  H   UNL     1      41.940   7.689  10.741  0.00  0.00    +0.000 HD
ATOM     26  H   UNL     1      42.925   8.011  12.000  0.00  0.00    +0.000 HD
ENDBRANCH  23  24
ENDBRANCH  21  23
ENDBRANCH  16  17
ENDBRANCH   2  16
TORSDOF 7
ENDMDL
MODEL 6
REMARK VINA RESULT:    -6.293      3.354      4.869
REMARK INTER + INTRA:          -9.352
REMARK INTER:                  -8.484
REMARK INTRA:                  -0.867
REMARK UNBOUND:                -0.668
REMARK  Name = 
REMARK  8 active torsions:
REMARK  status: ('A' for Active; 'I' for Inactive)
REMARK    1  A    between atoms: C_1  and  C_2
REMARK    2  A    between atoms: C_2  and  C_3
REMARK    3  A    between atoms: C_2  and  O_14
REMARK    4  A    between atoms: C_3  and  C_4
REMARK    5  A    between atoms: C_7  and  C_8
REMARK    6  A    between atoms: O_14  and  C_15
REMARK    7  A    between atoms: C_19  and  C_20
REMARK    8  A    between atoms: C_20  and  N_21
REMARK                            x       y       z     vdW  Elec       q    Type
REMARK                         _______ _______ _______ _____ _____    ______ ____
ROOT
ATOM      1  C   UNL     1      48.753   7.496  11.830  0.00  0.00    +0.000 C 
ATOM      2  C   UNL     1      48.302   7.708  13.278  0.00  0.00    +0.000 C 
ENDROOT
BRANCH   2   3
ATOM      3  C   UNL     1      46.769   7.538  13.353  0.00  0.00    +0.000 C 
BRANCH   3   4
ATOM      4  C   UNL     1      46.184   6.335  12.640  0.00  0.00    +0.000 A 
ATOM      5  C   UNL     1      45.269   6.496  11.593  0.00  0.00    +0.000 A 
ATOM      6  C   UNL     1      44.621   5.392  11.029  0.00  0.00    +0.000 A 
ATOM      7  C   UNL     1      44.866   4.101  11.505  0.00  0.00    +0.000 A 
ATOM      8  C   UNL     1      45.800   3.933  12.529  0.00  0.00    +0.000 A 
ATOM      9  F   UNL     1      46.075   2.718  13.028  0.00  0.00    +0.000 F 
ATOM     10  C   UNL     1      46.455   5.035  13.091  0.00  0.00    +0.000 A 
BRANCH   7  11
ATOM     11  C   UNL     1      44.089   2.974  10.917  0.00  0.00    +0.000 C 
ATOM     12  N   UNL     1      44.660   2.244   9.917  0.00  0.00    +0.000 N 
ATOM     13  O   UNL     1      42.970   2.693  11.326  0.00  0.00    +0.000 OA
ATOM     14  H   UNL     1      45.590   2.429   9.559  0.00  0.00    +0.000 HD
ATOM     15  H   UNL     1      44.138   1.464   9.544  0.00  0.00    +0.000 HD
ENDBRANCH   7  11
ENDBRANCH   3   4
ENDBRANCH   2   3
BRANCH   2  16
ATOM     16  O   UNL     1      48.955   6.711  14.082  0.00  0.00    +0.000 OA
BRANCH  16  17
ATOM     17  C   UNL     1      48.799   6.745  15.443  0.00  0.00    +0.000 A 
ATOM     18  C   UNL     1      48.830   7.894  16.236  0.00  0.00    +0.000 A 
ATOM     19  C   UNL     1      48.642   7.803  17.616  0.00  0.00    +0.000 A 
ATOM     20  C   UNL     1      48.386   6.572  18.212  0.00  0.00    +0.000 A 
ATOM     21  C   UNL     1      48.302   5.411  17.431  0.00  0.00    +0.000 A 
ATOM     22  C   UNL     1      48.529   5.511  16.048  0.00  0.00    +0.000 A 
BRANCH  21  23
ATOM     23  C   UNL     1      47.864   4.112  18.062  0.00  0.00    +0.000 C 
BRANCH  23  24
ATOM     24  N   UNL     1      46.691   3.535  17.417  0.00  0.00    +0.000 NA
ATOM     25  H   UNL     1      46.572   3.967  16.502  0.00  0.00    +0.000 HD
ATOM     26  H   UNL     1      45.863   3.777  17.958  0.00  0.00    +0.000 HD
ENDBRANCH  23  24
ENDBRANCH  21  23
ENDBRANCH  16  17
ENDBRANCH   2  16
TORSDOF 7
ENDMDL
MODEL 7
REMARK VINA RESULT:    -6.197      4.618      6.240
REMARK INTER + INTRA:          -9.219
REMARK INTER:                  -8.222
REMARK INTRA:                  -0.997
REMARK UNBOUND:                -0.668
REMARK  Name = 
REMARK  8 active torsions:
REMARK  status: ('A' for Active; 'I' for Inactive)
REMARK    1  A    between atoms: C_1  and  C_2
REMARK    2  A    between atoms: C_2  and  C_3
REMARK    3  A    between atoms: C_2  and  O_14
REMARK    4  A    between atoms: C_3  and  C_4
REMARK    5  A    between atoms: C_7  and  C_8
REMARK    6  A    between atoms: O_14  and  C_15
REMARK    7  A    between atoms: C_19  and  C_20
REMARK    8  A    between atoms: C_20  and  N_21
REMARK                            x       y       z     vdW  Elec       q    Type
REMARK                         _______ _______ _______ _____ _____    ______ ____
ROOT
ATOM      1  C   UNL     1      50.344   8.739  13.685  0.00  0.00    +0.000 C 
ATOM      2  C   UNL     1      49.298   7.729  14.166  0.00  0.00    +0.000 C 
ENDROOT
BRANCH   2   3
ATOM      3  C   UNL     1      48.820   6.894  12.959  0.00  0.00    +0.000 C 
BRANCH   3   4
ATOM      4  C   UNL     1      47.422   6.313  13.045  0.00  0.00    +0.000 A 
ATOM      5  C   UNL     1      47.190   5.094  13.692  0.00  0.00    +0.000 A 
ATOM      6  C   UNL     1      45.930   4.487  13.651  0.00  0.00    +0.000 A 
ATOM      7  C   UNL     1      44.874   5.082  12.955  0.00  0.00    +0.000 A 
ATOM      8  C   UNL     1      45.093   6.313  12.334  0.00  0.00    +0.000 A 
ATOM      9  F   UNL     1      44.119   6.931  11.649  0.00  0.00    +0.000 F 
ATOM     10  C   UNL     1      46.351   6.926  12.378  0.00  0.00    +0.000 A 
BRANCH   7  11
ATOM     11  C   UNL     1      43.578   4.351  12.882  0.00  0.00    +0.000 C 
ATOM     12  N   UNL     1      43.607   2.995  12.737  0.00  0.00    +0.000 N 
ATOM     13  O   UNL     1      42.509   4.942  12.964  0.00  0.00    +0.000 OA
ATOM     14  H   UNL     1      44.466   2.462  12.683  0.00  0.00    +0.000 HD
ATOM     15  H   UNL     1      42.724   2.503  12.718  0.00  0.00    +0.000 HD
ENDBRANCH   7  11
ENDBRANCH   3   4
ENDBRANCH   2   3
BRANCH   2  16
ATOM     16  O   UNL     1      49.936   6.882  15.138  0.00  0.00    +0.000 OA
BRANCH  16  17
ATOM     17  C   UNL     1      49.306   6.645  16.332  0.00  0.00    +0.000 A 
ATOM     18  C   UNL     1      48.849   7.623  17.218  0.00  0.00    +0.000 A 
ATOM     19  C   UNL     1      48.205   7.257  18.400  0.00  0.00    +0.000 A 
ATOM     20  C   UNL     1      47.979   5.915  18.692  0.00  0.00    +0.000 A 
ATOM     21  C   UNL     1      48.384   4.917  17.796  0.00  0.00    +0.000 A 
ATOM     22  C   UNL     1      49.063   5.297  16.626  0.00  0.00    +0.000 A 
BRANCH  21  23
ATOM     23  C   UNL     1      47.990   3.481  18.042  0.00  0.00    +0.000 C 
BRANCH  23  24
ATOM     24  N   UNL     1      46.665   3.159  17.528  0.00  0.00    +0.000 NA
ATOM     25  H   UNL     1      45.966   3.610  18.116  0.00  0.00    +0.000 HD
ATOM     26  H   UNL     1      46.510   2.157  17.615  0.00  0.00    +0.000 HD
ENDBRANCH  23  24
ENDBRANCH  21  23
ENDBRANCH  16  17
ENDBRANCH   2  16
TORSDOF 7
ENDMDL
MODEL 8
REMARK VINA RESULT:    -5.971      3.770      7.680
REMARK INTER + INTRA:          -8.908
REMARK INTER:                  -8.565
REMARK INTRA:                  -0.343
REMARK UNBOUND:                -0.668
REMARK  Name = 
REMARK  8 active torsions:
REMARK  status: ('A' for Active; 'I' for Inactive)
REMARK    1  A    between atoms: C_1  and  C_2
REMARK    2  A    between atoms: C_2  and  C_3
REMARK    3  A    between atoms: C_2  and  O_14
REMARK    4  A    between atoms: C_3  and  C_4
REMARK    5  A    between atoms: C_7  and  C_8
REMARK    6  A    between atoms: O_14  and  C_15
REMARK    7  A    between atoms: C_19  and  C_20
REMARK    8  A    between atoms: C_20  and  N_21
REMARK                            x       y       z     vdW  Elec       q    Type
REMARK                         _______ _______ _______ _____ _____    ______ ____
ROOT
ATOM      1  C   UNL     1      45.995   8.592  12.944  0.00  0.00    +0.000 C 
ATOM      2  C   UNL     1      46.124   7.178  12.369  0.00  0.00    +0.000 C 
ENDROOT
BRANCH   2   3
ATOM      3  C   UNL     1      47.548   6.653  12.651  0.00  0.00    +0.000 C 
BRANCH   3   4
ATOM      4  C   UNL     1      47.786   6.031  14.013  0.00  0.00    +0.000 A 
ATOM      5  C   UNL     1      47.217   4.795  14.346  0.00  0.00    +0.000 A 
ATOM      6  C   UNL     1      47.316   4.286  15.645  0.00  0.00    +0.000 A 
ATOM      7  C   UNL     1      47.980   5.003  16.644  0.00  0.00    +0.000 A 
ATOM      8  C   UNL     1      48.573   6.221  16.309  0.00  0.00    +0.000 A 
ATOM      9  F   UNL     1      49.222   6.956  17.226  0.00  0.00    +0.000 F 
ATOM     10  C   UNL     1      48.482   6.731  15.008  0.00  0.00    +0.000 A 
BRANCH   7  11
ATOM     11  C   UNL     1      47.985   4.446  18.025  0.00  0.00    +0.000 C 
ATOM     12  N   UNL     1      47.171   5.019  18.958  0.00  0.00    +0.000 N 
ATOM     13  O   UNL     1      48.688   3.488  18.322  0.00  0.00    +0.000 OA
ATOM     14  H   UNL     1      46.560   5.800  18.754  0.00  0.00    +0.000 HD
ATOM     15  H   UNL     1      47.159   4.616  19.885  0.00  0.00    +0.000 HD
ENDBRANCH   7  11
ENDBRANCH   3   4
ENDBRANCH   2   3
BRANCH   2  16
ATOM     16  O   UNL     1      45.148   6.355  13.031  0.00  0.00    +0.000 OA
BRANCH  16  17
ATOM     17  C   UNL     1      44.657   5.252  12.382  0.00  0.00    +0.000 A 
ATOM     18  C   UNL     1      43.792   4.304  12.932  0.00  0.00    +0.000 A 
ATOM     19  C   UNL     1      43.347   3.227  12.164  0.00  0.00    +0.000 A 
ATOM     20  C   UNL     1      43.731   3.106  10.832  0.00  0.00    +0.000 A 
ATOM     21  C   UNL     1      44.560   4.071  10.243  0.00  0.00    +0.000 A 
ATOM     22  C   UNL     1      45.030   5.130  11.037  0.00  0.00    +0.000 A 
BRANCH  21  23
ATOM     23  C   UNL     1      44.837   4.020   8.760  0.00  0.00    +0.000 C 
BRANCH  23  24
ATOM     24  N   UNL     1      45.791   5.032   8.326  0.00  0.00    +0.000 NA
ATOM     25  H   UNL     1      45.478   5.419   7.436  0.00  0.00    +0.000 HD
ATOM     26  H   UNL     1      46.688   4.586   8.145  0.00  0.00    +0.000 HD
ENDBRANCH  23  24
ENDBRANCH  21  23
ENDBRANCH  16  17
ENDBRANCH   2  16
TORSDOF 7
ENDMDL
MODEL 9
REMARK VINA RESULT:    -5.905      4.599      6.460
REMARK INTER + INTRA:          -8.816
REMARK INTER:                  -7.948
REMARK INTRA:                  -0.868
REMARK UNBOUND:                -0.668
REMARK  Name = 
REMARK  8 active torsions:
REMARK  status: ('A' for Active; 'I' for Inactive)
REMARK    1  A    between atoms: C_1  and  C_2
REMARK    2  A    between atoms: C_2  and  C_3
REMARK    3  A    between atoms: C_2  and  O_14
REMARK    4  A    between atoms: C_3  and  C_4
REMARK    5  A    between atoms: C_7  and  C_8
REMARK    6  A    between atoms: O_14  and  C_15
REMARK    7  A    between atoms: C_19  and  C_20
REMARK    8  A    between atoms: C_20  and  N_21
REMARK                            x       y       z     vdW  Elec       q    Type
REMARK                         _______ _______ _______ _____ _____    ______ ____
ROOT
ATOM      1  C   UNL     1      49.209   8.444  15.342  0.00  0.00    +0.000 C 
ATOM      2  C   UNL     1      48.548   7.069  15.203  0.00  0.00    +0.000 C 
ENDROOT
BRANCH   2   3
ATOM      3  C   UNL     1      48.415   6.729  13.703  0.00  0.00    +0.000 C 
BRANCH   3   4
ATOM      4  C   UNL     1      47.011   6.505  13.179  0.00  0.00    +0.000 A 
ATOM      5  C   UNL     1      46.399   5.250  13.279  0.00  0.00    +0.000 A 
ATOM      6  C   UNL     1      45.163   5.002  12.672  0.00  0.00    +0.000 A 
ATOM      7  C   UNL     1      44.513   6.003  11.943  0.00  0.00    +0.000 A 
ATOM      8  C   UNL     1      45.106   7.264  11.866  0.00  0.00    +0.000 A 
ATOM      9  F   UNL     1      44.531   8.263  11.178  0.00  0.00    +0.000 F 
ATOM     10  C   UNL     1      46.340   7.517  12.477  0.00  0.00    +0.000 A 
BRANCH   7  11
ATOM     11  C   UNL     1      43.238   5.657  11.255  0.00  0.00    +0.000 C 
ATOM     12  N   UNL     1      42.075   6.170  11.749  0.00  0.00    +0.000 N 
ATOM     13  O   UNL     1      43.226   4.943  10.260  0.00  0.00    +0.000 OA
ATOM     14  H   UNL     1      42.039   6.779  12.557  0.00  0.00    +0.000 HD
ATOM     15  H   UNL     1      41.218   5.955  11.259  0.00  0.00    +0.000 HD
ENDBRANCH   7  11
ENDBRANCH   3   4
ENDBRANCH   2   3
BRANCH   2  16
ATOM     16  O   UNL     1      49.402   6.115  15.858  0.00  0.00    +0.000 OA
BRANCH  16  17
ATOM     17  C   UNL     1      48.843   5.185  16.695  0.00  0.00    +0.000 A 
ATOM     18  C   UNL     1      48.074   4.090  16.296  0.00  0.00    +0.000 A 
ATOM     19  C   UNL     1      47.570   3.199  17.244  0.00  0.00    +0.000 A 
ATOM     20  C   UNL     1      47.858   3.372  18.595  0.00  0.00    +0.000 A 
ATOM     21  C   UNL     1      48.668   4.436  19.016  0.00  0.00    +0.000 A 
ATOM     22  C   UNL     1      49.139   5.346  18.055  0.00  0.00    +0.000 A 
BRANCH  21  23
ATOM     23  C   UNL     1      49.107   4.521  20.458  0.00  0.00    +0.000 C 
BRANCH  23  24
ATOM     24  N   UNL     1      47.990   4.498  21.394  0.00  0.00    +0.000 NA
ATOM     25  H   UNL     1      47.155   4.182  20.902  0.00  0.00    +0.000 HD
ATOM     26  H   UNL     1      47.797   5.449  21.702  0.00  0.00    +0.000 HD
ENDBRANCH  23  24
ENDBRANCH  21  23
ENDBRANCH  16  17
ENDBRANCH   2  16
TORSDOF 7
ENDMDL
