MODEL 1
REMARK VINA RESULT:    -8.242      0.000      0.000
REMARK INTER + INTRA:         -12.113
REMARK INTER:                 -11.133
REMARK INTRA:                  -0.981
REMARK UNBOUND:                -0.981
REMARK  Name = 
REMARK  8 active torsions:
REMARK  status: ('A' for Active; 'I' for Inactive)
REMARK    1  A    between atoms: C_1  and  C_2
REMARK    2  A    between atoms: C_6  and  C_7
REMARK    3  A    between atoms: N_9  and  C_10
REMARK    4  A    between atoms: C_10  and  C_11
REMARK    5  A    between atoms: C_14  and  C_15
REMARK    6  A    between atoms: C_15  and  C_16
REMARK    7  A    between atoms: C_15  and  N_17
REMARK    8  A    between atoms: C_18  and  C_20
REMARK                            x       y       z     vdW  Elec       q    Type
REMARK                         _______ _______ _______ _____ _____    ______ ____
ROOT
ATOM      1  C   UNL     1      45.759   4.395  12.602  0.00  0.00    +0.000 A 
ATOM      2  C   UNL     1      45.929   5.720  12.204  0.00  0.00    +0.000 A 
ATOM      3  C   UNL     1      46.782   6.553  12.925  0.00  0.00    +0.000 A 
ATOM      4  C   UNL     1      47.461   6.047  14.037  0.00  0.00    +0.000 A 
ATOM      5  N   UNL     1      47.332   4.752  14.419  0.00  0.00    +0.000 NA
ATOM      6  C   UNL     1      46.495   3.964  13.700  0.00  0.00    +0.000 A 
ENDROOT
BRANCH   4   7
ATOM      7  C   UNL     1      48.380   6.948  14.864  0.00  0.00    +0.000 C 
ATOM      8  C   UNL     1      49.018   8.012  13.963  0.00  0.00    +0.000 C 
BRANCH   7   9
ATOM      9  N   UNL     1      49.386   6.153  15.556  0.00  0.00    +0.000 N 
ATOM     10  C   UNL     1      49.288   5.756  16.864  0.00  0.00    +0.000 C 
ATOM     11  O   UNL     1      48.333   6.036  17.579  0.00  0.00    +0.000 OA
ATOM     12  H   UNL     1      50.119   5.762  14.972  0.00  0.00    +0.000 HD
BRANCH  10  13
ATOM     13  C   UNL     1      50.420   4.992  17.372  0.00  0.00    +0.000 A 
ATOM     14  C   UNL     1      51.525   5.575  17.969  0.00  0.00    +0.000 A 
ATOM     15  O   UNL     1      52.449   4.645  18.321  0.00  0.00    +0.000 OA
ATOM     16  C   UNL     1      51.961   3.429  17.953  0.00  0.00    +0.000 A 
ATOM     17  N   UNL     1      52.629   2.264  18.134  0.00  0.00    +0.000 NA
ATOM     18  C   UNL     1      51.992   1.229  17.692  0.00  0.00    +0.000 A 
ATOM     19  N   UNL     1      50.751   1.259  17.097  0.00  0.00    +0.000 N 
ATOM     20  C   UNL     1      50.040   2.421  16.911  0.00  0.00    +0.000 A 
ATOM     21  O   UNL     1      48.926   2.428  16.396  0.00  0.00    +0.000 OA
ATOM     22  C   UNL     1      50.719   3.600  17.373  0.00  0.00    +0.000 A 
ATOM     23  H   UNL     1      50.307   0.411  16.781  0.00  0.00    +0.000 HD
ENDBRANCH  10  13
ENDBRANCH   7   9
ENDBRANCH   4   7
BRANCH   1  24
ATOM     24  C   UNL     1      44.808   3.483  11.888  0.00  0.00    +0.000 C 
BRANCH  24  27
ATOM     25  C   UNL     1      45.094   3.140   9.478  0.00  0.00    +0.000 C 
ATOM     26  O   UNL     1      44.301   4.032   9.193  0.00  0.00    +0.000 OA
ATOM     27  N   UNL     1      45.411   2.793  10.776  0.00  0.00    +0.000 N 
ATOM     28  H   UNL     1      46.072   2.034  10.911  0.00  0.00    +0.000 HD
BRANCH  25  34
ATOM     29  C   UNL     1      47.401   2.914   5.040  0.00  0.00    +0.000 C 
ATOM     30  C   UNL     1      46.901   2.249   6.287  0.00  0.00    +0.000 A 
ATOM     31  C   UNL     1      47.075   0.880   6.505  0.00  0.00    +0.000 A 
ATOM     32  C   UNL     1      46.593   0.321   7.682  0.00  0.00    +0.000 A 
ATOM     33  N   UNL     1      45.958   1.019   8.649  0.00  0.00    +0.000 NA
ATOM     34  C   UNL     1      45.795   2.349   8.415  0.00  0.00    +0.000 A 
ATOM     35  C   UNL     1      46.244   2.997   7.266  0.00  0.00    +0.000 A 
ENDBRANCH  25  34
ENDBRANCH  24  27
ENDBRANCH   1  24
TORSDOF 6
ENDMDL
MODEL 2
REMARK VINA RESULT:    -8.141      1.658      2.044
REMARK INTER + INTRA:         -11.977
REMARK INTER:                 -10.959
REMARK INTRA:                  -1.018
REMARK UNBOUND:                -0.981
REMARK  Name = 
REMARK  8 active torsions:
REMARK  status: ('A' for Active; 'I' for Inactive)
REMARK    1  A    between atoms: C_1  and  C_2
REMARK    2  A    between atoms: C_6  and  C_7
REMARK    3  A    between atoms: N_9  and  C_10
REMARK    4  A    between atoms: C_10  and  C_11
REMARK    5  A    between atoms: C_14  and  C_15
REMARK    6  A    between atoms: C_15  and  C_16
REMARK    7  A    between atoms: C_15  and  N_17
REMARK    8  A    between atoms: C_18  and  C_20
REMARK                            x       y       z     vdW  Elec       q    Type
REMARK                         _______ _______ _______ _____ _____    ______ ____
ROOT
ATOM      1  C   UNL     1      44.591   5.421  11.391  0.00  0.00    +0.000 A 
ATOM      2  C   UNL     1      45.490   4.806  12.261  0.00  0.00    +0.000 A 
ATOM      3  C   UNL     1      46.361   5.585  13.018  0.00  0.00    +0.000 A 
ATOM      4  C   UNL     1      46.319   6.978  12.901  0.00  0.00    +0.000 A 
ATOM      5  N   UNL     1      45.429   7.595  12.084  0.00  0.00    +0.000 NA
ATOM      6  C   UNL     1      44.594   6.811  11.358  0.00  0.00    +0.000 A 
ENDROOT
BRANCH   4   7
ATOM      7  C   UNL     1      47.284   7.856  13.698  0.00  0.00    +0.000 C 
ATOM      8  C   UNL     1      48.112   8.724  12.743  0.00  0.00    +0.000 C 
BRANCH   7   9
ATOM      9  N   UNL     1      48.132   7.037  14.554  0.00  0.00    +0.000 N 
ATOM     10  C   UNL     1      48.679   7.468  15.736  0.00  0.00    +0.000 C 
ATOM     11  O   UNL     1      48.501   8.594  16.184  0.00  0.00    +0.000 OA
ATOM     12  H   UNL     1      48.184   6.051  14.313  0.00  0.00    +0.000 HD
BRANCH  10  13
ATOM     13  C   UNL     1      49.522   6.499  16.423  0.00  0.00    +0.000 A 
ATOM     14  C   UNL     1      50.817   6.770  16.829  0.00  0.00    +0.000 A 
ATOM     15  O   UNL     1      51.393   5.689  17.414  0.00  0.00    +0.000 OA
ATOM     16  C   UNL     1      50.477   4.683  17.396  0.00  0.00    +0.000 A 
ATOM     17  N   UNL     1      50.714   3.440  17.882  0.00  0.00    +0.000 NA
ATOM     18  C   UNL     1      49.713   2.633  17.744  0.00  0.00    +0.000 A 
ATOM     19  N   UNL     1      48.505   2.960  17.174  0.00  0.00    +0.000 N 
ATOM     20  C   UNL     1      48.226   4.215  16.684  0.00  0.00    +0.000 A 
ATOM     21  O   UNL     1      47.135   4.496  16.196  0.00  0.00    +0.000 OA
ATOM     22  C   UNL     1      49.317   5.141  16.802  0.00  0.00    +0.000 A 
ATOM     23  H   UNL     1      47.763   2.281  17.105  0.00  0.00    +0.000 HD
ENDBRANCH  10  13
ENDBRANCH   7   9
ENDBRANCH   4   7
BRANCH   1  24
ATOM     24  C   UNL     1      43.678   4.617  10.517  0.00  0.00    +0.000 C 
BRANCH  24  27
ATOM     25  C   UNL     1      45.242   3.990   8.738  0.00  0.00    +0.000 C 
ATOM     26  O   UNL     1      45.480   5.158   8.449  0.00  0.00    +0.000 OA
ATOM     27  N   UNL     1      44.369   3.620   9.741  0.00  0.00    +0.000 N 
ATOM     28  H   UNL     1      44.230   2.626   9.900  0.00  0.00    +0.000 HD
BRANCH  25  34
ATOM     29  C   UNL     1      47.714   2.233   4.754  0.00  0.00    +0.000 C 
ATOM     30  C   UNL     1      47.086   2.021   6.098  0.00  0.00    +0.000 A 
ATOM     31  C   UNL     1      47.098   0.771   6.721  0.00  0.00    +0.000 A 
ATOM     32  C   UNL     1      46.503   0.637   7.969  0.00  0.00    +0.000 A 
ATOM     33  N   UNL     1      45.904   1.648   8.637  0.00  0.00    +0.000 NA
ATOM     34  C   UNL     1      45.900   2.855   8.011  0.00  0.00    +0.000 A 
ATOM     35  C   UNL     1      46.471   3.085   6.761  0.00  0.00    +0.000 A 
ENDBRANCH  25  34
ENDBRANCH  24  27
ENDBRANCH   1  24
TORSDOF 6
ENDMDL
MODEL 3
REMARK VINA RESULT:    -7.978      5.256      7.767
REMARK INTER + INTRA:         -11.757
REMARK INTER:                 -10.735
REMARK INTRA:                  -1.023
REMARK UNBOUND:                -0.981
REMARK  Name = 
REMARK  8 active torsions:
REMARK  status: ('A' for Active; 'I' for Inactive)
REMARK    1  A    between atoms: C_1  and  C_2
REMARK    2  A    between atoms: C_6  and  C_7
REMARK    3  A    between atoms: N_9  and  C_10
REMARK    4  A    between atoms: C_10  and  C_11
REMARK    5  A    between atoms: C_14  and  C_15
REMARK    6  A    between atoms: C_15  and  C_16
REMARK    7  A    between atoms: C_15  and  N_17
REMARK    8  A    between atoms: C_18  and  C_20
REMARK                            x       y       z     vdW  Elec       q    Type
REMARK                         _______ _______ _______ _____ _____    ______ ____
ROOT
ATOM      1  C   UNL     1      44.896   9.247  11.845  0.00  0.00    +0.000 A 
ATOM      2  C   UNL     1      45.909   9.059  12.783  0.00  0.00    +0.000 A 
ATOM      3  C   UNL     1      46.277   7.766  13.151  0.00  0.00    +0.000 A 
ATOM      4  C   UNL     1      45.627   6.673  12.570  0.00  0.00    +0.000 A 
ATOM      5  N   UNL     1      44.661   6.838  11.632  0.00  0.00    +0.000 NA
ATOM      6  C   UNL     1      44.323   8.107  11.294  0.00  0.00    +0.000 A 
ENDROOT
BRANCH   4   7
ATOM      7  C   UNL     1      45.990   5.244  12.978  0.00  0.00    +0.000 C 
ATOM      8  C   UNL     1      44.750   4.347  12.898  0.00  0.00    +0.000 C 
BRANCH   7   9
ATOM      9  N   UNL     1      46.583   5.229  14.309  0.00  0.00    +0.000 N 
ATOM     10  C   UNL     1      47.224   4.146  14.853  0.00  0.00    +0.000 C 
ATOM     11  O   UNL     1      47.360   3.082  14.262  0.00  0.00    +0.000 OA
ATOM     12  H   UNL     1      46.637   6.127  14.780  0.00  0.00    +0.000 HD
BRANCH  10  13
ATOM     13  C   UNL     1      47.718   4.331  16.211  0.00  0.00    +0.000 A 
ATOM     14  C   UNL     1      47.299   3.563  17.284  0.00  0.00    +0.000 A 
ATOM     15  O   UNL     1      47.886   3.961  18.442  0.00  0.00    +0.000 OA
ATOM     16  C   UNL     1      48.702   5.008  18.142  0.00  0.00    +0.000 A 
ATOM     17  N   UNL     1      49.438   5.675  19.064  0.00  0.00    +0.000 NA
ATOM     18  C   UNL     1      50.127   6.650  18.566  0.00  0.00    +0.000 A 
ATOM     19  N   UNL     1      50.148   7.007  17.237  0.00  0.00    +0.000 N 
ATOM     20  C   UNL     1      49.424   6.343  16.274  0.00  0.00    +0.000 A 
ATOM     21  O   UNL     1      49.469   6.662  15.090  0.00  0.00    +0.000 OA
ATOM     22  C   UNL     1      48.630   5.261  16.786  0.00  0.00    +0.000 A 
ATOM     23  H   UNL     1      50.715   7.776  16.915  0.00  0.00    +0.000 HD
ENDBRANCH  10  13
ENDBRANCH   7   9
ENDBRANCH   4   7
BRANCH   1  24
ATOM     24  C   UNL     1      44.431  10.620  11.465  0.00  0.00    +0.000 C 
BRANCH  24  27
ATOM     25  C   UNL     1      42.000  10.915  11.387  0.00  0.00    +0.000 C 
ATOM     26  O   UNL     1      41.928  10.540  10.221  0.00  0.00    +0.000 OA
ATOM     27  N   UNL     1      43.187  10.991  12.088  0.00  0.00    +0.000 N 
ATOM     28  H   UNL     1      43.145  11.323  13.047  0.00  0.00    +0.000 HD
BRANCH  25  34
ATOM     29  C   UNL     1      37.038  10.785  12.041  0.00  0.00    +0.000 C 
ATOM     30  C   UNL     1      38.398  11.256  12.461  0.00  0.00    +0.000 A 
ATOM     31  C   UNL     1      38.575  12.077  13.576  0.00  0.00    +0.000 A 
ATOM     32  C   UNL     1      39.861  12.477  13.918  0.00  0.00    +0.000 A 
ATOM     33  N   UNL     1      40.972  12.121  13.238  0.00  0.00    +0.000 NA
ATOM     34  C   UNL     1      40.777  11.324  12.153  0.00  0.00    +0.000 A 
ATOM     35  C   UNL     1      39.527  10.873  11.734  0.00  0.00    +0.000 A 
ENDBRANCH  25  34
ENDBRANCH  24  27
ENDBRANCH   1  24
TORSDOF 6
ENDMDL
MODEL 4
REMARK VINA RESULT:    -7.788      2.194      2.940
REMARK INTER + INTRA:         -11.501
REMARK INTER:                 -10.779
REMARK INTRA:                  -0.722
REMARK UNBOUND:                -0.981
REMARK  Name = 
REMARK  8 active torsions:
REMARK  status: ('A' for Active; 'I' for Inactive)
REMARK    1  A    between atoms: C_1  and  C_2
REMARK    2  A    between atoms: C_6  and  C_7
REMARK    3  A    between atoms: N_9  and  C_10
REMARK    4  A    between atoms: C_10  and  C_11
REMARK    5  A    between atoms: C_14  and  C_15
REMARK    6  A    between atoms: C_15  and  C_16
REMARK    7  A    between atoms: C_15  and  N_17
REMARK    8  A    between atoms: C_18  and  C_20
REMARK                            x       y       z     vdW  Elec       q    Type
REMARK                         _______ _______ _______ _____ _____    ______ ____
ROOT
ATOM      1  C   UNL     1      45.348   4.934  11.675  0.00  0.00    +0.000 A 
ATOM      2  C   UNL     1      46.019   6.047  11.168  0.00  0.00    +0.000 A 
ATOM      3  C   UNL     1      46.886   6.763  11.990  0.00  0.00    +0.000 A 
ATOM      4  C   UNL     1      47.078   6.354  13.313  0.00  0.00    +0.000 A 
ATOM      5  N   UNL     1      46.459   5.255  13.813  0.00  0.00    +0.000 NA
ATOM      6  C   UNL     1      45.619   4.577  12.991  0.00  0.00    +0.000 A 
ENDROOT
BRANCH   4   7
ATOM      7  C   UNL     1      48.002   7.139  14.245  0.00  0.00    +0.000 C 
ATOM      8  C   UNL     1      49.311   7.475  13.521  0.00  0.00    +0.000 C 
BRANCH   7   9
ATOM      9  N   UNL     1      48.240   6.394  15.474  0.00  0.00    +0.000 N 
ATOM     10  C   UNL     1      48.767   6.940  16.616  0.00  0.00    +0.000 C 
ATOM     11  O   UNL     1      49.089   8.119  16.707  0.00  0.00    +0.000 OA
ATOM     12  H   UNL     1      47.850   5.456  15.506  0.00  0.00    +0.000 HD
BRANCH  10  13
ATOM     13  C   UNL     1      48.954   6.013  17.723  0.00  0.00    +0.000 A 
ATOM     14  C   UNL     1      49.688   4.844  17.622  0.00  0.00    +0.000 A 
ATOM     15  O   UNL     1      49.677   4.145  18.786  0.00  0.00    +0.000 OA
ATOM     16  C   UNL     1      48.924   4.851  19.674  0.00  0.00    +0.000 A 
ATOM     17  N   UNL     1      48.677   4.442  20.942  0.00  0.00    +0.000 NA
ATOM     18  C   UNL     1      47.921   5.253  21.608  0.00  0.00    +0.000 A 
ATOM     19  N   UNL     1      47.403   6.431  21.120  0.00  0.00    +0.000 N 
ATOM     20  C   UNL     1      47.645   6.882  19.844  0.00  0.00    +0.000 A 
ATOM     21  O   UNL     1      47.191   7.945  19.431  0.00  0.00    +0.000 OA
ATOM     22  C   UNL     1      48.469   6.002  19.062  0.00  0.00    +0.000 A 
ATOM     23  H   UNL     1      46.825   7.022  21.698  0.00  0.00    +0.000 HD
ENDBRANCH  10  13
ENDBRANCH   7   9
ENDBRANCH   4   7
BRANCH   1  24
ATOM     24  C   UNL     1      44.364   4.172  10.842  0.00  0.00    +0.000 C 
BRANCH  24  27
ATOM     25  C   UNL     1      45.376   3.588   8.688  0.00  0.00    +0.000 C 
ATOM     26  O   UNL     1      45.222   4.718   8.237  0.00  0.00    +0.000 OA
ATOM     27  N   UNL     1      44.986   3.219   9.960  0.00  0.00    +0.000 N 
ATOM     28  H   UNL     1      45.148   2.255  10.239  0.00  0.00    +0.000 HD
BRANCH  25  34
ATOM     29  C   UNL     1      47.587   2.052   4.466  0.00  0.00    +0.000 C 
ATOM     30  C   UNL     1      47.077   1.774   5.848  0.00  0.00    +0.000 A 
ATOM     31  C   UNL     1      47.186   0.508   6.427  0.00  0.00    +0.000 A 
ATOM     32  C   UNL     1      46.698   0.313   7.713  0.00  0.00    +0.000 A 
ATOM     33  N   UNL     1      46.117   1.278   8.458  0.00  0.00    +0.000 NA
ATOM     34  C   UNL     1      46.017   2.503   7.874  0.00  0.00    +0.000 A 
ATOM     35  C   UNL     1      46.477   2.793   6.591  0.00  0.00    +0.000 A 
ENDBRANCH  25  34
ENDBRANCH  24  27
ENDBRANCH   1  24
TORSDOF 6
ENDMDL
MODEL 5
REMARK VINA RESULT:    -7.767      3.644     10.392
REMARK INTER + INTRA:         -11.472
REMARK INTER:                 -10.474
REMARK INTRA:                  -0.998
REMARK UNBOUND:                -0.981
REMARK  Name = 
REMARK  8 active torsions:
REMARK  status: ('A' for Active; 'I' for Inactive)
REMARK    1  A    between atoms: C_1  and  C_2
REMARK    2  A    between atoms: C_6  and  C_7
REMARK    3  A    between atoms: N_9  and  C_10
REMARK    4  A    between atoms: C_10  and  C_11
REMARK    5  A    between atoms: C_14  and  C_15
REMARK    6  A    between atoms: C_15  and  C_16
REMARK    7  A    between atoms: C_15  and  N_17
REMARK    8  A    between atoms: C_18  and  C_20
REMARK                            x       y       z     vdW  Elec       q    Type
REMARK                         _______ _______ _______ _____ _____    ______ ____
ROOT
ATOM      1  C   UNL     1      47.454   7.471  13.691  0.00  0.00    +0.000 A 
ATOM      2  C   UNL     1      47.582   6.085  13.611  0.00  0.00    +0.000 A 
ATOM      3  C   UNL     1      46.573   5.333  13.014  0.00  0.00    +0.000 A 
ATOM      4  C   UNL     1      45.446   5.978  12.496  0.00  0.00    +0.000 A 
ATOM      5  N   UNL     1      45.321   7.328  12.536  0.00  0.00    +0.000 NA
ATOM      6  C   UNL     1      46.317   8.036  13.125  0.00  0.00    +0.000 A 
ENDROOT
BRANCH   4   7
ATOM      7  C   UNL     1      44.311   5.174  11.861  0.00  0.00    +0.000 C 
ATOM      8  C   UNL     1      43.409   4.589  12.955  0.00  0.00    +0.000 C 
BRANCH   7   9
ATOM      9  N   UNL     1      44.846   4.135  10.991  0.00  0.00    +0.000 N 
ATOM     10  C   UNL     1      44.445   3.935   9.695  0.00  0.00    +0.000 C 
ATOM     11  O   UNL     1      43.591   4.620   9.145  0.00  0.00    +0.000 OA
ATOM     12  H   UNL     1      45.662   3.642  11.341  0.00  0.00    +0.000 HD
BRANCH  10  13
ATOM     13  C   UNL     1      45.085   2.820   9.009  0.00  0.00    +0.000 A 
ATOM     14  C   UNL     1      44.748   1.496   9.229  0.00  0.00    +0.000 A 
ATOM     15  O   UNL     1      45.516   0.656   8.490  0.00  0.00    +0.000 OA
ATOM     16  C   UNL     1      46.380   1.425   7.771  0.00  0.00    +0.000 A 
ATOM     17  N   UNL     1      47.315   0.920   6.931  0.00  0.00    +0.000 NA
ATOM     18  C   UNL     1      48.043   1.827   6.365  0.00  0.00    +0.000 A 
ATOM     19  N   UNL     1      47.912   3.182   6.561  0.00  0.00    +0.000 N 
ATOM     20  C   UNL     1      46.966   3.729   7.395  0.00  0.00    +0.000 A 
ATOM     21  O   UNL     1      46.849   4.941   7.543  0.00  0.00    +0.000 OA
ATOM     22  C   UNL     1      46.143   2.755   8.058  0.00  0.00    +0.000 A 
ATOM     23  H   UNL     1      48.511   3.836   6.080  0.00  0.00    +0.000 HD
ENDBRANCH  10  13
ENDBRANCH   7   9
ENDBRANCH   4   7
BRANCH   1  24
ATOM     24  C   UNL     1      48.489   8.310  14.377  0.00  0.00    +0.000 C 
BRANCH  24  27
ATOM     25  C   UNL     1      48.573   8.249  16.826  0.00  0.00    +0.000 C 
ATOM     26  O   UNL     1      49.397   7.339  16.837  0.00  0.00    +0.000 OA
ATOM     27  N   UNL     1      48.063   8.795  15.664  0.00  0.00    +0.000 N 
ATOM     28  H   UNL     1      47.377   9.539  15.758  0.00  0.00    +0.000 HD
BRANCH  25  34
ATOM     29  C   UNL     1      47.349   7.797  21.660  0.00  0.00    +0.000 C 
ATOM     30  C   UNL     1      47.469   8.624  20.415  0.00  0.00    +0.000 A 
ATOM     31  C   UNL     1      47.111   9.974  20.397  0.00  0.00    +0.000 A 
ATOM     32  C   UNL     1      47.248  10.690  19.215  0.00  0.00    +0.000 A 
ATOM     33  N   UNL     1      47.713  10.165  18.060  0.00  0.00    +0.000 NA
ATOM     34  C   UNL     1      48.052   8.848  18.098  0.00  0.00    +0.000 A 
ATOM     35  C   UNL     1      47.949   8.051  19.236  0.00  0.00    +0.000 A 
ENDBRANCH  25  34
ENDBRANCH  24  27
ENDBRANCH   1  24
TORSDOF 6
ENDMDL
MODEL 6
REMARK VINA RESULT:    -7.742      2.745      4.710
REMARK INTER + INTRA:         -11.439
REMARK INTER:                 -10.292
REMARK INTRA:                  -1.147
REMARK UNBOUND:                -0.981
REMARK  Name = 
REMARK  8 active torsions:
REMARK  status: ('A' for Active; 'I' for Inactive)
REMARK    1  A    between atoms: C_1  and  C_2
REMARK    2  A    between atoms: C_6  and  C_7
REMARK    3  A    between atoms: N_9  and  C_10
REMARK    4  A    between atoms: C_10  and  C_11
REMARK    5  A    between atoms: C_14  and  C_15
REMARK    6  A    between atoms: C_15  and  C_16
REMARK    7  A    between atoms: C_15  and  N_17
REMARK    8  A    between atoms: C_18  and  C_20
REMARK                            x       y       z     vdW  Elec       q    Type
REMARK                         _______ _______ _______ _____ _____    ______ ____
ROOT
ATOM      1  C   UNL     1      45.312   4.668  11.866  0.00  0.00    +0.000 A 
ATOM      2  C   UNL     1      45.844   5.885  12.291  0.00  0.00    +0.000 A 
ATOM      3  C   UNL     1      46.620   5.933  13.446  0.00  0.00    +0.000 A 
ATOM      4  C   UNL     1      46.861   4.758  14.164  0.00  0.00    +0.000 A 
ATOM      5  N   UNL     1      46.380   3.560  13.747  0.00  0.00    +0.000 NA
ATOM      6  C   UNL     1      45.626   3.543  12.619  0.00  0.00    +0.000 A 
ENDROOT
BRANCH   4   7
ATOM      7  C   UNL     1      47.685   4.787  15.452  0.00  0.00    +0.000 C 
ATOM      8  C   UNL     1      46.973   3.982  16.546  0.00  0.00    +0.000 C 
BRANCH   7   9
ATOM      9  N   UNL     1      47.933   6.161  15.868  0.00  0.00    +0.000 N 
ATOM     10  C   UNL     1      49.162   6.645  16.234  0.00  0.00    +0.000 C 
ATOM     11  O   UNL     1      50.176   5.957  16.243  0.00  0.00    +0.000 OA
ATOM     12  H   UNL     1      47.164   6.811  15.730  0.00  0.00    +0.000 HD
BRANCH  10  13
ATOM     13  C   UNL     1      49.186   8.042  16.647  0.00  0.00    +0.000 A 
ATOM     14  C   UNL     1      49.327   8.444  17.964  0.00  0.00    +0.000 A 
ATOM     15  O   UNL     1      49.283   9.796  18.080  0.00  0.00    +0.000 OA
ATOM     16  C   UNL     1      49.107  10.304  16.829  0.00  0.00    +0.000 A 
ATOM     17  N   UNL     1      48.998  11.628  16.564  0.00  0.00    +0.000 NA
ATOM     18  C   UNL     1      48.814  11.890  15.310  0.00  0.00    +0.000 A 
ATOM     19  N   UNL     1      48.738  10.949  14.309  0.00  0.00    +0.000 N 
ATOM     20  C   UNL     1      48.858   9.599  14.541  0.00  0.00    +0.000 A 
ATOM     21  O   UNL     1      48.807   8.775  13.634  0.00  0.00    +0.000 OA
ATOM     22  C   UNL     1      49.048   9.262  15.925  0.00  0.00    +0.000 A 
ATOM     23  H   UNL     1      48.600  11.225  13.349  0.00  0.00    +0.000 HD
ENDBRANCH  10  13
ENDBRANCH   7   9
ENDBRANCH   4   7
BRANCH   1  24
ATOM     24  C   UNL     1      44.426   4.583  10.661  0.00  0.00    +0.000 C 
BRANCH  24  27
ATOM     25  C   UNL     1      45.780   4.218   8.652  0.00  0.00    +0.000 C 
ATOM     26  O   UNL     1      46.121   5.395   8.591  0.00  0.00    +0.000 OA
ATOM     27  N   UNL     1      44.946   3.720   9.633  0.00  0.00    +0.000 N 
ATOM     28  H   UNL     1      44.713   2.731   9.594  0.00  0.00    +0.000 HD
BRANCH  25  34
ATOM     29  C   UNL     1      46.919  -0.502   7.429  0.00  0.00    +0.000 C 
ATOM     30  C   UNL     1      46.800   0.948   7.067  0.00  0.00    +0.000 A 
ATOM     31  C   UNL     1      47.118   1.411   5.788  0.00  0.00    +0.000 A 
ATOM     32  C   UNL     1      46.984   2.765   5.511  0.00  0.00    +0.000 A 
ATOM     33  N   UNL     1      46.558   3.684   6.406  0.00  0.00    +0.000 NA
ATOM     34  C   UNL     1      46.257   3.213   7.646  0.00  0.00    +0.000 A 
ATOM     35  C   UNL     1      46.361   1.874   8.016  0.00  0.00    +0.000 A 
ENDBRANCH  25  34
ENDBRANCH  24  27
ENDBRANCH   1  24
TORSDOF 6
ENDMDL
MODEL 7
REMARK VINA RESULT:    -7.692      2.439      3.234
REMARK INTER + INTRA:         -11.371
REMARK INTER:                 -10.375
REMARK INTRA:                  -0.996
REMARK UNBOUND:                -0.981
REMARK  Name = 
REMARK  8 active torsions:
REMARK  status: ('A' for Active; 'I' for Inactive)
REMARK    1  A    between atoms: C_1  and  C_2
REMARK    2  A    between atoms: C_6  and  C_7
REMARK    3  A    between atoms: N_9  and  C_10
REMARK    4  A    between atoms: C_10  and  C_11
REMARK    5  A    between atoms: C_14  and  C_15
REMARK    6  A    between atoms: C_15  and  C_16
REMARK    7  A    between atoms: C_15  and  N_17
REMARK    8  A    between atoms: C_18  and  C_20
REMARK                            x       y       z     vdW  Elec       q    Type
REMARK                         _______ _______ _______ _____ _____    ______ ____
ROOT
ATOM      1  C   UNL     1      45.412   6.834  11.782  0.00  0.00    +0.000 A 
ATOM      2  C   UNL     1      45.127   8.130  12.210  0.00  0.00    +0.000 A 
ATOM      3  C   UNL     1      46.001   8.777  13.080  0.00  0.00    +0.000 A 
ATOM      4  C   UNL     1      47.158   8.119  13.511  0.00  0.00    +0.000 A 
ATOM      5  N   UNL     1      47.467   6.871  13.079  0.00  0.00    +0.000 NA
ATOM      6  C   UNL     1      46.597   6.264  12.233  0.00  0.00    +0.000 A 
ENDROOT
BRANCH   4   7
ATOM      7  C   UNL     1      48.119   8.795  14.489  0.00  0.00    +0.000 C 
ATOM      8  C   UNL     1      49.542   8.780  13.918  0.00  0.00    +0.000 C 
BRANCH   7   9
ATOM      9  N   UNL     1      48.055   8.151  15.795  0.00  0.00    +0.000 N 
ATOM     10  C   UNL     1      48.361   8.775  16.977  0.00  0.00    +0.000 C 
ATOM     11  O   UNL     1      48.719   9.945  17.043  0.00  0.00    +0.000 OA
ATOM     12  H   UNL     1      47.617   7.235  15.815  0.00  0.00    +0.000 HD
BRANCH  10  13
ATOM     13  C   UNL     1      48.261   7.941  18.167  0.00  0.00    +0.000 A 
ATOM     14  C   UNL     1      47.949   8.438  19.420  0.00  0.00    +0.000 A 
ATOM     15  O   UNL     1      47.954   7.458  20.360  0.00  0.00    +0.000 OA
ATOM     16  C   UNL     1      48.277   6.295  19.731  0.00  0.00    +0.000 A 
ATOM     17  N   UNL     1      48.395   5.104  20.367  0.00  0.00    +0.000 NA
ATOM     18  C   UNL     1      48.731   4.132  19.582  0.00  0.00    +0.000 A 
ATOM     19  N   UNL     1      48.949   4.247  18.228  0.00  0.00    +0.000 N 
ATOM     20  C   UNL     1      48.825   5.437  17.550  0.00  0.00    +0.000 A 
ATOM     21  O   UNL     1      49.004   5.519  16.339  0.00  0.00    +0.000 OA
ATOM     22  C   UNL     1      48.468   6.549  18.387  0.00  0.00    +0.000 A 
ATOM     23  H   UNL     1      49.203   3.444  17.674  0.00  0.00    +0.000 HD
ENDBRANCH  10  13
ENDBRANCH   7   9
ENDBRANCH   4   7
BRANCH   1  24
ATOM     24  C   UNL     1      44.469   6.082  10.892  0.00  0.00    +0.000 C 
BRANCH  24  27
ATOM     25  C   UNL     1      44.803   4.000   9.643  0.00  0.00    +0.000 C 
ATOM     26  O   UNL     1      43.937   3.407  10.277  0.00  0.00    +0.000 OA
ATOM     27  N   UNL     1      45.140   5.320   9.871  0.00  0.00    +0.000 N 
ATOM     28  H   UNL     1      45.878   5.721   9.300  0.00  0.00    +0.000 HD
BRANCH  25  34
ATOM     29  C   UNL     1      46.753  -0.147   7.625  0.00  0.00    +0.000 C 
ATOM     30  C   UNL     1      46.503   1.331   7.586  0.00  0.00    +0.000 A 
ATOM     31  C   UNL     1      46.965   2.123   6.533  0.00  0.00    +0.000 A 
ATOM     32  C   UNL     1      46.699   3.486   6.551  0.00  0.00    +0.000 A 
ATOM     33  N   UNL     1      46.010   4.112   7.530  0.00  0.00    +0.000 NA
ATOM     34  C   UNL     1      45.572   3.323   8.548  0.00  0.00    +0.000 A 
ATOM     35  C   UNL     1      45.791   1.949   8.616  0.00  0.00    +0.000 A 
ENDBRANCH  25  34
ENDBRANCH  24  27
ENDBRANCH   1  24
TORSDOF 6
ENDMDL
MODEL 8
REMARK VINA RESULT:    -7.625      1.742      2.976
REMARK INTER + INTRA:         -11.281
REMARK INTER:                 -10.288
REMARK INTRA:                  -0.992
REMARK UNBOUND:                -0.981
REMARK  Name = 
REMARK  8 active torsions:
REMARK  status: ('A' for Active; 'I' for Inactive)
REMARK    1  A    between atoms: C_1  and  C_2
REMARK    2  A    between atoms: C_6  and  C_7
REMARK    3  A    between atoms: N_9  and  C_10
REMARK    4  A    between atoms: C_10  and  C_11
REMARK    5  A    between atoms: C_14  and  C_15
REMARK    6  A    between atoms: C_15  and  C_16
REMARK    7  A    between atoms: C_15  and  N_17
REMARK    8  A    between atoms: C_18  and  C_20
REMARK                            x       y       z     vdW  Elec       q    Type
REMARK                         _______ _______ _______ _____ _____    ______ ____
ROOT
ATOM      1  C   UNL     1      47.079   7.605  13.209  0.00  0.00    +0.000 A 
ATOM      2  C   UNL     1      47.406   8.729  13.966  0.00  0.00    +0.000 A 
ATOM      3  C   UNL     1      48.277   8.603  15.046  0.00  0.00    +0.000 A 
ATOM      4  C   UNL     1      48.817   7.351  15.354  0.00  0.00    +0.000 A 
ATOM      5  N   UNL     1      48.535   6.254  14.608  0.00  0.00    +0.000 NA
ATOM      6  C   UNL     1      47.683   6.405  13.563  0.00  0.00    +0.000 A 
ENDROOT
BRANCH   4   7
ATOM      7  C   UNL     1      49.753   7.179  16.551  0.00  0.00    +0.000 C 
ATOM      8  C   UNL     1      50.929   8.157  16.440  0.00  0.00    +0.000 C 
BRANCH   7   9
ATOM      9  N   UNL     1      50.208   5.798  16.650  0.00  0.00    +0.000 N 
ATOM     10  C   UNL     1      49.605   4.843  17.427  0.00  0.00    +0.000 C 
ATOM     11  O   UNL     1      48.618   5.067  18.117  0.00  0.00    +0.000 OA
ATOM     12  H   UNL     1      50.922   5.518  15.983  0.00  0.00    +0.000 HD
BRANCH  10  13
ATOM     13  C   UNL     1      50.238   3.531  17.407  0.00  0.00    +0.000 A 
ATOM     14  C   UNL     1      49.587   2.378  17.002  0.00  0.00    +0.000 A 
ATOM     15  O   UNL     1      50.389   1.288  17.110  0.00  0.00    +0.000 OA
ATOM     16  C   UNL     1      51.588   1.714  17.596  0.00  0.00    +0.000 A 
ATOM     17  N   UNL     1      52.632   0.889  17.851  0.00  0.00    +0.000 NA
ATOM     18  C   UNL     1      53.667   1.500  18.328  0.00  0.00    +0.000 A 
ATOM     19  N   UNL     1      53.749   2.854  18.562  0.00  0.00    +0.000 N 
ATOM     20  C   UNL     1      52.713   3.721  18.302  0.00  0.00    +0.000 A 
ATOM     21  O   UNL     1      52.809   4.928  18.499  0.00  0.00    +0.000 OA
ATOM     22  C   UNL     1      51.535   3.082  17.785  0.00  0.00    +0.000 A 
ATOM     23  H   UNL     1      54.592   3.266  18.930  0.00  0.00    +0.000 HD
ENDBRANCH  10  13
ENDBRANCH   7   9
ENDBRANCH   4   7
BRANCH   1  24
ATOM     24  C   UNL     1      46.102   7.687  12.076  0.00  0.00    +0.000 C 
BRANCH  24  27
ATOM     25  C   UNL     1      44.867   5.866  10.997  0.00  0.00    +0.000 C 
ATOM     26  O   UNL     1      43.785   6.270  11.410  0.00  0.00    +0.000 OA
ATOM     27  N   UNL     1      46.066   6.494  11.271  0.00  0.00    +0.000 N 
ATOM     28  H   UNL     1      46.911   6.077  10.891  0.00  0.00    +0.000 HD
BRANCH  25  34
ATOM     29  C   UNL     1      46.500   3.577   6.854  0.00  0.00    +0.000 C 
ATOM     30  C   UNL     1      45.755   3.547   8.155  0.00  0.00    +0.000 A 
ATOM     31  C   UNL     1      45.140   2.382   8.619  0.00  0.00    +0.000 A 
ATOM     32  C   UNL     1      44.467   2.415   9.833  0.00  0.00    +0.000 A 
ATOM     33  N   UNL     1      44.365   3.513  10.614  0.00  0.00    +0.000 NA
ATOM     34  C   UNL     1      44.968   4.638  10.142  0.00  0.00    +0.000 A 
ATOM     35  C   UNL     1      45.664   4.700   8.937  0.00  0.00    +0.000 A 
ENDBRANCH  25  34
ENDBRANCH  24  27
ENDBRANCH   1  24
TORSDOF 6
ENDMDL
MODEL 9
REMARK VINA RESULT:    -7.477      2.234      9.876
REMARK INTER + INTRA:         -11.080
REMARK INTER:                 -10.108
REMARK INTRA:                  -0.972
REMARK UNBOUND:                -0.981
REMARK  Name = 
REMARK  8 active torsions:
REMARK  status: ('A' for Active; 'I' for Inactive)
REMARK    1  A    between atoms: C_1  and  C_2
REMARK    2  A    between atoms: C_6  and  C_7
REMARK    3  A    between atoms: N_9  and  C_10
REMARK    4  A    between atoms: C_10  and  C_11
REMARK    5  A    between atoms: C_14  and  C_15
REMARK    6  A    between atoms: C_15  and  C_16
REMARK    7  A    between atoms: C_15  and  N_17
REMARK    8  A    between atoms: C_18  and  C_20
REMARK                            x       y       z     vdW  Elec       q    Type
REMARK                         _______ _______ _______ _____ _____    ______ ____
ROOT
ATOM      1  C   UNL     1      47.647   7.217  13.893  0.00  0.00    +0.000 A 
ATOM      2  C   UNL     1      47.578   5.824  13.904  0.00  0.00    +0.000 A 
ATOM      3  C   UNL     1      46.540   5.179  13.236  0.00  0.00    +0.000 A 
ATOM      4  C   UNL     1      45.580   5.938  12.558  0.00  0.00    +0.000 A 
ATOM      5  N   UNL     1      45.650   7.292  12.510  0.00  0.00    +0.000 NA
ATOM      6  C   UNL     1      46.671   7.893  13.170  0.00  0.00    +0.000 A 
ENDROOT
BRANCH   4   7
ATOM      7  C   UNL     1      44.413   5.257  11.841  0.00  0.00    +0.000 C 
ATOM      8  C   UNL     1      43.403   4.734  12.869  0.00  0.00    +0.000 C 
BRANCH   7   9
ATOM      9  N   UNL     1      44.899   4.193  10.972  0.00  0.00    +0.000 N 
ATOM     10  C   UNL     1      44.478   4.002   9.681  0.00  0.00    +0.000 C 
ATOM     11  O   UNL     1      43.647   4.718   9.135  0.00  0.00    +0.000 OA
ATOM     12  H   UNL     1      45.698   3.670  11.317  0.00  0.00    +0.000 HD
BRANCH  10  13
ATOM     13  C   UNL     1      45.067   2.860   8.995  0.00  0.00    +0.000 A 
ATOM     14  C   UNL     1      44.688   1.550   9.234  0.00  0.00    +0.000 A 
ATOM     15  O   UNL     1      45.414   0.677   8.490  0.00  0.00    +0.000 OA
ATOM     16  C   UNL     1      46.291   1.409   7.749  0.00  0.00    +0.000 A 
ATOM     17  N   UNL     1      47.194   0.864   6.898  0.00  0.00    +0.000 NA
ATOM     18  C   UNL     1      47.944   1.739   6.312  0.00  0.00    +0.000 A 
ATOM     19  N   UNL     1      47.863   3.100   6.496  0.00  0.00    +0.000 N 
ATOM     20  C   UNL     1      46.950   3.687   7.341  0.00  0.00    +0.000 A 
ATOM     21  O   UNL     1      46.879   4.905   7.479  0.00  0.00    +0.000 OA
ATOM     22  C   UNL     1      46.106   2.749   8.027  0.00  0.00    +0.000 A 
ATOM     23  H   UNL     1      48.476   3.728   5.999  0.00  0.00    +0.000 HD
ENDBRANCH  10  13
ENDBRANCH   7   9
ENDBRANCH   4   7
BRANCH   1  24
ATOM     24  C   UNL     1      48.714   7.949  14.647  0.00  0.00    +0.000 C 
BRANCH  24  27
ATOM     25  C   UNL     1      49.269   7.097  16.877  0.00  0.00    +0.000 C 
ATOM     26  O   UNL     1      48.432   7.807  17.425  0.00  0.00    +0.000 OA
ATOM     27  N   UNL     1      49.485   7.096  15.513  0.00  0.00    +0.000 N 
ATOM     28  H   UNL     1      50.209   6.479  15.153  0.00  0.00    +0.000 HD
BRANCH  25  34
ATOM     29  C   UNL     1      50.566   5.005  21.237  0.00  0.00    +0.000 C 
ATOM     30  C   UNL     1      50.749   5.158  19.757  0.00  0.00    +0.000 A 
ATOM     31  C   UNL     1      51.717   4.432  19.061  0.00  0.00    +0.000 A 
ATOM     32  C   UNL     1      51.837   4.614  17.689  0.00  0.00    +0.000 A 
ATOM     33  N   UNL     1      51.068   5.457  16.966  0.00  0.00    +0.000 NA
ATOM     34  C   UNL     1      50.134   6.158  17.663  0.00  0.00    +0.000 A 
ATOM     35  C   UNL     1      49.941   6.042  19.038  0.00  0.00    +0.000 A 
ENDBRANCH  25  34
ENDBRANCH  24  27
ENDBRANCH   1  24
TORSDOF 6
ENDMDL
