MODEL 1
REMARK VINA RESULT:    -8.312      0.000      0.000
REMARK INTER + INTRA:         -11.763
REMARK INTER:                 -10.742
REMARK INTRA:                  -1.021
REMARK UNBOUND:                -1.021
REMARK  Name = 
REMARK  5 active torsions:
REMARK  status: ('A' for Active; 'I' for Inactive)
REMARK    1  A    between atoms: C_2  and  C_4
REMARK    2  A    between atoms: C_8  and  O_9
REMARK    3  A    between atoms: O_9  and  C_10
REMARK    4  A    between atoms: C_10  and  C_11
REMARK    5  A    between atoms: C_16  and  C_17
REMARK                            x       y       z     vdW  Elec       q    Type
REMARK                         _______ _______ _______ _____ _____    ______ ____
ROOT
ATOM      1  C   UNL     1      43.709   6.351  10.728  0.00  0.00    +0.000 C 
ENDROOT
BRANCH   1   2
ATOM      2  C   UNL     1      43.961   4.878  10.534  0.00  0.00    +0.000 A 
ATOM      3  C   UNL     1      43.294   3.930  11.314  0.00  0.00    +0.000 A 
ATOM      4  C   UNL     1      43.511   2.580  11.082  0.00  0.00    +0.000 A 
ATOM      5  F   UNL     1      42.846   1.673  11.810  0.00  0.00    +0.000 F 
ATOM      6  C   UNL     1      44.375   2.147  10.078  0.00  0.00    +0.000 A 
ATOM      7  C   UNL     1      45.047   3.070   9.260  0.00  0.00    +0.000 A 
ATOM      8  C   UNL     1      44.847   4.437   9.534  0.00  0.00    +0.000 A 
BRANCH   7   9
ATOM      9  C   UNL     1      45.850   2.637   8.088  0.00  0.00    +0.000 A 
ATOM     10  C   UNL     1      46.092   3.518   7.020  0.00  0.00    +0.000 A 
ATOM     11  C   UNL     1      46.933   3.168   5.957  0.00  0.00    +0.000 A 
ATOM     12  C   UNL     1      47.556   1.925   5.945  0.00  0.00    +0.000 A 
ATOM     13  C   UNL     1      47.318   1.024   6.979  0.00  0.00    +0.000 A 
ATOM     14  C   UNL     1      46.465   1.373   8.033  0.00  0.00    +0.000 A 
ENDBRANCH   7   9
ENDBRANCH   1   2
BRANCH   1  15
ATOM     15  O   UNL     1      44.077   6.716  12.055  0.00  0.00    +0.000 OA
BRANCH  15  20
ATOM     16  C   UNL     1      46.952   5.338  13.795  0.00  0.00    +0.000 A 
ATOM     17  C   UNL     1      48.019   6.044  13.231  0.00  0.00    +0.000 A 
ATOM     18  C   UNL     1      47.777   6.992  12.239  0.00  0.00    +0.000 A 
ATOM     19  C   UNL     1      46.470   7.245  11.814  0.00  0.00    +0.000 A 
ATOM     20  C   UNL     1      45.398   6.555  12.382  0.00  0.00    +0.000 A 
ATOM     21  C   UNL     1      45.641   5.605  13.378  0.00  0.00    +0.000 A 
BRANCH  16  23
ATOM     22  N   UNL     1      47.268   4.755  16.138  0.00  0.00    +0.000 N 
ATOM     23  C   UNL     1      47.252   4.327  14.841  0.00  0.00    +0.000 C 
ATOM     24  O   UNL     1      47.434   3.148  14.563  0.00  0.00    +0.000 OA
ATOM     25  H   UNL     1      47.366   4.039  16.846  0.00  0.00    +0.000 HD
ATOM     26  H   UNL     1      46.890   5.648  16.420  0.00  0.00    +0.000 HD
ENDBRANCH  16  23
ENDBRANCH  15  20
ENDBRANCH   1  15
TORSDOF 5
ENDMDL
MODEL 2
REMARK VINA RESULT:    -8.169      3.321      6.500
REMARK INTER + INTRA:         -11.579
REMARK INTER:                 -10.846
REMARK INTRA:                  -0.733
REMARK UNBOUND:                -1.021
REMARK  Name = 
REMARK  5 active torsions:
REMARK  status: ('A' for Active; 'I' for Inactive)
REMARK    1  A    between atoms: C_2  and  C_4
REMARK    2  A    between atoms: C_8  and  O_9
REMARK    3  A    between atoms: O_9  and  C_10
REMARK    4  A    between atoms: C_10  and  C_11
REMARK    5  A    between atoms: C_16  and  C_17
REMARK                            x       y       z     vdW  Elec       q    Type
REMARK                         _______ _______ _______ _____ _____    ______ ____
ROOT
ATOM      1  C   UNL     1      43.676   4.169  10.977  0.00  0.00    +0.000 C 
ENDROOT
BRANCH   1   2
ATOM      2  C   UNL     1      44.857   4.591  11.812  0.00  0.00    +0.000 A 
ATOM      3  C   UNL     1      45.467   3.694  12.692  0.00  0.00    +0.000 A 
ATOM      4  C   UNL     1      46.582   4.096  13.414  0.00  0.00    +0.000 A 
ATOM      5  F   UNL     1      47.184   3.224  14.232  0.00  0.00    +0.000 F 
ATOM      6  C   UNL     1      47.112   5.378  13.273  0.00  0.00    +0.000 A 
ATOM      7  C   UNL     1      46.538   6.300  12.384  0.00  0.00    +0.000 A 
ATOM      8  C   UNL     1      45.384   5.890  11.688  0.00  0.00    +0.000 A 
BRANCH   7   9
ATOM      9  C   UNL     1      47.172   7.613  12.101  0.00  0.00    +0.000 A 
ATOM     10  C   UNL     1      46.436   8.805  12.219  0.00  0.00    +0.000 A 
ATOM     11  C   UNL     1      47.040  10.058  12.061  0.00  0.00    +0.000 A 
ATOM     12  C   UNL     1      48.401  10.143  11.787  0.00  0.00    +0.000 A 
ATOM     13  C   UNL     1      49.149   8.979  11.644  0.00  0.00    +0.000 A 
ATOM     14  C   UNL     1      48.539   7.727  11.788  0.00  0.00    +0.000 A 
ENDBRANCH   7   9
ENDBRANCH   1   2
BRANCH   1  15
ATOM     15  O   UNL     1      44.010   2.982  10.264  0.00  0.00    +0.000 OA
BRANCH  15  20
ATOM     16  C   UNL     1      46.406   1.937   7.742  0.00  0.00    +0.000 A 
ATOM     17  C   UNL     1      46.783   3.149   7.157  0.00  0.00    +0.000 A 
ATOM     18  C   UNL     1      46.218   4.342   7.603  0.00  0.00    +0.000 A 
ATOM     19  C   UNL     1      45.281   4.329   8.640  0.00  0.00    +0.000 A 
ATOM     20  C   UNL     1      44.910   3.124   9.241  0.00  0.00    +0.000 A 
ATOM     21  C   UNL     1      45.479   1.929   8.793  0.00  0.00    +0.000 A 
BRANCH  16  23
ATOM     22  N   UNL     1      47.777   0.780   6.095  0.00  0.00    +0.000 N 
ATOM     23  C   UNL     1      47.023   0.686   7.230  0.00  0.00    +0.000 C 
ATOM     24  O   UNL     1      46.903  -0.380   7.821  0.00  0.00    +0.000 OA
ATOM     25  H   UNL     1      48.278  -0.053   5.818  0.00  0.00    +0.000 HD
ATOM     26  H   UNL     1      48.093   1.665   5.724  0.00  0.00    +0.000 HD
ENDBRANCH  16  23
ENDBRANCH  15  20
ENDBRANCH   1  15
TORSDOF 5
ENDMDL
MODEL 3
REMARK VINA RESULT:    -7.676      1.380      1.486
REMARK INTER + INTRA:         -10.941
REMARK INTER:                  -9.961
REMARK INTRA:                  -0.981
REMARK UNBOUND:                -1.021
REMARK  Name = 
REMARK  5 active torsions:
REMARK  status: ('A' for Active; 'I' for Inactive)
REMARK    1  A    between atoms: C_2  and  C_4
REMARK    2  A    between atoms: C_8  and  O_9
REMARK    3  A    between atoms: O_9  and  C_10
REMARK    4  A    between atoms: C_10  and  C_11
REMARK    5  A    between atoms: C_16  and  C_17
REMARK                            x       y       z     vdW  Elec       q    Type
REMARK                         _______ _______ _______ _____ _____    ______ ____
ROOT
ATOM      1  C   UNL     1      44.904   6.678  10.959  0.00  0.00    +0.000 C 
ENDROOT
BRANCH   1   2
ATOM      2  C   UNL     1      44.746   5.208  10.667  0.00  0.00    +0.000 A 
ATOM      3  C   UNL     1      43.850   4.427  11.400  0.00  0.00    +0.000 A 
ATOM      4  C   UNL     1      43.691   3.086  11.079  0.00  0.00    +0.000 A 
ATOM      5  F   UNL     1      42.808   2.347  11.762  0.00  0.00    +0.000 F 
ATOM      6  C   UNL     1      44.402   2.504  10.031  0.00  0.00    +0.000 A 
ATOM      7  C   UNL     1      45.296   3.262   9.259  0.00  0.00    +0.000 A 
ATOM      8  C   UNL     1      45.476   4.611   9.623  0.00  0.00    +0.000 A 
BRANCH   7   9
ATOM      9  C   UNL     1      45.948   2.707   8.046  0.00  0.00    +0.000 A 
ATOM     10  C   UNL     1      46.153   3.510   6.911  0.00  0.00    +0.000 A 
ATOM     11  C   UNL     1      46.860   3.040   5.798  0.00  0.00    +0.000 A 
ATOM     12  C   UNL     1      47.381   1.751   5.800  0.00  0.00    +0.000 A 
ATOM     13  C   UNL     1      47.174   0.926   6.901  0.00  0.00    +0.000 A 
ATOM     14  C   UNL     1      46.455   1.396   8.007  0.00  0.00    +0.000 A 
ENDBRANCH   7   9
ENDBRANCH   1   2
BRANCH   1  15
ATOM     15  O   UNL     1      45.299   6.844  12.317  0.00  0.00    +0.000 OA
BRANCH  15  20
ATOM     16  C   UNL     1      48.388   6.890  14.226  0.00  0.00    +0.000 A 
ATOM     17  C   UNL     1      49.340   7.236  13.261  0.00  0.00    +0.000 A 
ATOM     18  C   UNL     1      48.946   7.446  11.941  0.00  0.00    +0.000 A 
ATOM     19  C   UNL     1      47.601   7.321  11.583  0.00  0.00    +0.000 A 
ATOM     20  C   UNL     1      46.642   6.991  12.543  0.00  0.00    +0.000 A 
ATOM     21  C   UNL     1      47.039   6.782  13.867  0.00  0.00    +0.000 A 
BRANCH  16  23
ATOM     22  N   UNL     1      48.482   7.585  16.558  0.00  0.00    +0.000 N 
ATOM     23  C   UNL     1      48.851   6.663  15.619  0.00  0.00    +0.000 C 
ATOM     24  O   UNL     1      49.498   5.671  15.929  0.00  0.00    +0.000 OA
ATOM     25  H   UNL     1      48.710   7.363  17.518  0.00  0.00    +0.000 HD
ATOM     26  H   UNL     1      47.760   8.271  16.392  0.00  0.00    +0.000 HD
ENDBRANCH  16  23
ENDBRANCH  15  20
ENDBRANCH   1  15
TORSDOF 5
ENDMDL
MODEL 4
REMARK VINA RESULT:    -7.551      3.564      6.797
REMARK INTER + INTRA:         -10.780
REMARK INTER:                  -9.761
REMARK INTRA:                  -1.019
REMARK UNBOUND:                -1.021
REMARK  Name = 
REMARK  5 active torsions:
REMARK  status: ('A' for Active; 'I' for Inactive)
REMARK    1  A    between atoms: C_2  and  C_4
REMARK    2  A    between atoms: C_8  and  O_9
REMARK    3  A    between atoms: O_9  and  C_10
REMARK    4  A    between atoms: C_10  and  C_11
REMARK    5  A    between atoms: C_16  and  C_17
REMARK                            x       y       z     vdW  Elec       q    Type
REMARK                         _______ _______ _______ _____ _____    ______ ____
ROOT
ATOM      1  C   UNL     1      44.582   5.523  10.817  0.00  0.00    +0.000 C 
ENDROOT
BRANCH   1   2
ATOM      2  C   UNL     1      45.738   5.808  11.742  0.00  0.00    +0.000 A 
ATOM      3  C   UNL     1      45.928   5.052  12.901  0.00  0.00    +0.000 A 
ATOM      4  C   UNL     1      47.027   5.305  13.709  0.00  0.00    +0.000 A 
ATOM      5  F   UNL     1      47.224   4.558  14.803  0.00  0.00    +0.000 F 
ATOM      6  C   UNL     1      47.952   6.295  13.384  0.00  0.00    +0.000 A 
ATOM      7  C   UNL     1      47.806   7.061  12.216  0.00  0.00    +0.000 A 
ATOM      8  C   UNL     1      46.664   6.819  11.427  0.00  0.00    +0.000 A 
BRANCH   7   9
ATOM      9  C   UNL     1      48.854   8.012  11.767  0.00  0.00    +0.000 A 
ATOM     10  C   UNL     1      48.597   9.393  11.716  0.00  0.00    +0.000 A 
ATOM     11  C   UNL     1      49.601  10.314  11.399  0.00  0.00    +0.000 A 
ATOM     12  C   UNL     1      50.891   9.871  11.131  0.00  0.00    +0.000 A 
ATOM     13  C   UNL     1      51.170   8.508  11.152  0.00  0.00    +0.000 A 
ATOM     14  C   UNL     1      50.159   7.588  11.456  0.00  0.00    +0.000 A 
ENDBRANCH   7   9
ENDBRANCH   1   2
BRANCH   1  15
ATOM     15  O   UNL     1      45.076   5.350   9.493  0.00  0.00    +0.000 OA
BRANCH  15  20
ATOM     16  C   UNL     1      46.559   2.649   7.570  0.00  0.00    +0.000 A 
ATOM     17  C   UNL     1      45.934   1.517   8.100  0.00  0.00    +0.000 A 
ATOM     18  C   UNL     1      45.006   1.653   9.131  0.00  0.00    +0.000 A 
ATOM     19  C   UNL     1      44.693   2.921   9.628  0.00  0.00    +0.000 A 
ATOM     20  C   UNL     1      45.301   4.059   9.095  0.00  0.00    +0.000 A 
ATOM     21  C   UNL     1      46.231   3.920   8.060  0.00  0.00    +0.000 A 
BRANCH  16  23
ATOM     22  N   UNL     1      47.368   3.183   5.336  0.00  0.00    +0.000 N 
ATOM     23  C   UNL     1      47.551   2.460   6.481  0.00  0.00    +0.000 C 
ATOM     24  O   UNL     1      48.519   1.722   6.613  0.00  0.00    +0.000 OA
ATOM     25  H   UNL     1      48.106   3.128   4.647  0.00  0.00    +0.000 HD
ATOM     26  H   UNL     1      46.733   3.967   5.284  0.00  0.00    +0.000 HD
ENDBRANCH  16  23
ENDBRANCH  15  20
ENDBRANCH   1  15
TORSDOF 5
ENDMDL
MODEL 5
REMARK VINA RESULT:    -7.470      1.798      2.503
REMARK INTER + INTRA:         -10.675
REMARK INTER:                  -9.734
REMARK INTRA:                  -0.941
REMARK UNBOUND:                -1.021
REMARK  Name = 
REMARK  5 active torsions:
REMARK  status: ('A' for Active; 'I' for Inactive)
REMARK    1  A    between atoms: C_2  and  C_4
REMARK    2  A    between atoms: C_8  and  O_9
REMARK    3  A    between atoms: O_9  and  C_10
REMARK    4  A    between atoms: C_10  and  C_11
REMARK    5  A    between atoms: C_16  and  C_17
REMARK                            x       y       z     vdW  Elec       q    Type
REMARK                         _______ _______ _______ _____ _____    ______ ____
ROOT
ATOM      1  C   UNL     1      46.187   7.469  12.281  0.00  0.00    +0.000 C 
ENDROOT
BRANCH   1   2
ATOM      2  C   UNL     1      45.279   6.419  11.695  0.00  0.00    +0.000 A 
ATOM      3  C   UNL     1      43.927   6.370  12.041  0.00  0.00    +0.000 A 
ATOM      4  C   UNL     1      43.104   5.422  11.450  0.00  0.00    +0.000 A 
ATOM      5  F   UNL     1      41.801   5.399  11.759  0.00  0.00    +0.000 F 
ATOM      6  C   UNL     1      43.598   4.519  10.510  0.00  0.00    +0.000 A 
ATOM      7  C   UNL     1      44.947   4.550  10.123  0.00  0.00    +0.000 A 
ATOM      8  C   UNL     1      45.778   5.493  10.760  0.00  0.00    +0.000 A 
BRANCH   7   9
ATOM      9  C   UNL     1      45.463   3.707   9.015  0.00  0.00    +0.000 A 
ATOM     10  C   UNL     1      46.010   4.293   7.861  0.00  0.00    +0.000 A 
ATOM     11  C   UNL     1      46.598   3.519   6.854  0.00  0.00    +0.000 A 
ATOM     12  C   UNL     1      46.656   2.136   6.985  0.00  0.00    +0.000 A 
ATOM     13  C   UNL     1      46.103   1.526   8.107  0.00  0.00    +0.000 A 
ATOM     14  C   UNL     1      45.503   2.303   9.106  0.00  0.00    +0.000 A 
ENDBRANCH   7   9
ENDBRANCH   1   2
BRANCH   1  15
ATOM     15  O   UNL     1      47.486   6.914  12.463  0.00  0.00    +0.000 OA
BRANCH  15  20
ATOM     16  C   UNL     1      47.797   5.061  15.571  0.00  0.00    +0.000 A 
ATOM     17  C   UNL     1      48.514   5.944  16.384  0.00  0.00    +0.000 A 
ATOM     18  C   UNL     1      48.915   7.181  15.882  0.00  0.00    +0.000 A 
ATOM     19  C   UNL     1      48.594   7.543  14.571  0.00  0.00    +0.000 A 
ATOM     20  C   UNL     1      47.865   6.673  13.758  0.00  0.00    +0.000 A 
ATOM     21  C   UNL     1      47.462   5.434  14.263  0.00  0.00    +0.000 A 
BRANCH  16  23
ATOM     22  N   UNL     1      47.880   2.627  15.523  0.00  0.00    +0.000 N 
ATOM     23  C   UNL     1      47.399   3.748  16.140  0.00  0.00    +0.000 C 
ATOM     24  O   UNL     1      46.705   3.666  17.145  0.00  0.00    +0.000 OA
ATOM     25  H   UNL     1      47.691   1.746  15.982  0.00  0.00    +0.000 HD
ATOM     26  H   UNL     1      48.635   2.657  14.854  0.00  0.00    +0.000 HD
ENDBRANCH  16  23
ENDBRANCH  15  20
ENDBRANCH   1  15
TORSDOF 5
ENDMDL
MODEL 6
REMARK VINA RESULT:    -7.337      2.415      3.375
REMARK INTER + INTRA:         -10.502
REMARK INTER:                  -9.541
REMARK INTRA:                  -0.961
REMARK UNBOUND:                -1.021
REMARK  Name = 
REMARK  5 active torsions:
REMARK  status: ('A' for Active; 'I' for Inactive)
REMARK    1  A    between atoms: C_2  and  C_4
REMARK    2  A    between atoms: C_8  and  O_9
REMARK    3  A    between atoms: O_9  and  C_10
REMARK    4  A    between atoms: C_10  and  C_11
REMARK    5  A    between atoms: C_16  and  C_17
REMARK                            x       y       z     vdW  Elec       q    Type
REMARK                         _______ _______ _______ _____ _____    ______ ____
ROOT
ATOM      1  C   UNL     1      44.269   6.608  11.191  0.00  0.00    +0.000 C 
ENDROOT
BRANCH   1   2
ATOM      2  C   UNL     1      44.323   5.137  10.872  0.00  0.00    +0.000 A 
ATOM      3  C   UNL     1      43.523   4.226  11.564  0.00  0.00    +0.000 A 
ATOM      4  C   UNL     1      43.559   2.882  11.218  0.00  0.00    +0.000 A 
ATOM      5  F   UNL     1      42.767   2.016  11.862  0.00  0.00    +0.000 F 
ATOM      6  C   UNL     1      44.373   2.423  10.184  0.00  0.00    +0.000 A 
ATOM      7  C   UNL     1      45.177   3.312   9.452  0.00  0.00    +0.000 A 
ATOM      8  C   UNL     1      45.159   4.666   9.842  0.00  0.00    +0.000 A 
BRANCH   7   9
ATOM      9  C   UNL     1      45.933   2.875   8.251  0.00  0.00    +0.000 A 
ATOM     10  C   UNL     1      46.393   1.552   8.134  0.00  0.00    +0.000 A 
ATOM     11  C   UNL     1      47.012   1.092   6.967  0.00  0.00    +0.000 A 
ATOM     12  C   UNL     1      47.181   1.949   5.886  0.00  0.00    +0.000 A 
ATOM     13  C   UNL     1      46.756   3.271   5.981  0.00  0.00    +0.000 A 
ATOM     14  C   UNL     1      46.148   3.731   7.156  0.00  0.00    +0.000 A 
ENDBRANCH   7   9
ENDBRANCH   1   2
BRANCH   1  15
ATOM     15  O   UNL     1      45.011   6.856  12.381  0.00  0.00    +0.000 OA
BRANCH  15  20
ATOM     16  C   UNL     1      47.399   9.566  12.001  0.00  0.00    +0.000 A 
ATOM     17  C   UNL     1      48.616   8.887  11.883  0.00  0.00    +0.000 A 
ATOM     18  C   UNL     1      48.645   7.496  11.945  0.00  0.00    +0.000 A 
ATOM     19  C   UNL     1      47.458   6.777  12.114  0.00  0.00    +0.000 A 
ATOM     20  C   UNL     1      46.237   7.445  12.217  0.00  0.00    +0.000 A 
ATOM     21  C   UNL     1      46.209   8.841  12.154  0.00  0.00    +0.000 A 
BRANCH  16  23
ATOM     22  N   UNL     1      46.316  11.705  12.427  0.00  0.00    +0.000 N 
ATOM     23  C   UNL     1      47.412  11.050  11.942  0.00  0.00    +0.000 C 
ATOM     24  O   UNL     1      48.381  11.668  11.519  0.00  0.00    +0.000 OA
ATOM     25  H   UNL     1      46.382  12.713  12.481  0.00  0.00    +0.000 HD
ATOM     26  H   UNL     1      45.617  11.248  12.995  0.00  0.00    +0.000 HD
ENDBRANCH  16  23
ENDBRANCH  15  20
ENDBRANCH   1  15
TORSDOF 5
ENDMDL
MODEL 7
REMARK VINA RESULT:    -7.266      2.384      3.665
REMARK INTER + INTRA:         -10.411
REMARK INTER:                  -9.680
REMARK INTRA:                  -0.730
REMARK UNBOUND:                -1.021
REMARK  Name = 
REMARK  5 active torsions:
REMARK  status: ('A' for Active; 'I' for Inactive)
REMARK    1  A    between atoms: C_2  and  C_4
REMARK    2  A    between atoms: C_8  and  O_9
REMARK    3  A    between atoms: O_9  and  C_10
REMARK    4  A    between atoms: C_10  and  C_11
REMARK    5  A    between atoms: C_16  and  C_17
REMARK                            x       y       z     vdW  Elec       q    Type
REMARK                         _______ _______ _______ _____ _____    ______ ____
ROOT
ATOM      1  C   UNL     1      46.071   5.066  14.053  0.00  0.00    +0.000 C 
ENDROOT
BRANCH   1   2
ATOM      2  C   UNL     1      45.134   4.855  12.891  0.00  0.00    +0.000 A 
ATOM      3  C   UNL     1      43.833   5.363  12.921  0.00  0.00    +0.000 A 
ATOM      4  C   UNL     1      43.008   5.194  11.818  0.00  0.00    +0.000 A 
ATOM      5  F   UNL     1      41.772   5.710  11.838  0.00  0.00    +0.000 F 
ATOM      6  C   UNL     1      43.454   4.534  10.675  0.00  0.00    +0.000 A 
ATOM      7  C   UNL     1      44.762   4.028  10.600  0.00  0.00    +0.000 A 
ATOM      8  C   UNL     1      45.574   4.173  11.742  0.00  0.00    +0.000 A 
BRANCH   7   9
ATOM      9  C   UNL     1      45.310   3.460   9.342  0.00  0.00    +0.000 A 
ATOM     10  C   UNL     1      45.781   4.302   8.320  0.00  0.00    +0.000 A 
ATOM     11  C   UNL     1      46.399   3.789   7.174  0.00  0.00    +0.000 A 
ATOM     12  C   UNL     1      46.563   2.417   7.029  0.00  0.00    +0.000 A 
ATOM     13  C   UNL     1      46.087   1.557   8.015  0.00  0.00    +0.000 A 
ATOM     14  C   UNL     1      45.457   2.074   9.154  0.00  0.00    +0.000 A 
ENDBRANCH   7   9
ENDBRANCH   1   2
BRANCH   1  15
ATOM     15  O   UNL     1      46.556   3.803  14.496  0.00  0.00    +0.000 OA
BRANCH  15  20
ATOM     16  C   UNL     1      48.663   5.271  17.064  0.00  0.00    +0.000 A 
ATOM     17  C   UNL     1      49.263   4.150  17.646  0.00  0.00    +0.000 A 
ATOM     18  C   UNL     1      48.949   2.875  17.182  0.00  0.00    +0.000 A 
ATOM     19  C   UNL     1      48.044   2.715  16.130  0.00  0.00    +0.000 A 
ATOM     20  C   UNL     1      47.452   3.829  15.533  0.00  0.00    +0.000 A 
ATOM     21  C   UNL     1      47.768   5.108  15.999  0.00  0.00    +0.000 A 
BRANCH  16  23
ATOM     22  N   UNL     1      48.204   7.656  17.249  0.00  0.00    +0.000 N 
ATOM     23  C   UNL     1      49.015   6.613  17.596  0.00  0.00    +0.000 C 
ATOM     24  O   UNL     1      49.966   6.777  18.350  0.00  0.00    +0.000 OA
ATOM     25  H   UNL     1      48.390   8.540  17.702  0.00  0.00    +0.000 HD
ATOM     26  H   UNL     1      47.291   7.521  16.837  0.00  0.00    +0.000 HD
ENDBRANCH  16  23
ENDBRANCH  15  20
ENDBRANCH   1  15
TORSDOF 5
ENDMDL
MODEL 8
REMARK VINA RESULT:    -7.043      2.975      5.053
REMARK INTER + INTRA:         -10.123
REMARK INTER:                  -9.065
REMARK INTRA:                  -1.058
REMARK UNBOUND:                -1.021
REMARK  Name = 
REMARK  5 active torsions:
REMARK  status: ('A' for Active; 'I' for Inactive)
REMARK    1  A    between atoms: C_2  and  C_4
REMARK    2  A    between atoms: C_8  and  O_9
REMARK    3  A    between atoms: O_9  and  C_10
REMARK    4  A    between atoms: C_10  and  C_11
REMARK    5  A    between atoms: C_16  and  C_17
REMARK                            x       y       z     vdW  Elec       q    Type
REMARK                         _______ _______ _______ _____ _____    ______ ____
ROOT
ATOM      1  C   UNL     1      48.926   7.742  13.709  0.00  0.00    +0.000 C 
ENDROOT
BRANCH   1   2
ATOM      2  C   UNL     1      47.544   7.682  13.112  0.00  0.00    +0.000 A 
ATOM      3  C   UNL     1      46.683   8.779  13.192  0.00  0.00    +0.000 A 
ATOM      4  C   UNL     1      45.433   8.712  12.593  0.00  0.00    +0.000 A 
ATOM      5  F   UNL     1      44.623   9.777  12.643  0.00  0.00    +0.000 F 
ATOM      6  C   UNL     1      45.021   7.572  11.905  0.00  0.00    +0.000 A 
ATOM      7  C   UNL     1      45.865   6.457  11.787  0.00  0.00    +0.000 A 
ATOM      8  C   UNL     1      47.115   6.526  12.434  0.00  0.00    +0.000 A 
BRANCH   7   9
ATOM      9  C   UNL     1      45.513   5.296  10.932  0.00  0.00    +0.000 A 
ATOM     10  C   UNL     1      44.935   4.142  11.491  0.00  0.00    +0.000 A 
ATOM     11  C   UNL     1      44.498   3.081  10.691  0.00  0.00    +0.000 A 
ATOM     12  C   UNL     1      44.626   3.154   9.309  0.00  0.00    +0.000 A 
ATOM     13  C   UNL     1      45.214   4.274   8.729  0.00  0.00    +0.000 A 
ATOM     14  C   UNL     1      45.663   5.328   9.533  0.00  0.00    +0.000 A 
ENDBRANCH   7   9
ENDBRANCH   1   2
BRANCH   1  15
ATOM     15  O   UNL     1      49.203   6.512  14.371  0.00  0.00    +0.000 OA
BRANCH  15  20
ATOM     16  C   UNL     1      48.004   4.974  17.434  0.00  0.00    +0.000 A 
ATOM     17  C   UNL     1      48.037   6.035  18.344  0.00  0.00    +0.000 A 
ATOM     18  C   UNL     1      48.482   7.290  17.931  0.00  0.00    +0.000 A 
ATOM     19  C   UNL     1      48.885   7.490  16.609  0.00  0.00    +0.000 A 
ATOM     20  C   UNL     1      48.840   6.440  15.690  0.00  0.00    +0.000 A 
ATOM     21  C   UNL     1      48.393   5.182  16.105  0.00  0.00    +0.000 A 
BRANCH  16  23
ATOM     22  N   UNL     1      48.191   3.103  18.983  0.00  0.00    +0.000 N 
ATOM     23  C   UNL     1      47.534   3.649  17.916  0.00  0.00    +0.000 C 
ATOM     24  O   UNL     1      46.572   3.085  17.412  0.00  0.00    +0.000 OA
ATOM     25  H   UNL     1      47.795   2.256  19.368  0.00  0.00    +0.000 HD
ATOM     26  H   UNL     1      48.818   3.637  19.566  0.00  0.00    +0.000 HD
ENDBRANCH  16  23
ENDBRANCH  15  20
ENDBRANCH   1  15
TORSDOF 5
ENDMDL
MODEL 9
REMARK VINA RESULT:    -6.978      2.726      3.523
REMARK INTER + INTRA:         -10.039
REMARK INTER:                  -9.180
REMARK INTRA:                  -0.859
REMARK UNBOUND:                -1.021
REMARK  Name = 
REMARK  5 active torsions:
REMARK  status: ('A' for Active; 'I' for Inactive)
REMARK    1  A    between atoms: C_2  and  C_4
REMARK    2  A    between atoms: C_8  and  O_9
REMARK    3  A    between atoms: O_9  and  C_10
REMARK    4  A    between atoms: C_10  and  C_11
REMARK    5  A    between atoms: C_16  and  C_17
REMARK                            x       y       z     vdW  Elec       q    Type
REMARK                         _______ _______ _______ _____ _____    ______ ____
ROOT
ATOM      1  C   UNL     1      46.037   5.109  13.990  0.00  0.00    +0.000 C 
ENDROOT
BRANCH   1   2
ATOM      2  C   UNL     1      45.103   4.874  12.831  0.00  0.00    +0.000 A 
ATOM      3  C   UNL     1      43.798   5.371  12.854  0.00  0.00    +0.000 A 
ATOM      4  C   UNL     1      42.975   5.180  11.753  0.00  0.00    +0.000 A 
ATOM      5  F   UNL     1      41.735   5.685  11.765  0.00  0.00    +0.000 F 
ATOM      6  C   UNL     1      43.427   4.508  10.619  0.00  0.00    +0.000 A 
ATOM      7  C   UNL     1      44.739   4.012  10.552  0.00  0.00    +0.000 A 
ATOM      8  C   UNL     1      45.549   4.179  11.692  0.00  0.00    +0.000 A 
BRANCH   7   9
ATOM      9  C   UNL     1      45.292   3.431   9.303  0.00  0.00    +0.000 A 
ATOM     10  C   UNL     1      45.766   4.262   8.272  0.00  0.00    +0.000 A 
ATOM     11  C   UNL     1      46.388   3.738   7.134  0.00  0.00    +0.000 A 
ATOM     12  C   UNL     1      46.555   2.364   7.005  0.00  0.00    +0.000 A 
ATOM     13  C   UNL     1      46.078   1.515   7.999  0.00  0.00    +0.000 A 
ATOM     14  C   UNL     1      45.443   2.043   9.130  0.00  0.00    +0.000 A 
ENDBRANCH   7   9
ENDBRANCH   1   2
BRANCH   1  15
ATOM     15  O   UNL     1      47.339   5.399  13.490  0.00  0.00    +0.000 OA
BRANCH  15  20
ATOM     16  C   UNL     1      49.134   8.185  12.004  0.00  0.00    +0.000 A 
ATOM     17  C   UNL     1      48.246   9.251  12.181  0.00  0.00    +0.000 A 
ATOM     18  C   UNL     1      47.016   9.035  12.797  0.00  0.00    +0.000 A 
ATOM     19  C   UNL     1      46.672   7.758  13.247  0.00  0.00    +0.000 A 
ATOM     20  C   UNL     1      47.558   6.691  13.089  0.00  0.00    +0.000 A 
ATOM     21  C   UNL     1      48.793   6.909  12.471  0.00  0.00    +0.000 A 
BRANCH  16  23
ATOM     22  N   UNL     1      50.764   9.761  11.115  0.00  0.00    +0.000 N 
ATOM     23  C   UNL     1      50.431   8.454  11.332  0.00  0.00    +0.000 C 
ATOM     24  O   UNL     1      51.195   7.548  11.022  0.00  0.00    +0.000 OA
ATOM     25  H   UNL     1      51.694   9.934  10.757  0.00  0.00    +0.000 HD
ATOM     26  H   UNL     1      50.283  10.526  11.565  0.00  0.00    +0.000 HD
ENDBRANCH  16  23
ENDBRANCH  15  20
ENDBRANCH   1  15
TORSDOF 5
ENDMDL
