MODEL 1
REMARK VINA RESULT:    -8.428      0.000      0.000
REMARK INTER + INTRA:         -13.050
REMARK INTER:                 -11.877
REMARK INTRA:                  -1.173
REMARK UNBOUND:                -1.173
REMARK  Name = 
REMARK  8 active torsions:
REMARK  status: ('A' for Active; 'I' for Inactive)
REMARK    1  A    between atoms: C_1  and  C_2
REMARK    2  A    between atoms: C_2  and  O_3
REMARK    3  A    between atoms: C_2  and  C_13
REMARK    4  A    between atoms: O_3  and  C_4
REMARK    5  A    between atoms: C_7  and  C_8
REMARK    6  A    between atoms: C_17  and  C_18
REMARK    7  A    between atoms: C_23  and  O_24
REMARK    8  A    between atoms: O_24  and  C_25
REMARK                            x       y       z     vdW  Elec       q    Type
REMARK                         _______ _______ _______ _____ _____    ______ ____
ROOT
ATOM      1  C   UNL     1      44.965   4.972  11.833  0.00  0.00    +0.000 A 
ATOM      2  C   UNL     1      45.408   4.069  12.798  0.00  0.00    +0.000 A 
ATOM      3  C   UNL     1      46.581   4.337  13.498  0.00  0.00    +0.000 A 
ATOM      4  C   UNL     1      47.296   5.518  13.257  0.00  0.00    +0.000 A 
ATOM      5  C   UNL     1      46.890   6.448  12.283  0.00  0.00    +0.000 A 
ATOM      6  C   UNL     1      45.722   6.117  11.559  0.00  0.00    +0.000 A 
ENDROOT
BRANCH   5   7
ATOM      7  C   UNL     1      47.566   7.770  12.084  0.00  0.00    +0.000 A 
ATOM      8  C   UNL     1      48.950   7.778  11.778  0.00  0.00    +0.000 A 
ATOM      9  C   UNL     1      49.658   8.947  11.502  0.00  0.00    +0.000 A 
ATOM     10  C   UNL     1      48.991  10.158  11.478  0.00  0.00    +0.000 A 
ATOM     11  C   UNL     1      47.633  10.200  11.780  0.00  0.00    +0.000 A 
ATOM     12  C   UNL     1      46.924   9.033  12.128  0.00  0.00    +0.000 A 
BRANCH  12  13
ATOM     13  O   UNL     1      45.600   9.079  12.494  0.00  0.00    +0.000 OA
BRANCH  13  14
ATOM     14  C   UNL     1      44.715   9.692  11.567  0.00  0.00    +0.000 C 
ATOM     15  F   UNL     1      43.886   8.747  11.055  0.00  0.00    +0.000 F 
ATOM     16  F   UNL     1      43.928  10.555  12.258  0.00  0.00    +0.000 F 
ENDBRANCH  13  14
ENDBRANCH  12  13
ENDBRANCH   5   7
BRANCH   1  18
ATOM     17  C   UNL     1      42.470   5.395  11.786  0.00  0.00    +0.000 C 
ATOM     18  C   UNL     1      43.682   4.802  11.144  0.00  0.00    +0.000 C 
BRANCH  18  19
ATOM     19  O   UNL     1      43.793   4.898   9.761  0.00  0.00    +0.000 OA
BRANCH  19  20
ATOM     20  C   UNL     1      44.593   3.970   9.113  0.00  0.00    +0.000 A 
ATOM     21  C   UNL     1      44.452   2.632   9.485  0.00  0.00    +0.000 A 
ATOM     22  N   UNL     1      45.211   1.628   8.965  0.00  0.00    +0.000 NA
ATOM     23  C   UNL     1      46.131   2.037   8.048  0.00  0.00    +0.000 A 
ATOM     24  C   UNL     1      46.271   3.366   7.672  0.00  0.00    +0.000 A 
ATOM     25  N   UNL     1      45.504   4.365   8.194  0.00  0.00    +0.000 NA
BRANCH  23  26
ATOM     26  C   UNL     1      47.028   1.005   7.445  0.00  0.00    +0.000 C 
ATOM     27  N   UNL     1      48.020   1.466   6.625  0.00  0.00    +0.000 N 
ATOM     28  O   UNL     1      46.883  -0.189   7.671  0.00  0.00    +0.000 OA
ATOM     29  H   UNL     1      48.115   2.459   6.436  0.00  0.00    +0.000 HD
ATOM     30  H   UNL     1      48.642   0.803   6.181  0.00  0.00    +0.000 HD
ENDBRANCH  23  26
ENDBRANCH  19  20
ENDBRANCH  18  19
ENDBRANCH   1  18
TORSDOF 7
ENDMDL
MODEL 2
REMARK VINA RESULT:    -7.865      4.104      7.170
REMARK INTER + INTRA:         -12.256
REMARK INTER:                 -11.005
REMARK INTRA:                  -1.251
REMARK UNBOUND:                -1.173
REMARK  Name = 
REMARK  8 active torsions:
REMARK  status: ('A' for Active; 'I' for Inactive)
REMARK    1  A    between atoms: C_1  and  C_2
REMARK    2  A    between atoms: C_2  and  O_3
REMARK    3  A    between atoms: C_2  and  C_13
REMARK    4  A    between atoms: O_3  and  C_4
REMARK    5  A    between atoms: C_7  and  C_8
REMARK    6  A    between atoms: C_17  and  C_18
REMARK    7  A    between atoms: C_23  and  O_24
REMARK    8  A    between atoms: O_24  and  C_25
REMARK                            x       y       z     vdW  Elec       q    Type
REMARK                         _______ _______ _______ _____ _____    ______ ____
ROOT
ATOM      1  C   UNL     1      47.526   7.403  12.473  0.00  0.00    +0.000 A 
ATOM      2  C   UNL     1      46.662   8.462  12.748  0.00  0.00    +0.000 A 
ATOM      3  C   UNL     1      45.377   8.454  12.214  0.00  0.00    +0.000 A 
ATOM      4  C   UNL     1      44.943   7.376  11.429  0.00  0.00    +0.000 A 
ATOM      5  C   UNL     1      45.788   6.296  11.117  0.00  0.00    +0.000 A 
ATOM      6  C   UNL     1      47.100   6.364  11.638  0.00  0.00    +0.000 A 
ENDROOT
BRANCH   5   7
ATOM      7  C   UNL     1      45.318   5.078  10.380  0.00  0.00    +0.000 A 
ATOM      8  C   UNL     1      45.554   5.006   8.984  0.00  0.00    +0.000 A 
ATOM      9  C   UNL     1      45.224   3.888   8.218  0.00  0.00    +0.000 A 
ATOM     10  C   UNL     1      44.682   2.775   8.834  0.00  0.00    +0.000 A 
ATOM     11  C   UNL     1      44.425   2.804  10.203  0.00  0.00    +0.000 A 
ATOM     12  C   UNL     1      44.691   3.953  10.973  0.00  0.00    +0.000 A 
BRANCH  12  13
ATOM     13  O   UNL     1      44.375   4.011  12.309  0.00  0.00    +0.000 OA
BRANCH  13  14
ATOM     14  C   UNL     1      43.048   4.408  12.622  0.00  0.00    +0.000 C 
ATOM     15  F   UNL     1      43.089   5.529  13.387  0.00  0.00    +0.000 F 
ATOM     16  F   UNL     1      42.439   4.761  11.462  0.00  0.00    +0.000 F 
ENDBRANCH  13  14
ENDBRANCH  12  13
ENDBRANCH   5   7
BRANCH   1  18
ATOM     17  C   UNL     1      50.015   7.841  12.336  0.00  0.00    +0.000 C 
ATOM     18  C   UNL     1      48.849   7.299  13.097  0.00  0.00    +0.000 C 
BRANCH  18  19
ATOM     19  O   UNL     1      48.818   7.514  14.471  0.00  0.00    +0.000 OA
BRANCH  19  20
ATOM     20  C   UNL     1      48.441   6.454  15.281  0.00  0.00    +0.000 A 
ATOM     21  C   UNL     1      48.854   6.489  16.614  0.00  0.00    +0.000 A 
ATOM     22  N   UNL     1      48.597   5.490  17.502  0.00  0.00    +0.000 NA
ATOM     23  C   UNL     1      47.903   4.440  16.981  0.00  0.00    +0.000 A 
ATOM     24  C   UNL     1      47.487   4.404  15.657  0.00  0.00    +0.000 A 
ATOM     25  N   UNL     1      47.744   5.411  14.775  0.00  0.00    +0.000 NA
BRANCH  23  26
ATOM     26  C   UNL     1      47.600   3.284  17.878  0.00  0.00    +0.000 C 
ATOM     27  N   UNL     1      48.374   3.165  18.998  0.00  0.00    +0.000 N 
ATOM     28  O   UNL     1      46.708   2.486  17.623  0.00  0.00    +0.000 OA
ATOM     29  H   UNL     1      49.120   3.828  19.185  0.00  0.00    +0.000 HD
ATOM     30  H   UNL     1      48.216   2.388  19.627  0.00  0.00    +0.000 HD
ENDBRANCH  23  26
ENDBRANCH  19  20
ENDBRANCH  18  19
ENDBRANCH   1  18
TORSDOF 7
ENDMDL
MODEL 3
REMARK VINA RESULT:    -7.832      1.868      2.507
REMARK INTER + INTRA:         -12.210
REMARK INTER:                 -11.213
REMARK INTRA:                  -0.997
REMARK UNBOUND:                -1.173
REMARK  Name = 
REMARK  8 active torsions:
REMARK  status: ('A' for Active; 'I' for Inactive)
REMARK    1  A    between atoms: C_1  and  C_2
REMARK    2  A    between atoms: C_2  and  O_3
REMARK    3  A    between atoms: C_2  and  C_13
REMARK    4  A    between atoms: O_3  and  C_4
REMARK    5  A    between atoms: C_7  and  C_8
REMARK    6  A    between atoms: C_17  and  C_18
REMARK    7  A    between atoms: C_23  and  O_24
REMARK    8  A    between atoms: O_24  and  C_25
REMARK                            x       y       z     vdW  Elec       q    Type
REMARK                         _______ _______ _______ _____ _____    ______ ____
ROOT
ATOM      1  C   UNL     1      45.374   4.436  12.073  0.00  0.00    +0.000 A 
ATOM      2  C   UNL     1      46.166   4.005  13.136  0.00  0.00    +0.000 A 
ATOM      3  C   UNL     1      46.944   4.928  13.829  0.00  0.00    +0.000 A 
ATOM      4  C   UNL     1      46.909   6.286  13.481  0.00  0.00    +0.000 A 
ATOM      5  C   UNL     1      46.133   6.759  12.407  0.00  0.00    +0.000 A 
ATOM      6  C   UNL     1      45.396   5.784  11.697  0.00  0.00    +0.000 A 
ENDROOT
BRANCH   5   7
ATOM      7  C   UNL     1      45.985   8.215  12.085  0.00  0.00    +0.000 A 
ATOM      8  C   UNL     1      44.744   8.666  11.569  0.00  0.00    +0.000 A 
ATOM      9  C   UNL     1      44.477  10.009  11.306  0.00  0.00    +0.000 A 
ATOM     10  C   UNL     1      45.435  10.964  11.595  0.00  0.00    +0.000 A 
ATOM     11  C   UNL     1      46.671  10.567  12.096  0.00  0.00    +0.000 A 
ATOM     12  C   UNL     1      46.976   9.207  12.299  0.00  0.00    +0.000 A 
BRANCH  12  13
ATOM     13  O   UNL     1      48.219   8.805  12.728  0.00  0.00    +0.000 OA
BRANCH  13  14
ATOM     14  C   UNL     1      49.214   8.671  11.724  0.00  0.00    +0.000 C 
ATOM     15  F   UNL     1      48.933   7.582  10.963  0.00  0.00    +0.000 F 
ATOM     16  F   UNL     1      49.115   9.746  10.901  0.00  0.00    +0.000 F 
ENDBRANCH  13  14
ENDBRANCH  12  13
ENDBRANCH   5   7
BRANCH   1  18
ATOM     17  C   UNL     1      43.324   2.954  12.171  0.00  0.00    +0.000 C 
ATOM     18  C   UNL     1      44.450   3.532  11.378  0.00  0.00    +0.000 C 
BRANCH  18  19
ATOM     19  O   UNL     1      44.185   3.930  10.073  0.00  0.00    +0.000 OA
BRANCH  19  20
ATOM     20  C   UNL     1      45.010   3.444   9.070  0.00  0.00    +0.000 A 
ATOM     21  C   UNL     1      45.303   2.079   9.087  0.00  0.00    +0.000 A 
ATOM     22  N   UNL     1      46.139   1.484   8.193  0.00  0.00    +0.000 NA
ATOM     23  C   UNL     1      46.678   2.334   7.276  0.00  0.00    +0.000 A 
ATOM     24  C   UNL     1      46.386   3.691   7.254  0.00  0.00    +0.000 A 
ATOM     25  N   UNL     1      45.543   4.279   8.149  0.00  0.00    +0.000 NA
BRANCH  23  26
ATOM     26  C   UNL     1      47.631   1.772   6.272  0.00  0.00    +0.000 C 
ATOM     27  N   UNL     1      48.823   2.426   6.132  0.00  0.00    +0.000 N 
ATOM     28  O   UNL     1      47.360   0.779   5.609  0.00  0.00    +0.000 OA
ATOM     29  H   UNL     1      49.024   3.257   6.680  0.00  0.00    +0.000 HD
ATOM     30  H   UNL     1      49.494   2.090   5.453  0.00  0.00    +0.000 HD
ENDBRANCH  23  26
ENDBRANCH  19  20
ENDBRANCH  18  19
ENDBRANCH   1  18
TORSDOF 7
ENDMDL
MODEL 4
REMARK VINA RESULT:    -7.708      2.396      3.152
REMARK INTER + INTRA:         -12.036
REMARK INTER:                 -10.534
REMARK INTRA:                  -1.501
REMARK UNBOUND:                -1.173
REMARK  Name = 
REMARK  8 active torsions:
REMARK  status: ('A' for Active; 'I' for Inactive)
REMARK    1  A    between atoms: C_1  and  C_2
REMARK    2  A    between atoms: C_2  and  O_3
REMARK    3  A    between atoms: C_2  and  C_13
REMARK    4  A    between atoms: O_3  and  C_4
REMARK    5  A    between atoms: C_7  and  C_8
REMARK    6  A    between atoms: C_17  and  C_18
REMARK    7  A    between atoms: C_23  and  O_24
REMARK    8  A    between atoms: O_24  and  C_25
REMARK                            x       y       z     vdW  Elec       q    Type
REMARK                         _______ _______ _______ _____ _____    ______ ____
ROOT
ATOM      1  C   UNL     1      45.362   6.089  11.774  0.00  0.00    +0.000 A 
ATOM      2  C   UNL     1      44.506   7.177  11.614  0.00  0.00    +0.000 A 
ATOM      3  C   UNL     1      44.998   8.467  11.788  0.00  0.00    +0.000 A 
ATOM      4  C   UNL     1      46.351   8.674  12.092  0.00  0.00    +0.000 A 
ATOM      5  C   UNL     1      47.244   7.603  12.275  0.00  0.00    +0.000 A 
ATOM      6  C   UNL     1      46.696   6.308  12.138  0.00  0.00    +0.000 A 
ENDROOT
BRANCH   5   7
ATOM      7  C   UNL     1      48.716   7.794  12.485  0.00  0.00    +0.000 A 
ATOM      8  C   UNL     1      49.551   7.885  11.343  0.00  0.00    +0.000 A 
ATOM      9  C   UNL     1      50.920   8.136  11.425  0.00  0.00    +0.000 A 
ATOM     10  C   UNL     1      51.502   8.350  12.661  0.00  0.00    +0.000 A 
ATOM     11  C   UNL     1      50.721   8.262  13.811  0.00  0.00    +0.000 A 
ATOM     12  C   UNL     1      49.351   7.941  13.744  0.00  0.00    +0.000 A 
BRANCH  12  13
ATOM     13  O   UNL     1      48.593   7.785  14.879  0.00  0.00    +0.000 OA
BRANCH  13  14
ATOM     14  C   UNL     1      48.815   6.594  15.621  0.00  0.00    +0.000 C 
ATOM     15  F   UNL     1      48.425   6.794  16.906  0.00  0.00    +0.000 F 
ATOM     16  F   UNL     1      47.994   5.637  15.119  0.00  0.00    +0.000 F 
ENDBRANCH  13  14
ENDBRANCH  12  13
ENDBRANCH   5   7
BRANCH   1  18
ATOM     17  C   UNL     1      44.317   3.943  12.617  0.00  0.00    +0.000 C 
ATOM     18  C   UNL     1      44.931   4.715  11.495  0.00  0.00    +0.000 C 
BRANCH  18  19
ATOM     19  O   UNL     1      44.373   4.570  10.230  0.00  0.00    +0.000 OA
BRANCH  19  20
ATOM     20  C   UNL     1      45.134   3.939   9.258  0.00  0.00    +0.000 A 
ATOM     21  C   UNL     1      45.191   2.544   9.295  0.00  0.00    +0.000 A 
ATOM     22  N   UNL     1      45.941   1.804   8.433  0.00  0.00    +0.000 NA
ATOM     23  C   UNL     1      46.643   2.539   7.526  0.00  0.00    +0.000 A 
ATOM     24  C   UNL     1      46.585   3.926   7.484  0.00  0.00    +0.000 A 
ATOM     25  N   UNL     1      45.828   4.659   8.347  0.00  0.00    +0.000 NA
BRANCH  23  26
ATOM     26  C   UNL     1      47.517   1.810   6.557  0.00  0.00    +0.000 C 
ATOM     27  N   UNL     1      48.652   2.458   6.157  0.00  0.00    +0.000 N 
ATOM     28  O   UNL     1      47.232   0.694   6.143  0.00  0.00    +0.000 OA
ATOM     29  H   UNL     1      48.864   3.390   6.499  0.00  0.00    +0.000 HD
ATOM     30  H   UNL     1      49.267   2.010   5.489  0.00  0.00    +0.000 HD
ENDBRANCH  23  26
ENDBRANCH  19  20
ENDBRANCH  18  19
ENDBRANCH   1  18
TORSDOF 7
ENDMDL
MODEL 5
REMARK VINA RESULT:    -7.448      3.011      3.936
REMARK INTER + INTRA:         -11.669
REMARK INTER:                 -10.583
REMARK INTRA:                  -1.086
REMARK UNBOUND:                -1.173
REMARK  Name = 
REMARK  8 active torsions:
REMARK  status: ('A' for Active; 'I' for Inactive)
REMARK    1  A    between atoms: C_1  and  C_2
REMARK    2  A    between atoms: C_2  and  O_3
REMARK    3  A    between atoms: C_2  and  C_13
REMARK    4  A    between atoms: O_3  and  C_4
REMARK    5  A    between atoms: C_7  and  C_8
REMARK    6  A    between atoms: C_17  and  C_18
REMARK    7  A    between atoms: C_23  and  O_24
REMARK    8  A    between atoms: O_24  and  C_25
REMARK                            x       y       z     vdW  Elec       q    Type
REMARK                         _______ _______ _______ _____ _____    ______ ____
ROOT
ATOM      1  C   UNL     1      44.976   5.537  12.090  0.00  0.00    +0.000 A 
ATOM      2  C   UNL     1      44.487   6.724  11.546  0.00  0.00    +0.000 A 
ATOM      3  C   UNL     1      45.104   7.930  11.867  0.00  0.00    +0.000 A 
ATOM      4  C   UNL     1      46.226   7.949  12.707  0.00  0.00    +0.000 A 
ATOM      5  C   UNL     1      46.742   6.776  13.287  0.00  0.00    +0.000 A 
ATOM      6  C   UNL     1      46.059   5.578  12.975  0.00  0.00    +0.000 A 
ENDROOT
BRANCH   5   7
ATOM      7  C   UNL     1      48.005   6.750  14.092  0.00  0.00    +0.000 A 
ATOM      8  C   UNL     1      49.077   7.586  13.687  0.00  0.00    +0.000 A 
ATOM      9  C   UNL     1      50.266   7.693  14.407  0.00  0.00    +0.000 A 
ATOM     10  C   UNL     1      50.412   6.995  15.592  0.00  0.00    +0.000 A 
ATOM     11  C   UNL     1      49.389   6.155  16.024  0.00  0.00    +0.000 A 
ATOM     12  C   UNL     1      48.211   5.987  15.269  0.00  0.00    +0.000 A 
BRANCH  12  13
ATOM     13  O   UNL     1      47.229   5.108  15.656  0.00  0.00    +0.000 OA
BRANCH  13  14
ATOM     14  C   UNL     1      47.654   3.786  15.956  0.00  0.00    +0.000 C 
ATOM     15  F   UNL     1      46.872   3.282  16.945  0.00  0.00    +0.000 F 
ATOM     16  F   UNL     1      47.423   3.020  14.860  0.00  0.00    +0.000 F 
ENDBRANCH  13  14
ENDBRANCH  12  13
ENDBRANCH   5   7
BRANCH   1  18
ATOM     17  C   UNL     1      43.603   3.501  12.702  0.00  0.00    +0.000 C 
ATOM     18  C   UNL     1      44.440   4.228  11.701  0.00  0.00    +0.000 C 
BRANCH  18  19
ATOM     19  O   UNL     1      44.045   4.179  10.369  0.00  0.00    +0.000 OA
BRANCH  19  20
ATOM     20  C   UNL     1      44.951   3.681   9.446  0.00  0.00    +0.000 A 
ATOM     21  C   UNL     1      45.596   4.604   8.621  0.00  0.00    +0.000 A 
ATOM     22  N   UNL     1      46.468   4.247   7.638  0.00  0.00    +0.000 NA
ATOM     23  C   UNL     1      46.660   2.904   7.520  0.00  0.00    +0.000 A 
ATOM     24  C   UNL     1      46.023   1.983   8.341  0.00  0.00    +0.000 A 
ATOM     25  N   UNL     1      45.155   2.350   9.325  0.00  0.00    +0.000 NA
BRANCH  23  26
ATOM     26  C   UNL     1      47.581   2.418   6.448  0.00  0.00    +0.000 C 
ATOM     27  N   UNL     1      47.358   2.903   5.189  0.00  0.00    +0.000 N 
ATOM     28  O   UNL     1      48.486   1.628   6.682  0.00  0.00    +0.000 OA
ATOM     29  H   UNL     1      46.592   3.545   5.010  0.00  0.00    +0.000 HD
ATOM     30  H   UNL     1      47.946   2.589   4.428  0.00  0.00    +0.000 HD
ENDBRANCH  23  26
ENDBRANCH  19  20
ENDBRANCH  18  19
ENDBRANCH   1  18
TORSDOF 7
ENDMDL
MODEL 6
REMARK VINA RESULT:    -6.954      5.229      7.634
REMARK INTER + INTRA:         -10.973
REMARK INTER:                 -10.320
REMARK INTRA:                  -0.653
REMARK UNBOUND:                -1.173
REMARK  Name = 
REMARK  8 active torsions:
REMARK  status: ('A' for Active; 'I' for Inactive)
REMARK    1  A    between atoms: C_1  and  C_2
REMARK    2  A    between atoms: C_2  and  O_3
REMARK    3  A    between atoms: C_2  and  C_13
REMARK    4  A    between atoms: O_3  and  C_4
REMARK    5  A    between atoms: C_7  and  C_8
REMARK    6  A    between atoms: C_17  and  C_18
REMARK    7  A    between atoms: C_23  and  O_24
REMARK    8  A    between atoms: O_24  and  C_25
REMARK                            x       y       z     vdW  Elec       q    Type
REMARK                         _______ _______ _______ _____ _____    ______ ____
ROOT
ATOM      1  C   UNL     1      48.399   6.549  14.352  0.00  0.00    +0.000 A 
ATOM      2  C   UNL     1      49.168   7.287  13.454  0.00  0.00    +0.000 A 
ATOM      3  C   UNL     1      48.727   7.443  12.143  0.00  0.00    +0.000 A 
ATOM      4  C   UNL     1      47.506   6.888  11.735  0.00  0.00    +0.000 A 
ATOM      5  C   UNL     1      46.708   6.125  12.606  0.00  0.00    +0.000 A 
ATOM      6  C   UNL     1      47.213   5.948  13.915  0.00  0.00    +0.000 A 
ENDROOT
BRANCH   5   7
ATOM      7  C   UNL     1      45.347   5.619  12.235  0.00  0.00    +0.000 A 
ATOM      8  C   UNL     1      44.400   5.418  13.271  0.00  0.00    +0.000 A 
ATOM      9  C   UNL     1      43.086   5.021  13.028  0.00  0.00    +0.000 A 
ATOM     10  C   UNL     1      42.654   4.851  11.725  0.00  0.00    +0.000 A 
ATOM     11  C   UNL     1      43.552   5.029  10.676  0.00  0.00    +0.000 A 
ATOM     12  C   UNL     1      44.900   5.363  10.914  0.00  0.00    +0.000 A 
BRANCH  12  13
ATOM     13  O   UNL     1      45.806   5.472   9.887  0.00  0.00    +0.000 OA
BRANCH  13  14
ATOM     14  C   UNL     1      45.614   4.594   8.787  0.00  0.00    +0.000 C 
ATOM     15  F   UNL     1      46.683   4.685   7.955  0.00  0.00    +0.000 F 
ATOM     16  F   UNL     1      45.614   3.325   9.269  0.00  0.00    +0.000 F 
ENDBRANCH  13  14
ENDBRANCH  12  13
ENDBRANCH   5   7
BRANCH   1  18
ATOM     17  C   UNL     1      48.798   7.708  16.567  0.00  0.00    +0.000 C 
ATOM     18  C   UNL     1      48.753   6.444  15.772  0.00  0.00    +0.000 C 
BRANCH  18  19
ATOM     19  O   UNL     1      48.216   5.315  16.381  0.00  0.00    +0.000 OA
BRANCH  19  20
ATOM     20  C   UNL     1      49.083   4.287  16.714  0.00  0.00    +0.000 A 
ATOM     21  C   UNL     1      50.271   4.636  17.359  0.00  0.00    +0.000 A 
ATOM     22  N   UNL     1      51.232   3.731  17.695  0.00  0.00    +0.000 NA
ATOM     23  C   UNL     1      50.942   2.448  17.344  0.00  0.00    +0.000 A 
ATOM     24  C   UNL     1      49.760   2.097  16.706  0.00  0.00    +0.000 A 
ATOM     25  N   UNL     1      48.801   3.008  16.378  0.00  0.00    +0.000 NA
BRANCH  23  26
ATOM     26  C   UNL     1      51.954   1.391  17.649  0.00  0.00    +0.000 C 
ATOM     27  N   UNL     1      51.473   0.219  18.163  0.00  0.00    +0.000 N 
ATOM     28  O   UNL     1      53.149   1.564  17.450  0.00  0.00    +0.000 OA
ATOM     29  H   UNL     1      50.479   0.099  18.336  0.00  0.00    +0.000 HD
ATOM     30  H   UNL     1      52.122  -0.520  18.400  0.00  0.00    +0.000 HD
ENDBRANCH  23  26
ENDBRANCH  19  20
ENDBRANCH  18  19
ENDBRANCH   1  18
TORSDOF 7
ENDMDL
MODEL 7
REMARK VINA RESULT:    -6.802      4.432      7.860
REMARK INTER + INTRA:         -10.759
REMARK INTER:                  -9.562
REMARK INTRA:                  -1.197
REMARK UNBOUND:                -1.173
REMARK  Name = 
REMARK  8 active torsions:
REMARK  status: ('A' for Active; 'I' for Inactive)
REMARK    1  A    between atoms: C_1  and  C_2
REMARK    2  A    between atoms: C_2  and  O_3
REMARK    3  A    between atoms: C_2  and  C_13
REMARK    4  A    between atoms: O_3  and  C_4
REMARK    5  A    between atoms: C_7  and  C_8
REMARK    6  A    between atoms: C_17  and  C_18
REMARK    7  A    between atoms: C_23  and  O_24
REMARK    8  A    between atoms: O_24  and  C_25
REMARK                            x       y       z     vdW  Elec       q    Type
REMARK                         _______ _______ _______ _____ _____    ______ ____
ROOT
ATOM      1  C   UNL     1      47.636   7.895  12.209  0.00  0.00    +0.000 A 
ATOM      2  C   UNL     1      46.904   9.081  12.195  0.00  0.00    +0.000 A 
ATOM      3  C   UNL     1      45.537   9.038  11.937  0.00  0.00    +0.000 A 
ATOM      4  C   UNL     1      44.894   7.811  11.722  0.00  0.00    +0.000 A 
ATOM      5  C   UNL     1      45.599   6.594  11.714  0.00  0.00    +0.000 A 
ATOM      6  C   UNL     1      46.993   6.683  11.932  0.00  0.00    +0.000 A 
ENDROOT
BRANCH   5   7
ATOM      7  C   UNL     1      44.925   5.260  11.604  0.00  0.00    +0.000 A 
ATOM      8  C   UNL     1      44.312   4.719  12.762  0.00  0.00    +0.000 A 
ATOM      9  C   UNL     1      43.596   3.523  12.751  0.00  0.00    +0.000 A 
ATOM     10  C   UNL     1      43.428   2.839  11.561  0.00  0.00    +0.000 A 
ATOM     11  C   UNL     1      44.019   3.329  10.399  0.00  0.00    +0.000 A 
ATOM     12  C   UNL     1      44.802   4.500  10.413  0.00  0.00    +0.000 A 
BRANCH  12  13
ATOM     13  O   UNL     1      45.444   4.950   9.284  0.00  0.00    +0.000 OA
BRANCH  13  14
ATOM     14  C   UNL     1      45.821   3.956   8.341  0.00  0.00    +0.000 C 
ATOM     15  F   UNL     1      44.830   3.819   7.423  0.00  0.00    +0.000 F 
ATOM     16  F   UNL     1      46.904   4.418   7.667  0.00  0.00    +0.000 F 
ENDBRANCH  13  14
ENDBRANCH  12  13
ENDBRANCH   5   7
BRANCH   1  18
ATOM     17  C   UNL     1      50.061   7.930  11.484  0.00  0.00    +0.000 C 
ATOM     18  C   UNL     1      49.053   7.863  12.585  0.00  0.00    +0.000 C 
BRANCH  18  19
ATOM     19  O   UNL     1      49.320   8.574  13.750  0.00  0.00    +0.000 OA
BRANCH  19  20
ATOM     20  C   UNL     1      49.074   7.945  14.960  0.00  0.00    +0.000 A 
ATOM     21  C   UNL     1      49.130   6.550  14.979  0.00  0.00    +0.000 A 
ATOM     22  N   UNL     1      48.859   5.807  16.087  0.00  0.00    +0.000 NA
ATOM     23  C   UNL     1      48.521   6.539  17.185  0.00  0.00    +0.000 A 
ATOM     24  C   UNL     1      48.469   7.926  17.171  0.00  0.00    +0.000 A 
ATOM     25  N   UNL     1      48.746   8.663  16.058  0.00  0.00    +0.000 NA
BRANCH  23  26
ATOM     26  C   UNL     1      48.180   5.804  18.441  0.00  0.00    +0.000 C 
ATOM     27  N   UNL     1      46.867   5.460  18.606  0.00  0.00    +0.000 N 
ATOM     28  O   UNL     1      49.028   5.526  19.278  0.00  0.00    +0.000 OA
ATOM     29  H   UNL     1      46.174   5.713  17.908  0.00  0.00    +0.000 HD
ATOM     30  H   UNL     1      46.586   4.975  19.449  0.00  0.00    +0.000 HD
ENDBRANCH  23  26
ENDBRANCH  19  20
ENDBRANCH  18  19
ENDBRANCH   1  18
TORSDOF 7
ENDMDL
MODEL 8
REMARK VINA RESULT:    -6.734      4.530      6.457
REMARK INTER + INTRA:         -10.663
REMARK INTER:                  -9.244
REMARK INTRA:                  -1.419
REMARK UNBOUND:                -1.173
REMARK  Name = 
REMARK  8 active torsions:
REMARK  status: ('A' for Active; 'I' for Inactive)
REMARK    1  A    between atoms: C_1  and  C_2
REMARK    2  A    between atoms: C_2  and  O_3
REMARK    3  A    between atoms: C_2  and  C_13
REMARK    4  A    between atoms: O_3  and  C_4
REMARK    5  A    between atoms: C_7  and  C_8
REMARK    6  A    between atoms: C_17  and  C_18
REMARK    7  A    between atoms: C_23  and  O_24
REMARK    8  A    between atoms: O_24  and  C_25
REMARK                            x       y       z     vdW  Elec       q    Type
REMARK                         _______ _______ _______ _____ _____    ______ ____
ROOT
ATOM      1  C   UNL     1      48.226   7.955  14.587  0.00  0.00    +0.000 A 
ATOM      2  C   UNL     1      48.067   9.119  15.336  0.00  0.00    +0.000 A 
ATOM      3  C   UNL     1      48.549   9.165  16.641  0.00  0.00    +0.000 A 
ATOM      4  C   UNL     1      49.215   8.060  17.190  0.00  0.00    +0.000 A 
ATOM      5  C   UNL     1      49.384   6.862  16.472  0.00  0.00    +0.000 A 
ATOM      6  C   UNL     1      48.839   6.838  15.168  0.00  0.00    +0.000 A 
ENDROOT
BRANCH   5   7
ATOM      7  C   UNL     1      50.190   5.708  16.986  0.00  0.00    +0.000 A 
ATOM      8  C   UNL     1      51.603   5.820  16.977  0.00  0.00    +0.000 A 
ATOM      9  C   UNL     1      52.443   4.837  17.499  0.00  0.00    +0.000 A 
ATOM     10  C   UNL     1      51.894   3.717  18.095  0.00  0.00    +0.000 A 
ATOM     11  C   UNL     1      50.511   3.561  18.120  0.00  0.00    +0.000 A 
ATOM     12  C   UNL     1      49.656   4.515  17.534  0.00  0.00    +0.000 A 
BRANCH  12  13
ATOM     13  O   UNL     1      48.294   4.332  17.495  0.00  0.00    +0.000 OA
BRANCH  13  14
ATOM     14  C   UNL     1      47.839   3.157  16.839  0.00  0.00    +0.000 C 
ATOM     15  F   UNL     1      46.867   2.578  17.590  0.00  0.00    +0.000 F 
ATOM     16  F   UNL     1      47.248   3.536  15.678  0.00  0.00    +0.000 F 
ENDBRANCH  13  14
ENDBRANCH  12  13
ENDBRANCH   5   7
BRANCH   1  18
ATOM     17  C   UNL     1      48.718   7.090  12.259  0.00  0.00    +0.000 C 
ATOM     18  C   UNL     1      47.842   7.884  13.173  0.00  0.00    +0.000 C 
BRANCH  18  19
ATOM     19  O   UNL     1      46.467   7.794  12.990  0.00  0.00    +0.000 OA
BRANCH  19  20
ATOM     20  C   UNL     1      45.953   6.585  12.545  0.00  0.00    +0.000 A 
ATOM     21  C   UNL     1      45.515   6.525  11.221  0.00  0.00    +0.000 A 
ATOM     22  N   UNL     1      44.943   5.417  10.673  0.00  0.00    +0.000 NA
ATOM     23  C   UNL     1      44.827   4.364  11.529  0.00  0.00    +0.000 A 
ATOM     24  C   UNL     1      45.265   4.420  12.846  0.00  0.00    +0.000 A 
ATOM     25  N   UNL     1      45.841   5.531  13.385  0.00  0.00    +0.000 NA
BRANCH  23  26
ATOM     26  C   UNL     1      44.184   3.114  11.022  0.00  0.00    +0.000 C 
ATOM     27  N   UNL     1      44.892   2.400  10.096  0.00  0.00    +0.000 N 
ATOM     28  O   UNL     1      43.084   2.749  11.413  0.00  0.00    +0.000 OA
ATOM     29  H   UNL     1      45.797   2.727   9.771  0.00  0.00    +0.000 HD
ATOM     30  H   UNL     1      44.489   1.555   9.711  0.00  0.00    +0.000 HD
ENDBRANCH  23  26
ENDBRANCH  19  20
ENDBRANCH  18  19
ENDBRANCH   1  18
TORSDOF 7
ENDMDL
MODEL 9
REMARK VINA RESULT:    -6.649      5.373      7.628
REMARK INTER + INTRA:         -10.542
REMARK INTER:                  -9.079
REMARK INTRA:                  -1.464
REMARK UNBOUND:                -1.173
REMARK  Name = 
REMARK  8 active torsions:
REMARK  status: ('A' for Active; 'I' for Inactive)
REMARK    1  A    between atoms: C_1  and  C_2
REMARK    2  A    between atoms: C_2  and  O_3
REMARK    3  A    between atoms: C_2  and  C_13
REMARK    4  A    between atoms: O_3  and  C_4
REMARK    5  A    between atoms: C_7  and  C_8
REMARK    6  A    between atoms: C_17  and  C_18
REMARK    7  A    between atoms: C_23  and  O_24
REMARK    8  A    between atoms: O_24  and  C_25
REMARK                            x       y       z     vdW  Elec       q    Type
REMARK                         _______ _______ _______ _____ _____    ______ ____
ROOT
ATOM      1  C   UNL     1      48.998   7.246  15.996  0.00  0.00    +0.000 A 
ATOM      2  C   UNL     1      48.866   8.052  17.125  0.00  0.00    +0.000 A 
ATOM      3  C   UNL     1      49.265   7.563  18.366  0.00  0.00    +0.000 A 
ATOM      4  C   UNL     1      49.824   6.282  18.476  0.00  0.00    +0.000 A 
ATOM      5  C   UNL     1      49.962   5.432  17.363  0.00  0.00    +0.000 A 
ATOM      6  C   UNL     1      49.501   5.946  16.130  0.00  0.00    +0.000 A 
ENDROOT
BRANCH   5   7
ATOM      7  C   UNL     1      50.660   4.108  17.428  0.00  0.00    +0.000 A 
ATOM      8  C   UNL     1      51.982   4.070  17.937  0.00  0.00    +0.000 A 
ATOM      9  C   UNL     1      52.693   2.882  18.108  0.00  0.00    +0.000 A 
ATOM     10  C   UNL     1      52.085   1.675  17.816  0.00  0.00    +0.000 A 
ATOM     11  C   UNL     1      50.790   1.665  17.306  0.00  0.00    +0.000 A 
ATOM     12  C   UNL     1      50.089   2.862  17.064  0.00  0.00    +0.000 A 
BRANCH  12  13
ATOM     13  O   UNL     1      48.837   2.860  16.496  0.00  0.00    +0.000 OA
BRANCH  13  14
ATOM     14  C   UNL     1      47.741   2.793  17.398  0.00  0.00    +0.000 C 
ATOM     15  F   UNL     1      48.204   2.926  18.668  0.00  0.00    +0.000 F 
ATOM     16  F   UNL     1      46.951   3.872  17.166  0.00  0.00    +0.000 F 
ENDBRANCH  13  14
ENDBRANCH  12  13
ENDBRANCH   5   7
BRANCH   1  18
ATOM     17  C   UNL     1      49.424   8.969  14.191  0.00  0.00    +0.000 C 
ATOM     18  C   UNL     1      48.701   7.744  14.649  0.00  0.00    +0.000 C 
BRANCH  18  19
ATOM     19  O   UNL     1      48.509   6.724  13.725  0.00  0.00    +0.000 OA
BRANCH  19  20
ATOM     20  C   UNL     1      47.219   6.250  13.545  0.00  0.00    +0.000 A 
ATOM     21  C   UNL     1      46.982   4.908  13.848  0.00  0.00    +0.000 A 
ATOM     22  N   UNL     1      45.775   4.303  13.669  0.00  0.00    +0.000 NA
ATOM     23  C   UNL     1      44.809   5.118  13.161  0.00  0.00    +0.000 A 
ATOM     24  C   UNL     1      45.040   6.454  12.862  0.00  0.00    +0.000 A 
ATOM     25  N   UNL     1      46.250   7.053  13.049  0.00  0.00    +0.000 NA
BRANCH  23  26
ATOM     26  C   UNL     1      43.459   4.531  12.904  0.00  0.00    +0.000 C 
ATOM     27  N   UNL     1      42.502   5.389  12.440  0.00  0.00    +0.000 N 
ATOM     28  O   UNL     1      43.222   3.346  13.099  0.00  0.00    +0.000 OA
ATOM     29  H   UNL     1      42.713   6.372  12.299  0.00  0.00    +0.000 HD
ATOM     30  H   UNL     1      41.568   5.040  12.267  0.00  0.00    +0.000 HD
ENDBRANCH  23  26
ENDBRANCH  19  20
ENDBRANCH  18  19
ENDBRANCH   1  18
TORSDOF 7
ENDMDL
