MODEL 1
REMARK VINA RESULT:    -8.157      0.000      0.000
REMARK INTER + INTRA:         -11.942
REMARK INTER:                 -11.018
REMARK INTRA:                  -0.924
REMARK UNBOUND:                -0.924
REMARK  Name = 
REMARK  7 active torsions:
REMARK  status: ('A' for Active; 'I' for Inactive)
REMARK    1  A    between atoms: C_1  and  N_2
REMARK    2  A    between atoms: N_5  and  C_6
REMARK    3  A    between atoms: C_10  and  C_11
REMARK    4  A    between atoms: C_11  and  C_12
REMARK    5  A    between atoms: C_12  and  O_13
REMARK    6  A    between atoms: O_13  and  C_14
REMARK    7  A    between atoms: C_17  and  C_18
REMARK                            x       y       z     vdW  Elec       q    Type
REMARK                         _______ _______ _______ _____ _____    ______ ____
ROOT
ATOM      1  C   UNL     1      43.783   4.417  12.239  0.00  0.00    +0.000 C 
ENDROOT
BRANCH   1   6
ATOM      2  C   UNL     1      47.030   5.473  14.068  0.00  0.00    +0.000 A 
ATOM      3  C   UNL     1      47.618   6.234  13.053  0.00  0.00    +0.000 A 
ATOM      4  C   UNL     1      46.991   6.416  11.814  0.00  0.00    +0.000 A 
ATOM      5  C   UNL     1      45.753   5.831  11.558  0.00  0.00    +0.000 A 
ATOM      6  C   UNL     1      45.120   5.070  12.542  0.00  0.00    +0.000 A 
ATOM      7  C   UNL     1      45.770   4.926  13.785  0.00  0.00    +0.000 A 
BRANCH   2  12
ATOM      8  C   UNL     1      48.163   5.404  19.484  0.00  0.00    +0.000 C 
ATOM      9  N   UNL     1      48.402   5.093  18.077  0.00  0.00    +0.000 NA
ATOM     10  C   UNL     1      47.285   4.297  17.518  0.00  0.00    +0.000 C 
ATOM     11  C   UNL     1      47.487   3.974  16.020  0.00  0.00    +0.000 C 
ATOM     12  N   UNL     1      47.671   5.222  15.264  0.00  0.00    +0.000 N 
ATOM     13  C   UNL     1      48.756   6.074  15.780  0.00  0.00    +0.000 C 
ATOM     14  C   UNL     1      48.547   6.338  17.290  0.00  0.00    +0.000 C 
ENDBRANCH   2  12
ENDBRANCH   1   6
BRANCH   1  15
ATOM     15  C   UNL     1      43.885   3.153  11.382  0.00  0.00    +0.000 C 
BRANCH  15  16
ATOM     16  O   UNL     1      43.569   3.401  10.012  0.00  0.00    +0.000 OA
BRANCH  16  17
ATOM     17  C   UNL     1      44.595   3.130   9.135  0.00  0.00    +0.000 A 
ATOM     18  C   UNL     1      45.235   4.068   8.317  0.00  0.00    +0.000 A 
ATOM     19  C   UNL     1      46.271   3.680   7.465  0.00  0.00    +0.000 A 
ATOM     20  C   UNL     1      46.689   2.347   7.428  0.00  0.00    +0.000 A 
ATOM     21  C   UNL     1      46.045   1.401   8.233  0.00  0.00    +0.000 A 
ATOM     22  C   UNL     1      45.002   1.795   9.082  0.00  0.00    +0.000 A 
BRANCH  20  23
ATOM     23  C   UNL     1      47.803   1.998   6.508  0.00  0.00    +0.000 C 
ATOM     24  N   UNL     1      48.824   2.899   6.387  0.00  0.00    +0.000 N 
ATOM     25  O   UNL     1      47.792   0.967   5.848  0.00  0.00    +0.000 OA
ATOM     26  H   UNL     1      48.748   3.851   6.713  0.00  0.00    +0.000 HD
ATOM     27  H   UNL     1      49.504   2.701   5.665  0.00  0.00    +0.000 HD
ENDBRANCH  20  23
ENDBRANCH  16  17
ENDBRANCH  15  16
ENDBRANCH   1  15
TORSDOF 6
ENDMDL
MODEL 2
REMARK VINA RESULT:    -7.247      3.588      5.560
REMARK INTER + INTRA:         -10.712
REMARK INTER:                 -10.060
REMARK INTRA:                  -0.652
REMARK UNBOUND:                -0.924
REMARK  Name = 
REMARK  7 active torsions:
REMARK  status: ('A' for Active; 'I' for Inactive)
REMARK    1  A    between atoms: C_1  and  N_2
REMARK    2  A    between atoms: N_5  and  C_6
REMARK    3  A    between atoms: C_10  and  C_11
REMARK    4  A    between atoms: C_11  and  C_12
REMARK    5  A    between atoms: C_12  and  O_13
REMARK    6  A    between atoms: O_13  and  C_14
REMARK    7  A    between atoms: C_17  and  C_18
REMARK                            x       y       z     vdW  Elec       q    Type
REMARK                         _______ _______ _______ _____ _____    ______ ____
ROOT
ATOM      1  C   UNL     1      45.372   4.614  11.645  0.00  0.00    +0.000 C 
ENDROOT
BRANCH   1   6
ATOM      2  C   UNL     1      45.413   8.480  11.890  0.00  0.00    +0.000 A 
ATOM      3  C   UNL     1      46.490   8.634  12.769  0.00  0.00    +0.000 A 
ATOM      4  C   UNL     1      47.196   7.532  13.267  0.00  0.00    +0.000 A 
ATOM      5  C   UNL     1      46.834   6.237  12.899  0.00  0.00    +0.000 A 
ATOM      6  C   UNL     1      45.772   6.031  12.016  0.00  0.00    +0.000 A 
ATOM      7  C   UNL     1      45.098   7.165  11.518  0.00  0.00    +0.000 A 
BRANCH   2  12
ATOM      8  C   UNL     1      43.460  12.536   8.674  0.00  0.00    +0.000 C 
ATOM      9  N   UNL     1      43.524  11.720   9.882  0.00  0.00    +0.000 NA
ATOM     10  C   UNL     1      43.253  10.297   9.570  0.00  0.00    +0.000 C 
ATOM     11  C   UNL     1      43.343   9.395  10.823  0.00  0.00    +0.000 C 
ATOM     12  N   UNL     1      44.662   9.551  11.454  0.00  0.00    +0.000 N 
ATOM     13  C   UNL     1      45.006  10.947  11.773  0.00  0.00    +0.000 C 
ATOM     14  C   UNL     1      44.860  11.829  10.510  0.00  0.00    +0.000 C 
ENDBRANCH   2  12
ENDBRANCH   1   6
BRANCH   1  15
ATOM     15  C   UNL     1      43.879   4.442  11.354  0.00  0.00    +0.000 C 
BRANCH  15  16
ATOM     16  O   UNL     1      43.603   4.380   9.954  0.00  0.00    +0.000 OA
BRANCH  16  17
ATOM     17  C   UNL     1      44.522   3.659   9.227  0.00  0.00    +0.000 A 
ATOM     18  C   UNL     1      44.706   2.273   9.293  0.00  0.00    +0.000 A 
ATOM     19  C   UNL     1      45.671   1.645   8.502  0.00  0.00    +0.000 A 
ATOM     20  C   UNL     1      46.459   2.395   7.625  0.00  0.00    +0.000 A 
ATOM     21  C   UNL     1      46.291   3.783   7.564  0.00  0.00    +0.000 A 
ATOM     22  C   UNL     1      45.324   4.409   8.363  0.00  0.00    +0.000 A 
BRANCH  20  23
ATOM     23  C   UNL     1      47.462   1.668   6.804  0.00  0.00    +0.000 C 
ATOM     24  N   UNL     1      48.584   2.354   6.432  0.00  0.00    +0.000 N 
ATOM     25  O   UNL     1      47.278   0.516   6.435  0.00  0.00    +0.000 OA
ATOM     26  H   UNL     1      48.654   3.359   6.501  0.00  0.00    +0.000 HD
ATOM     27  H   UNL     1      49.191   1.885   5.772  0.00  0.00    +0.000 HD
ENDBRANCH  20  23
ENDBRANCH  16  17
ENDBRANCH  15  16
ENDBRANCH   1  15
TORSDOF 6
ENDMDL
MODEL 3
REMARK VINA RESULT:    -7.013      2.820      8.476
REMARK INTER + INTRA:         -10.397
REMARK INTER:                  -9.552
REMARK INTRA:                  -0.845
REMARK UNBOUND:                -0.924
REMARK  Name = 
REMARK  7 active torsions:
REMARK  status: ('A' for Active; 'I' for Inactive)
REMARK    1  A    between atoms: C_1  and  N_2
REMARK    2  A    between atoms: N_5  and  C_6
REMARK    3  A    between atoms: C_10  and  C_11
REMARK    4  A    between atoms: C_11  and  C_12
REMARK    5  A    between atoms: C_12  and  O_13
REMARK    6  A    between atoms: O_13  and  C_14
REMARK    7  A    between atoms: C_17  and  C_18
REMARK                            x       y       z     vdW  Elec       q    Type
REMARK                         _______ _______ _______ _____ _____    ______ ____
ROOT
ATOM      1  C   UNL     1      45.089   6.915  12.551  0.00  0.00    +0.000 C 
ENDROOT
BRANCH   1   6
ATOM      2  C   UNL     1      44.572   3.728  10.408  0.00  0.00    +0.000 A 
ATOM      3  C   UNL     1      43.816   2.975  11.311  0.00  0.00    +0.000 A 
ATOM      4  C   UNL     1      43.469   3.472  12.573  0.00  0.00    +0.000 A 
ATOM      5  C   UNL     1      43.878   4.745  12.967  0.00  0.00    +0.000 A 
ATOM      6  C   UNL     1      44.627   5.541  12.098  0.00  0.00    +0.000 A 
ATOM      7  C   UNL     1      44.939   5.016  10.827  0.00  0.00    +0.000 A 
BRANCH   2  12
ATOM      8  C   UNL     1      47.846   1.789   6.391  0.00  0.00    +0.000 C 
ATOM      9  N   UNL     1      46.572   2.181   6.987  0.00  0.00    +0.000 NA
ATOM     10  C   UNL     1      46.291   1.378   8.200  0.00  0.00    +0.000 C 
ATOM     11  C   UNL     1      44.963   1.786   8.879  0.00  0.00    +0.000 C 
ATOM     12  N   UNL     1      44.987   3.222   9.194  0.00  0.00    +0.000 N 
ATOM     13  C   UNL     1      45.281   4.080   8.033  0.00  0.00    +0.000 C 
ATOM     14  C   UNL     1      46.590   3.615   7.352  0.00  0.00    +0.000 C 
ENDBRANCH   2  12
ENDBRANCH   1   6
BRANCH   1  15
ATOM     15  C   UNL     1      46.546   6.961  13.018  0.00  0.00    +0.000 C 
BRANCH  15  16
ATOM     16  O   UNL     1      47.090   5.658  13.228  0.00  0.00    +0.000 OA
BRANCH  16  17
ATOM     17  C   UNL     1      47.526   5.426  14.512  0.00  0.00    +0.000 A 
ATOM     18  C   UNL     1      48.378   6.259  15.246  0.00  0.00    +0.000 A 
ATOM     19  C   UNL     1      48.754   5.923  16.549  0.00  0.00    +0.000 A 
ATOM     20  C   UNL     1      48.271   4.752  17.140  0.00  0.00    +0.000 A 
ATOM     21  C   UNL     1      47.430   3.907  16.407  0.00  0.00    +0.000 A 
ATOM     22  C   UNL     1      47.061   4.246  15.099  0.00  0.00    +0.000 A 
BRANCH  20  23
ATOM     23  C   UNL     1      48.700   4.454  18.531  0.00  0.00    +0.000 C 
ATOM     24  N   UNL     1      48.286   3.270  19.075  0.00  0.00    +0.000 N 
ATOM     25  O   UNL     1      49.360   5.250  19.186  0.00  0.00    +0.000 OA
ATOM     26  H   UNL     1      47.548   2.715  18.669  0.00  0.00    +0.000 HD
ATOM     27  H   UNL     1      48.480   3.145  20.060  0.00  0.00    +0.000 HD
ENDBRANCH  20  23
ENDBRANCH  16  17
ENDBRANCH  15  16
ENDBRANCH   1  15
TORSDOF 6
ENDMDL
MODEL 4
REMARK VINA RESULT:    -6.995      2.686      3.499
REMARK INTER + INTRA:         -10.372
REMARK INTER:                  -9.715
REMARK INTRA:                  -0.657
REMARK UNBOUND:                -0.924
REMARK  Name = 
REMARK  7 active torsions:
REMARK  status: ('A' for Active; 'I' for Inactive)
REMARK    1  A    between atoms: C_1  and  N_2
REMARK    2  A    between atoms: N_5  and  C_6
REMARK    3  A    between atoms: C_10  and  C_11
REMARK    4  A    between atoms: C_11  and  C_12
REMARK    5  A    between atoms: C_12  and  O_13
REMARK    6  A    between atoms: O_13  and  C_14
REMARK    7  A    between atoms: C_17  and  C_18
REMARK                            x       y       z     vdW  Elec       q    Type
REMARK                         _______ _______ _______ _____ _____    ______ ____
ROOT
ATOM      1  C   UNL     1      44.851   5.115  11.680  0.00  0.00    +0.000 C 
ENDROOT
BRANCH   1   6
ATOM      2  C   UNL     1      47.451   7.900  12.384  0.00  0.00    +0.000 A 
ATOM      3  C   UNL     1      46.635   9.019  12.186  0.00  0.00    +0.000 A 
ATOM      4  C   UNL     1      45.283   8.891  11.845  0.00  0.00    +0.000 A 
ATOM      5  C   UNL     1      44.711   7.631  11.687  0.00  0.00    +0.000 A 
ATOM      6  C   UNL     1      45.481   6.482  11.882  0.00  0.00    +0.000 A 
ATOM      7  C   UNL     1      46.833   6.649  12.246  0.00  0.00    +0.000 A 
BRANCH   2  12
ATOM      8  C   UNL     1      52.252   9.741  14.428  0.00  0.00    +0.000 C 
ATOM      9  N   UNL     1      51.402   8.854  13.638  0.00  0.00    +0.000 NA
ATOM     10  C   UNL     1      50.416   8.164  14.502  0.00  0.00    +0.000 C 
ATOM     11  C   UNL     1      49.477   7.238  13.696  0.00  0.00    +0.000 C 
ATOM     12  N   UNL     1      48.801   8.011  12.643  0.00  0.00    +0.000 N 
ATOM     13  C   UNL     1      49.724   8.741  11.757  0.00  0.00    +0.000 C 
ATOM     14  C   UNL     1      50.679   9.621  12.599  0.00  0.00    +0.000 C 
ENDBRANCH   2  12
ENDBRANCH   1   6
BRANCH   1  15
ATOM     15  C   UNL     1      43.873   5.045  10.504  0.00  0.00    +0.000 C 
BRANCH  15  16
ATOM     16  O   UNL     1      43.632   3.704  10.079  0.00  0.00    +0.000 OA
BRANCH  16  17
ATOM     17  C   UNL     1      44.596   3.193   9.240  0.00  0.00    +0.000 A 
ATOM     18  C   UNL     1      44.985   1.850   9.169  0.00  0.00    +0.000 A 
ATOM     19  C   UNL     1      45.977   1.443   8.274  0.00  0.00    +0.000 A 
ATOM     20  C   UNL     1      46.586   2.374   7.428  0.00  0.00    +0.000 A 
ATOM     21  C   UNL     1      46.214   3.720   7.504  0.00  0.00    +0.000 A 
ATOM     22  C   UNL     1      45.221   4.124   8.407  0.00  0.00    +0.000 A 
BRANCH  20  23
ATOM     23  C   UNL     1      47.628   1.877   6.492  0.00  0.00    +0.000 C 
ATOM     24  N   UNL     1      48.724   2.671   6.295  0.00  0.00    +0.000 N 
ATOM     25  O   UNL     1      47.498   0.823   5.884  0.00  0.00    +0.000 OA
ATOM     26  H   UNL     1      48.750   3.639   6.575  0.00  0.00    +0.000 HD
ATOM     27  H   UNL     1      49.357   2.376   5.562  0.00  0.00    +0.000 HD
ENDBRANCH  20  23
ENDBRANCH  16  17
ENDBRANCH  15  16
ENDBRANCH   1  15
TORSDOF 6
ENDMDL
MODEL 5
REMARK VINA RESULT:    -6.664      3.617      7.943
REMARK INTER + INTRA:          -9.925
REMARK INTER:                  -8.903
REMARK INTRA:                  -1.022
REMARK UNBOUND:                -0.924
REMARK  Name = 
REMARK  7 active torsions:
REMARK  status: ('A' for Active; 'I' for Inactive)
REMARK    1  A    between atoms: C_1  and  N_2
REMARK    2  A    between atoms: N_5  and  C_6
REMARK    3  A    between atoms: C_10  and  C_11
REMARK    4  A    between atoms: C_11  and  C_12
REMARK    5  A    between atoms: C_12  and  O_13
REMARK    6  A    between atoms: O_13  and  C_14
REMARK    7  A    between atoms: C_17  and  C_18
REMARK                            x       y       z     vdW  Elec       q    Type
REMARK                         _______ _______ _______ _____ _____    ______ ____
ROOT
ATOM      1  C   UNL     1      46.528   3.928  13.949  0.00  0.00    +0.000 C 
ENDROOT
BRANCH   1   6
ATOM      2  C   UNL     1      44.834   3.651  10.476  0.00  0.00    +0.000 A 
ATOM      3  C   UNL     1      43.553   4.095  10.819  0.00  0.00    +0.000 A 
ATOM      4  C   UNL     1      43.235   4.483  12.126  0.00  0.00    +0.000 A 
ATOM      5  C   UNL     1      44.199   4.431  13.132  0.00  0.00    +0.000 A 
ATOM      6  C   UNL     1      45.496   4.005  12.838  0.00  0.00    +0.000 A 
ATOM      7  C   UNL     1      45.785   3.642  11.506  0.00  0.00    +0.000 A 
BRANCH   2  12
ATOM      8  C   UNL     1      47.738   1.869   6.116  0.00  0.00    +0.000 C 
ATOM      9  N   UNL     1      46.522   2.238   6.836  0.00  0.00    +0.000 NA
ATOM     10  C   UNL     1      46.344   1.389   8.036  0.00  0.00    +0.000 C 
ATOM     11  C   UNL     1      45.082   1.770   8.843  0.00  0.00    +0.000 C 
ATOM     12  N   UNL     1      45.139   3.193   9.211  0.00  0.00    +0.000 N 
ATOM     13  C   UNL     1      45.336   4.096   8.064  0.00  0.00    +0.000 C 
ATOM     14  C   UNL     1      46.579   3.657   7.254  0.00  0.00    +0.000 C 
ENDBRANCH   2  12
ENDBRANCH   1   6
BRANCH   1  15
ATOM     15  C   UNL     1      47.262   5.245  14.212  0.00  0.00    +0.000 C 
BRANCH  15  16
ATOM     16  O   UNL     1      47.953   5.720  13.057  0.00  0.00    +0.000 OA
BRANCH  16  17
ATOM     17  C   UNL     1      47.668   7.024  12.722  0.00  0.00    +0.000 A 
ATOM     18  C   UNL     1      48.576   7.944  12.183  0.00  0.00    +0.000 A 
ATOM     19  C   UNL     1      48.174   9.245  11.876  0.00  0.00    +0.000 A 
ATOM     20  C   UNL     1      46.852   9.642  12.096  0.00  0.00    +0.000 A 
ATOM     21  C   UNL     1      45.942   8.734  12.648  0.00  0.00    +0.000 A 
ATOM     22  C   UNL     1      46.353   7.430  12.958  0.00  0.00    +0.000 A 
BRANCH  20  23
ATOM     23  C   UNL     1      46.482  11.038  11.741  0.00  0.00    +0.000 C 
ATOM     24  N   UNL     1      45.236  11.468  12.103  0.00  0.00    +0.000 N 
ATOM     25  O   UNL     1      47.240  11.764  11.113  0.00  0.00    +0.000 OA
ATOM     26  H   UNL     1      44.505  10.834  12.391  0.00  0.00    +0.000 HD
ATOM     27  H   UNL     1      44.959  12.372  11.743  0.00  0.00    +0.000 HD
ENDBRANCH  20  23
ENDBRANCH  16  17
ENDBRANCH  15  16
ENDBRANCH   1  15
TORSDOF 6
ENDMDL
MODEL 6
REMARK VINA RESULT:    -6.458      2.438      3.925
REMARK INTER + INTRA:          -9.647
REMARK INTER:                  -8.981
REMARK INTRA:                  -0.666
REMARK UNBOUND:                -0.924
REMARK  Name = 
REMARK  7 active torsions:
REMARK  status: ('A' for Active; 'I' for Inactive)
REMARK    1  A    between atoms: C_1  and  N_2
REMARK    2  A    between atoms: N_5  and  C_6
REMARK    3  A    between atoms: C_10  and  C_11
REMARK    4  A    between atoms: C_11  and  C_12
REMARK    5  A    between atoms: C_12  and  O_13
REMARK    6  A    between atoms: O_13  and  C_14
REMARK    7  A    between atoms: C_17  and  C_18
REMARK                            x       y       z     vdW  Elec       q    Type
REMARK                         _______ _______ _______ _____ _____    ______ ____
ROOT
ATOM      1  C   UNL     1      45.142   4.437  12.944  0.00  0.00    +0.000 C 
ENDROOT
BRANCH   1   6
ATOM      2  C   UNL     1      47.982   6.887  13.913  0.00  0.00    +0.000 A 
ATOM      3  C   UNL     1      48.422   6.263  15.085  0.00  0.00    +0.000 A 
ATOM      4  C   UNL     1      47.833   5.082  15.554  0.00  0.00    +0.000 A 
ATOM      5  C   UNL     1      46.779   4.495  14.858  0.00  0.00    +0.000 A 
ATOM      6  C   UNL     1      46.310   5.073  13.677  0.00  0.00    +0.000 A 
ATOM      7  C   UNL     1      46.940   6.250  13.224  0.00  0.00    +0.000 A 
BRANCH   2  12
ATOM      8  C   UNL     1      50.882  10.594  11.003  0.00  0.00    +0.000 C 
ATOM      9  N   UNL     1      49.956  10.160  12.046  0.00  0.00    +0.000 NA
ATOM     10  C   UNL     1      48.786   9.469  11.456  0.00  0.00    +0.000 C 
ATOM     11  C   UNL     1      47.797   8.967  12.533  0.00  0.00    +0.000 C 
ATOM     12  N   UNL     1      48.500   8.091  13.482  0.00  0.00    +0.000 N 
ATOM     13  C   UNL     1      49.689   8.709  14.093  0.00  0.00    +0.000 C 
ATOM     14  C   UNL     1      50.634   9.242  12.989  0.00  0.00    +0.000 C 
ENDBRANCH   2  12
ENDBRANCH   1   6
BRANCH   1  15
ATOM     15  C   UNL     1      44.887   5.019  11.551  0.00  0.00    +0.000 C 
BRANCH  15  16
ATOM     16  O   UNL     1      44.252   4.083  10.681  0.00  0.00    +0.000 OA
BRANCH  16  17
ATOM     17  C   UNL     1      45.003   3.728   9.583  0.00  0.00    +0.000 A 
ATOM     18  C   UNL     1      45.599   4.618   8.682  0.00  0.00    +0.000 A 
ATOM     19  C   UNL     1      46.345   4.144   7.601  0.00  0.00    +0.000 A 
ATOM     20  C   UNL     1      46.514   2.770   7.413  0.00  0.00    +0.000 A 
ATOM     21  C   UNL     1      45.910   1.873   8.301  0.00  0.00    +0.000 A 
ATOM     22  C   UNL     1      45.158   2.355   9.381  0.00  0.00    +0.000 A 
BRANCH  20  23
ATOM     23  C   UNL     1      47.327   2.327   6.250  0.00  0.00    +0.000 C 
ATOM     24  N   UNL     1      48.683   2.470   6.340  0.00  0.00    +0.000 N 
ATOM     25  O   UNL     1      46.807   1.892   5.231  0.00  0.00    +0.000 OA
ATOM     26  H   UNL     1      49.122   3.046   7.044  0.00  0.00    +0.000 HD
ATOM     27  H   UNL     1      49.205   2.283   5.494  0.00  0.00    +0.000 HD
ENDBRANCH  20  23
ENDBRANCH  16  17
ENDBRANCH  15  16
ENDBRANCH   1  15
TORSDOF 6
ENDMDL
MODEL 7
REMARK VINA RESULT:    -6.227      4.192      8.346
REMARK INTER + INTRA:          -9.336
REMARK INTER:                  -8.616
REMARK INTRA:                  -0.719
REMARK UNBOUND:                -0.924
REMARK  Name = 
REMARK  7 active torsions:
REMARK  status: ('A' for Active; 'I' for Inactive)
REMARK    1  A    between atoms: C_1  and  N_2
REMARK    2  A    between atoms: N_5  and  C_6
REMARK    3  A    between atoms: C_10  and  C_11
REMARK    4  A    between atoms: C_11  and  C_12
REMARK    5  A    between atoms: C_12  and  O_13
REMARK    6  A    between atoms: O_13  and  C_14
REMARK    7  A    between atoms: C_17  and  C_18
REMARK                            x       y       z     vdW  Elec       q    Type
REMARK                         _______ _______ _______ _____ _____    ______ ____
ROOT
ATOM      1  C   UNL     1      49.210   6.556  15.250  0.00  0.00    +0.000 C 
ENDROOT
BRANCH   1   6
ATOM      2  C   UNL     1      46.194   6.470  12.820  0.00  0.00    +0.000 A 
ATOM      3  C   UNL     1      45.993   7.846  12.668  0.00  0.00    +0.000 A 
ATOM      4  C   UNL     1      46.806   8.783  13.318  0.00  0.00    +0.000 A 
ATOM      5  C   UNL     1      47.845   8.363  14.146  0.00  0.00    +0.000 A 
ATOM      6  C   UNL     1      48.092   7.000  14.323  0.00  0.00    +0.000 A 
ATOM      7  C   UNL     1      47.267   6.085  13.637  0.00  0.00    +0.000 A 
BRANCH   2  12
ATOM      8  C   UNL     1      44.379   2.292   9.679  0.00  0.00    +0.000 C 
ATOM      9  N   UNL     1      44.248   3.359  10.667  0.00  0.00    +0.000 NA
ATOM     10  C   UNL     1      45.141   3.116  11.824  0.00  0.00    +0.000 C 
ATOM     11  C   UNL     1      45.054   4.242  12.879  0.00  0.00    +0.000 C 
ATOM     12  N   UNL     1      45.354   5.537  12.249  0.00  0.00    +0.000 N 
ATOM     13  C   UNL     1      44.514   5.835  11.077  0.00  0.00    +0.000 C 
ATOM     14  C   UNL     1      44.588   4.668  10.064  0.00  0.00    +0.000 C 
ENDBRANCH   2  12
ENDBRANCH   1   6
BRANCH   1  15
ATOM     15  C   UNL     1      48.920   6.787  16.735  0.00  0.00    +0.000 C 
BRANCH  15  16
ATOM     16  O   UNL     1      48.376   5.628  17.367  0.00  0.00    +0.000 OA
BRANCH  16  17
ATOM     17  C   UNL     1      49.234   4.553  17.414  0.00  0.00    +0.000 A 
ATOM     18  C   UNL     1      48.929   3.249  17.007  0.00  0.00    +0.000 A 
ATOM     19  C   UNL     1      49.883   2.233  17.096  0.00  0.00    +0.000 A 
ATOM     20  C   UNL     1      51.162   2.511  17.585  0.00  0.00    +0.000 A 
ATOM     21  C   UNL     1      51.471   3.809  18.008  0.00  0.00    +0.000 A 
ATOM     22  C   UNL     1      50.508   4.823  17.920  0.00  0.00    +0.000 A 
BRANCH  20  23
ATOM     23  C   UNL     1      52.136   1.390  17.648  0.00  0.00    +0.000 C 
ATOM     24  N   UNL     1      51.681   0.189  18.115  0.00  0.00    +0.000 N 
ATOM     25  O   UNL     1      53.310   1.540  17.337  0.00  0.00    +0.000 OA
ATOM     26  H   UNL     1      50.805   0.095  18.608  0.00  0.00    +0.000 HD
ATOM     27  H   UNL     1      52.385  -0.521  18.268  0.00  0.00    +0.000 HD
ENDBRANCH  20  23
ENDBRANCH  16  17
ENDBRANCH  15  16
ENDBRANCH   1  15
TORSDOF 6
ENDMDL
MODEL 8
REMARK VINA RESULT:    -6.158      3.113      4.945
REMARK INTER + INTRA:          -9.243
REMARK INTER:                  -8.271
REMARK INTRA:                  -0.972
REMARK UNBOUND:                -0.924
REMARK  Name = 
REMARK  7 active torsions:
REMARK  status: ('A' for Active; 'I' for Inactive)
REMARK    1  A    between atoms: C_1  and  N_2
REMARK    2  A    between atoms: N_5  and  C_6
REMARK    3  A    between atoms: C_10  and  C_11
REMARK    4  A    between atoms: C_11  and  C_12
REMARK    5  A    between atoms: C_12  and  O_13
REMARK    6  A    between atoms: O_13  and  C_14
REMARK    7  A    between atoms: C_17  and  C_18
REMARK                            x       y       z     vdW  Elec       q    Type
REMARK                         _______ _______ _______ _____ _____    ______ ____
ROOT
ATOM      1  C   UNL     1      48.265   8.035  12.817  0.00  0.00    +0.000 C 
ENDROOT
BRANCH   1   6
ATOM      2  C   UNL     1      48.863   6.775  16.432  0.00  0.00    +0.000 A 
ATOM      3  C   UNL     1      48.711   7.986  17.116  0.00  0.00    +0.000 A 
ATOM      4  C   UNL     1      48.416   9.177  16.443  0.00  0.00    +0.000 A 
ATOM      5  C   UNL     1      48.269   9.188  15.057  0.00  0.00    +0.000 A 
ATOM      6  C   UNL     1      48.401   8.004  14.330  0.00  0.00    +0.000 A 
ATOM      7  C   UNL     1      48.677   6.819  15.043  0.00  0.00    +0.000 A 
BRANCH   2  12
ATOM      8  C   UNL     1      50.887   1.700  17.308  0.00  0.00    +0.000 C 
ATOM      9  N   UNL     1      50.256   2.959  17.695  0.00  0.00    +0.000 NA
ATOM     10  C   UNL     1      51.154   4.104  17.417  0.00  0.00    +0.000 C 
ATOM     11  C   UNL     1      50.507   5.459  17.785  0.00  0.00    +0.000 C 
ATOM     12  N   UNL     1      49.229   5.610  17.072  0.00  0.00    +0.000 N 
ATOM     13  C   UNL     1      48.294   4.493  17.289  0.00  0.00    +0.000 C 
ATOM     14  C   UNL     1      48.988   3.150  16.956  0.00  0.00    +0.000 C 
ENDBRANCH   2  12
ENDBRANCH   1   6
BRANCH   1  15
ATOM     15  C   UNL     1      46.868   8.418  12.324  0.00  0.00    +0.000 C 
BRANCH  15  16
ATOM     16  O   UNL     1      45.834   7.838  13.119  0.00  0.00    +0.000 OA
BRANCH  16  17
ATOM     17  C   UNL     1      45.407   6.605  12.683  0.00  0.00    +0.000 A 
ATOM     18  C   UNL     1      45.724   5.377  13.276  0.00  0.00    +0.000 A 
ATOM     19  C   UNL     1      45.229   4.183  12.747  0.00  0.00    +0.000 A 
ATOM     20  C   UNL     1      44.400   4.202  11.623  0.00  0.00    +0.000 A 
ATOM     21  C   UNL     1      44.091   5.424  11.016  0.00  0.00    +0.000 A 
ATOM     22  C   UNL     1      44.594   6.619  11.548  0.00  0.00    +0.000 A 
BRANCH  20  23
ATOM     23  C   UNL     1      43.898   2.899  11.112  0.00  0.00    +0.000 C 
ATOM     24  N   UNL     1      44.575   2.331  10.069  0.00  0.00    +0.000 N 
ATOM     25  O   UNL     1      42.895   2.371  11.573  0.00  0.00    +0.000 OA
ATOM     26  H   UNL     1      45.238   2.845   9.509  0.00  0.00    +0.000 HD
ATOM     27  H   UNL     1      44.145   1.513   9.656  0.00  0.00    +0.000 HD
ENDBRANCH  20  23
ENDBRANCH  16  17
ENDBRANCH  15  16
ENDBRANCH   1  15
TORSDOF 6
ENDMDL
MODEL 9
REMARK VINA RESULT:    -5.857      4.349      8.218
REMARK INTER + INTRA:          -8.836
REMARK INTER:                  -7.597
REMARK INTRA:                  -1.239
REMARK UNBOUND:                -0.924
REMARK  Name = 
REMARK  7 active torsions:
REMARK  status: ('A' for Active; 'I' for Inactive)
REMARK    1  A    between atoms: C_1  and  N_2
REMARK    2  A    between atoms: N_5  and  C_6
REMARK    3  A    between atoms: C_10  and  C_11
REMARK    4  A    between atoms: C_11  and  C_12
REMARK    5  A    between atoms: C_12  and  O_13
REMARK    6  A    between atoms: O_13  and  C_14
REMARK    7  A    between atoms: C_17  and  C_18
REMARK                            x       y       z     vdW  Elec       q    Type
REMARK                         _______ _______ _______ _____ _____    ______ ____
ROOT
ATOM      1  C   UNL     1      50.469   7.825  14.129  0.00  0.00    +0.000 C 
ENDROOT
BRANCH   1   6
ATOM      2  C   UNL     1      46.890   6.938  12.941  0.00  0.00    +0.000 A 
ATOM      3  C   UNL     1      46.603   8.100  12.218  0.00  0.00    +0.000 A 
ATOM      4  C   UNL     1      47.531   9.141  12.102  0.00  0.00    +0.000 A 
ATOM      5  C   UNL     1      48.778   9.047  12.716  0.00  0.00    +0.000 A 
ATOM      6  C   UNL     1      49.117   7.903  13.442  0.00  0.00    +0.000 A 
ATOM      7  C   UNL     1      48.165   6.865  13.520  0.00  0.00    +0.000 A 
BRANCH   2  12
ATOM      8  C   UNL     1      43.530   2.659  11.929  0.00  0.00    +0.000 C 
ATOM      9  N   UNL     1      44.145   3.693  12.757  0.00  0.00    +0.000 NA
ATOM     10  C   UNL     1      45.615   3.516  12.813  0.00  0.00    +0.000 C 
ATOM     11  C   UNL     1      46.306   4.611  13.657  0.00  0.00    +0.000 C 
ATOM     12  N   UNL     1      45.957   5.939  13.129  0.00  0.00    +0.000 N 
ATOM     13  C   UNL     1      44.507   6.175  13.027  0.00  0.00    +0.000 C 
ATOM     14  C   UNL     1      43.842   5.037  12.217  0.00  0.00    +0.000 C 
ENDBRANCH   2  12
ENDBRANCH   1   6
BRANCH   1  15
ATOM     15  C   UNL     1      50.566   8.651  15.414  0.00  0.00    +0.000 C 
BRANCH  15  16
ATOM     16  O   UNL     1      51.051   7.885  16.516  0.00  0.00    +0.000 OA
BRANCH  16  17
ATOM     17  C   UNL     1      50.211   6.869  16.913  0.00  0.00    +0.000 A 
ATOM     18  C   UNL     1      48.843   7.000  17.179  0.00  0.00    +0.000 A 
ATOM     19  C   UNL     1      48.085   5.896  17.573  0.00  0.00    +0.000 A 
ATOM     20  C   UNL     1      48.685   4.639  17.696  0.00  0.00    +0.000 A 
ATOM     21  C   UNL     1      50.055   4.503  17.446  0.00  0.00    +0.000 A 
ATOM     22  C   UNL     1      50.811   5.616  17.055  0.00  0.00    +0.000 A 
BRANCH  20  23
ATOM     23  C   UNL     1      47.824   3.501  18.111  0.00  0.00    +0.000 C 
ATOM     24  N   UNL     1      48.171   2.835  19.254  0.00  0.00    +0.000 N 
ATOM     25  O   UNL     1      46.867   3.139  17.439  0.00  0.00    +0.000 OA
ATOM     26  H   UNL     1      49.076   2.939  19.688  0.00  0.00    +0.000 HD
ATOM     27  H   UNL     1      47.650   1.990  19.449  0.00  0.00    +0.000 HD
ENDBRANCH  20  23
ENDBRANCH  16  17
ENDBRANCH  15  16
ENDBRANCH   1  15
TORSDOF 6
ENDMDL
