MODEL 1
REMARK VINA RESULT:    -7.804      0.000      0.000
REMARK INTER + INTRA:         -13.889
REMARK INTER:                 -12.138
REMARK INTRA:                  -1.751
REMARK UNBOUND:                -1.751
REMARK  Name = 
REMARK  10 active torsions:
REMARK  status: ('A' for Active; 'I' for Inactive)
REMARK    1  A    between atoms: C_2  and  C_23
REMARK    2  A    between atoms: N_3  and  C_4
REMARK    3  A    between atoms: C_4  and  C_5
REMARK    4  A    between atoms: C_8  and  C_9
REMARK    5  A    between atoms: C_9  and  N_10
REMARK    6  A    between atoms: N_10  and  C_11
REMARK    7  A    between atoms: N_10  and  C_14
REMARK    8  A    between atoms: C_11  and  C_12
REMARK    9  A    between atoms: C_12  and  O_13
REMARK   10  A    between atoms: C_14  and  C_15
REMARK                            x       y       z     vdW  Elec       q    Type
REMARK                         _______ _______ _______ _____ _____    ______ ____
ROOT
ATOM      1  C   UNL     1      46.606   7.813  12.692  0.00  0.00    +0.000 A 
ATOM      2  C   UNL     1      47.095   6.754  11.917  0.00  0.00    +0.000 A 
ATOM      3  C   UNL     1      46.249   6.050  11.057  0.00  0.00    +0.000 A 
ATOM      4  C   UNL     1      44.878   6.336  11.023  0.00  0.00    +0.000 A 
ATOM      5  C   UNL     1      44.409   7.463  11.711  0.00  0.00    +0.000 A 
ATOM      6  C   UNL     1      45.271   8.204  12.527  0.00  0.00    +0.000 A 
ENDROOT
BRANCH   1   7
ATOM      7  C   UNL     1      47.496   8.495  13.696  0.00  0.00    +0.000 C 
BRANCH   7  10
ATOM      8  O   UNL     1      49.794   7.014  14.073  0.00  0.00    +0.000 OA
ATOM      9  C   UNL     1      48.953   7.020  14.971  0.00  0.00    +0.000 C 
ATOM     10  N   UNL     1      47.754   7.681  14.852  0.00  0.00    +0.000 N 
ATOM     11  H   UNL     1      47.235   7.917  15.692  0.00  0.00    +0.000 HD
BRANCH   9  12
ATOM     12  C   UNL     1      49.169   6.289  16.221  0.00  0.00    +0.000 A 
ATOM     13  C   UNL     1      50.082   6.728  17.168  0.00  0.00    +0.000 A 
ATOM     14  S   UNL     1      50.152   5.721  18.551  0.00  0.00    +0.000 S 
ATOM     15  C   UNL     1      48.949   4.691  17.932  0.00  0.00    +0.000 A 
ATOM     16  N   UNL     1      48.501   3.611  18.630  0.00  0.00    +0.000 NA
ATOM     17  C   UNL     1      47.566   2.945  18.035  0.00  0.00    +0.000 A 
ATOM     18  N   UNL     1      47.032   3.264  16.810  0.00  0.00    +0.000 N 
ATOM     19  C   UNL     1      47.481   4.303  16.055  0.00  0.00    +0.000 A 
ATOM     20  O   UNL     1      47.039   4.490  14.932  0.00  0.00    +0.000 OA
ATOM     21  C   UNL     1      48.515   5.097  16.683  0.00  0.00    +0.000 A 
ATOM     22  H   UNL     1      46.316   2.683  16.392  0.00  0.00    +0.000 HD
ENDBRANCH   9  12
ENDBRANCH   7  10
ENDBRANCH   1   7
BRANCH   4  23
ATOM     23  C   UNL     1      43.917   5.405  10.310  0.00  0.00    +0.000 C 
BRANCH  23  24
ATOM     24  N   UNL     1      44.424   4.007  10.173  0.00  0.00    +0.000 NA
BRANCH  24  25
ATOM     25  C   UNL     1      43.681   3.060  11.047  0.00  0.00    +0.000 C 
BRANCH  25  26
ATOM     26  C   UNL     1      44.058   3.101  12.548  0.00  0.00    +0.000 C 
BRANCH  26  27
ATOM     27  O   UNL     1      45.459   2.896  12.728  0.00  0.00    +0.000 OA
ATOM     28  H   UNL     1      45.780   2.400  11.957  0.00  0.00    +0.000 HD
ENDBRANCH  26  27
ENDBRANCH  25  26
ENDBRANCH  24  25
BRANCH  24  29
ATOM     29  C   UNL     1      44.294   3.591   8.754  0.00  0.00    +0.000 C 
BRANCH  29  30
ATOM     30  C   UNL     1      45.542   2.981   8.143  0.00  0.00    +0.000 A 
ATOM     31  C   UNL     1      45.847   1.635   8.344  0.00  0.00    +0.000 A 
ATOM     32  C   UNL     1      46.951   1.095   7.691  0.00  0.00    +0.000 A 
ATOM     33  C   UNL     1      47.731   1.910   6.880  0.00  0.00    +0.000 A 
ATOM     34  C   UNL     1      47.381   3.245   6.765  0.00  0.00    +0.000 A 
ATOM     35  N   UNL     1      46.307   3.794   7.371  0.00  0.00    +0.000 NA
ENDBRANCH  29  30
ENDBRANCH  24  29
ENDBRANCH  23  24
ENDBRANCH   4  23
TORSDOF 10
ENDMDL
MODEL 2
REMARK VINA RESULT:    -7.709      1.204      1.336
REMARK INTER + INTRA:         -13.741
REMARK INTER:                 -12.041
REMARK INTRA:                  -1.700
REMARK UNBOUND:                -1.751
REMARK  Name = 
REMARK  10 active torsions:
REMARK  status: ('A' for Active; 'I' for Inactive)
REMARK    1  A    between atoms: C_2  and  C_23
REMARK    2  A    between atoms: N_3  and  C_4
REMARK    3  A    between atoms: C_4  and  C_5
REMARK    4  A    between atoms: C_8  and  C_9
REMARK    5  A    between atoms: C_9  and  N_10
REMARK    6  A    between atoms: N_10  and  C_11
REMARK    7  A    between atoms: N_10  and  C_14
REMARK    8  A    between atoms: C_11  and  C_12
REMARK    9  A    between atoms: C_12  and  O_13
REMARK   10  A    between atoms: C_14  and  C_15
REMARK                            x       y       z     vdW  Elec       q    Type
REMARK                         _______ _______ _______ _____ _____    ______ ____
ROOT
ATOM      1  C   UNL     1      47.835   7.889  12.942  0.00  0.00    +0.000 A 
ATOM      2  C   UNL     1      47.831   6.813  12.045  0.00  0.00    +0.000 A 
ATOM      3  C   UNL     1      46.654   6.429  11.398  0.00  0.00    +0.000 A 
ATOM      4  C   UNL     1      45.441   7.060  11.702  0.00  0.00    +0.000 A 
ATOM      5  C   UNL     1      45.462   8.204  12.511  0.00  0.00    +0.000 A 
ATOM      6  C   UNL     1      46.654   8.623  13.113  0.00  0.00    +0.000 A 
ENDROOT
BRANCH   1   7
ATOM      7  C   UNL     1      49.079   8.228  13.718  0.00  0.00    +0.000 C 
BRANCH   7  10
ATOM      8  O   UNL     1      48.300   8.704  16.323  0.00  0.00    +0.000 OA
ATOM      9  C   UNL     1      48.841   7.630  16.065  0.00  0.00    +0.000 C 
ATOM     10  N   UNL     1      49.314   7.325  14.812  0.00  0.00    +0.000 N 
ATOM     11  H   UNL     1      49.468   6.353  14.565  0.00  0.00    +0.000 HD
BRANCH   9  12
ATOM     12  C   UNL     1      49.044   6.613  17.099  0.00  0.00    +0.000 A 
ATOM     13  C   UNL     1      49.758   6.889  18.256  0.00  0.00    +0.000 A 
ATOM     14  S   UNL     1      49.852   5.553  19.323  0.00  0.00    +0.000 S 
ATOM     15  C   UNL     1      48.921   4.584  18.280  0.00  0.00    +0.000 A 
ATOM     16  N   UNL     1      48.596   3.299  18.595  0.00  0.00    +0.000 NA
ATOM     17  C   UNL     1      47.862   2.706  17.712  0.00  0.00    +0.000 A 
ATOM     18  N   UNL     1      47.417   3.280  16.546  0.00  0.00    +0.000 N 
ATOM     19  C   UNL     1      47.757   4.541  16.165  0.00  0.00    +0.000 A 
ATOM     20  O   UNL     1      47.414   4.974  15.076  0.00  0.00    +0.000 OA
ATOM     21  C   UNL     1      48.562   5.260  17.129  0.00  0.00    +0.000 A 
ATOM     22  H   UNL     1      46.863   2.747  15.887  0.00  0.00    +0.000 HD
ENDBRANCH   9  12
ENDBRANCH   7  10
ENDBRANCH   1   7
BRANCH   4  23
ATOM     23  C   UNL     1      44.128   6.475  11.219  0.00  0.00    +0.000 C 
BRANCH  23  24
ATOM     24  N   UNL     1      44.161   4.992  11.042  0.00  0.00    +0.000 NA
BRANCH  24  25
ATOM     25  C   UNL     1      43.181   4.306  11.927  0.00  0.00    +0.000 C 
BRANCH  25  26
ATOM     26  C   UNL     1      43.595   2.898  12.416  0.00  0.00    +0.000 C 
BRANCH  26  27
ATOM     27  O   UNL     1      42.871   1.883  11.721  0.00  0.00    +0.000 OA
ATOM     28  H   UNL     1      42.833   2.144  10.785  0.00  0.00    +0.000 HD
ENDBRANCH  26  27
ENDBRANCH  25  26
ENDBRANCH  24  25
BRANCH  24  29
ATOM     29  C   UNL     1      43.864   4.677   9.622  0.00  0.00    +0.000 C 
BRANCH  29  30
ATOM     30  C   UNL     1      44.930   3.873   8.902  0.00  0.00    +0.000 A 
ATOM     31  C   UNL     1      45.033   2.496   9.094  0.00  0.00    +0.000 A 
ATOM     32  C   UNL     1      45.965   1.783   8.345  0.00  0.00    +0.000 A 
ATOM     33  C   UNL     1      46.782   2.461   7.450  0.00  0.00    +0.000 A 
ATOM     34  C   UNL     1      46.643   3.835   7.348  0.00  0.00    +0.000 A 
ATOM     35  N   UNL     1      45.737   4.551   8.046  0.00  0.00    +0.000 NA
ENDBRANCH  29  30
ENDBRANCH  24  29
ENDBRANCH  23  24
ENDBRANCH   4  23
TORSDOF 10
ENDMDL
MODEL 3
REMARK VINA RESULT:    -7.125      1.317      1.657
REMARK INTER + INTRA:         -12.834
REMARK INTER:                 -11.319
REMARK INTRA:                  -1.515
REMARK UNBOUND:                -1.751
REMARK  Name = 
REMARK  10 active torsions:
REMARK  status: ('A' for Active; 'I' for Inactive)
REMARK    1  A    between atoms: C_2  and  C_23
REMARK    2  A    between atoms: N_3  and  C_4
REMARK    3  A    between atoms: C_4  and  C_5
REMARK    4  A    between atoms: C_8  and  C_9
REMARK    5  A    between atoms: C_9  and  N_10
REMARK    6  A    between atoms: N_10  and  C_11
REMARK    7  A    between atoms: N_10  and  C_14
REMARK    8  A    between atoms: C_11  and  C_12
REMARK    9  A    between atoms: C_12  and  O_13
REMARK   10  A    between atoms: C_14  and  C_15
REMARK                            x       y       z     vdW  Elec       q    Type
REMARK                         _______ _______ _______ _____ _____    ______ ____
ROOT
ATOM      1  C   UNL     1      47.708   7.590  13.235  0.00  0.00    +0.000 A 
ATOM      2  C   UNL     1      46.547   8.368  13.129  0.00  0.00    +0.000 A 
ATOM      3  C   UNL     1      45.405   7.861  12.505  0.00  0.00    +0.000 A 
ATOM      4  C   UNL     1      45.431   6.598  11.899  0.00  0.00    +0.000 A 
ATOM      5  C   UNL     1      46.549   5.778  12.102  0.00  0.00    +0.000 A 
ATOM      6  C   UNL     1      47.673   6.267  12.778  0.00  0.00    +0.000 A 
ENDROOT
BRANCH   1   7
ATOM      7  C   UNL     1      48.969   8.180  13.809  0.00  0.00    +0.000 C 
BRANCH   7  10
ATOM      8  O   UNL     1      48.021   9.133  16.220  0.00  0.00    +0.000 OA
ATOM      9  C   UNL     1      48.743   8.137  16.232  0.00  0.00    +0.000 C 
ATOM     10  N   UNL     1      49.308   7.623  15.090  0.00  0.00    +0.000 N 
ATOM     11  H   UNL     1      49.632   6.662  15.089  0.00  0.00    +0.000 HD
BRANCH   9  12
ATOM     12  C   UNL     1      49.073   7.452  17.483  0.00  0.00    +0.000 A 
ATOM     13  C   UNL     1      49.607   8.136  18.565  0.00  0.00    +0.000 A 
ATOM     14  S   UNL     1      49.897   7.130  19.920  0.00  0.00    +0.000 S 
ATOM     15  C   UNL     1      49.294   5.764  19.106  0.00  0.00    +0.000 A 
ATOM     16  N   UNL     1      49.230   4.543  19.705  0.00  0.00    +0.000 NA
ATOM     17  C   UNL     1      48.722   3.614  18.964  0.00  0.00    +0.000 A 
ATOM     18  N   UNL     1      48.265   3.795  17.681  0.00  0.00    +0.000 N 
ATOM     19  C   UNL     1      48.354   4.983  17.024  0.00  0.00    +0.000 A 
ATOM     20  O   UNL     1      48.020   5.071  15.852  0.00  0.00    +0.000 OA
ATOM     21  C   UNL     1      48.896   6.065  17.817  0.00  0.00    +0.000 A 
ATOM     22  H   UNL     1      47.899   3.015  17.148  0.00  0.00    +0.000 HD
ENDBRANCH   9  12
ENDBRANCH   7  10
ENDBRANCH   1   7
BRANCH   4  23
ATOM     23  C   UNL     1      44.300   6.159  10.990  0.00  0.00    +0.000 C 
BRANCH  23  24
ATOM     24  N   UNL     1      44.259   4.685  10.751  0.00  0.00    +0.000 NA
BRANCH  24  25
ATOM     25  C   UNL     1      43.179   4.026  11.534  0.00  0.00    +0.000 C 
BRANCH  25  26
ATOM     26  C   UNL     1      43.636   2.877  12.465  0.00  0.00    +0.000 C 
BRANCH  26  27
ATOM     27  O   UNL     1      45.056   2.737  12.444  0.00  0.00    +0.000 OA
ATOM     28  H   UNL     1      45.355   2.675  13.367  0.00  0.00    +0.000 HD
ENDBRANCH  26  27
ENDBRANCH  25  26
ENDBRANCH  24  25
BRANCH  24  29
ATOM     29  C   UNL     1      44.049   4.445   9.302  0.00  0.00    +0.000 C 
BRANCH  29  30
ATOM     30  C   UNL     1      45.123   3.616   8.621  0.00  0.00    +0.000 A 
ATOM     31  C   UNL     1      45.254   2.256   8.899  0.00  0.00    +0.000 A 
ATOM     32  C   UNL     1      46.192   1.515   8.186  0.00  0.00    +0.000 A 
ATOM     33  C   UNL     1      46.987   2.150   7.240  0.00  0.00    +0.000 A 
ATOM     34  C   UNL     1      46.821   3.512   7.054  0.00  0.00    +0.000 A 
ATOM     35  N   UNL     1      45.908   4.254   7.715  0.00  0.00    +0.000 NA
ENDBRANCH  29  30
ENDBRANCH  24  29
ENDBRANCH  23  24
ENDBRANCH   4  23
TORSDOF 10
ENDMDL
MODEL 4
REMARK VINA RESULT:    -6.786      1.949      2.595
REMARK INTER + INTRA:         -12.306
REMARK INTER:                 -11.073
REMARK INTRA:                  -1.232
REMARK UNBOUND:                -1.751
REMARK  Name = 
REMARK  10 active torsions:
REMARK  status: ('A' for Active; 'I' for Inactive)
REMARK    1  A    between atoms: C_2  and  C_23
REMARK    2  A    between atoms: N_3  and  C_4
REMARK    3  A    between atoms: C_4  and  C_5
REMARK    4  A    between atoms: C_8  and  C_9
REMARK    5  A    between atoms: C_9  and  N_10
REMARK    6  A    between atoms: N_10  and  C_11
REMARK    7  A    between atoms: N_10  and  C_14
REMARK    8  A    between atoms: C_11  and  C_12
REMARK    9  A    between atoms: C_12  and  O_13
REMARK   10  A    between atoms: C_14  and  C_15
REMARK                            x       y       z     vdW  Elec       q    Type
REMARK                         _______ _______ _______ _____ _____    ______ ____
ROOT
ATOM      1  C   UNL     1      47.237   8.121  13.144  0.00  0.00    +0.000 A 
ATOM      2  C   UNL     1      47.746   7.214  12.205  0.00  0.00    +0.000 A 
ATOM      3  C   UNL     1      46.890   6.539  11.331  0.00  0.00    +0.000 A 
ATOM      4  C   UNL     1      45.502   6.696  11.438  0.00  0.00    +0.000 A 
ATOM      5  C   UNL     1      45.001   7.683  12.296  0.00  0.00    +0.000 A 
ATOM      6  C   UNL     1      45.865   8.401  13.131  0.00  0.00    +0.000 A 
ENDROOT
BRANCH   1   7
ATOM      7  C   UNL     1      48.151   8.761  14.155  0.00  0.00    +0.000 C 
BRANCH   7  10
ATOM      8  O   UNL     1      49.739   6.650  14.953  0.00  0.00    +0.000 OA
ATOM      9  C   UNL     1      48.947   7.121  15.767  0.00  0.00    +0.000 C 
ATOM     10  N   UNL     1      48.075   8.134  15.446  0.00  0.00    +0.000 N 
ATOM     11  H   UNL     1      47.667   8.689  16.190  0.00  0.00    +0.000 HD
BRANCH   9  12
ATOM     12  C   UNL     1      48.861   6.602  17.133  0.00  0.00    +0.000 A 
ATOM     13  C   UNL     1      48.575   5.268  17.385  0.00  0.00    +0.000 A 
ATOM     14  S   UNL     1      48.541   4.891  19.055  0.00  0.00    +0.000 S 
ATOM     15  C   UNL     1      48.932   6.490  19.481  0.00  0.00    +0.000 A 
ATOM     16  N   UNL     1      49.085   6.868  20.780  0.00  0.00    +0.000 NA
ATOM     17  C   UNL     1      49.409   8.110  20.937  0.00  0.00    +0.000 A 
ATOM     18  N   UNL     1      49.601   9.007  19.914  0.00  0.00    +0.000 N 
ATOM     19  C   UNL     1      49.410   8.689  18.605  0.00  0.00    +0.000 A 
ATOM     20  O   UNL     1      49.501   9.545  17.739  0.00  0.00    +0.000 OA
ATOM     21  C   UNL     1      49.067   7.302  18.371  0.00  0.00    +0.000 A 
ATOM     22  H   UNL     1      49.830   9.973  20.111  0.00  0.00    +0.000 HD
ENDBRANCH   9  12
ENDBRANCH   7  10
ENDBRANCH   1   7
BRANCH   4  23
ATOM     23  C   UNL     1      44.565   5.769  10.689  0.00  0.00    +0.000 C 
BRANCH  23  24
ATOM     24  N   UNL     1      45.089   4.378  10.537  0.00  0.00    +0.000 NA
BRANCH  24  25
ATOM     25  C   UNL     1      44.778   3.537  11.723  0.00  0.00    +0.000 C 
BRANCH  25  26
ATOM     26  C   UNL     1      43.304   3.081  11.850  0.00  0.00    +0.000 C 
BRANCH  26  27
ATOM     27  O   UNL     1      43.217   1.660  11.954  0.00  0.00    +0.000 OA
ATOM     28  H   UNL     1      43.936   1.286  11.418  0.00  0.00    +0.000 HD
ENDBRANCH  26  27
ENDBRANCH  25  26
ENDBRANCH  24  25
BRANCH  24  29
ATOM     29  C   UNL     1      44.490   3.776   9.320  0.00  0.00    +0.000 C 
BRANCH  29  30
ATOM     30  C   UNL     1      45.476   3.121   8.370  0.00  0.00    +0.000 A 
ATOM     31  C   UNL     1      45.878   1.800   8.563  0.00  0.00    +0.000 A 
ATOM     32  C   UNL     1      46.713   1.211   7.618  0.00  0.00    +0.000 A 
ATOM     33  C   UNL     1      47.142   1.956   6.527  0.00  0.00    +0.000 A 
ATOM     34  C   UNL     1      46.729   3.274   6.432  0.00  0.00    +0.000 A 
ATOM     35  N   UNL     1      45.905   3.868   7.321  0.00  0.00    +0.000 NA
ENDBRANCH  29  30
ENDBRANCH  24  29
ENDBRANCH  23  24
ENDBRANCH   4  23
TORSDOF 10
ENDMDL
MODEL 5
REMARK VINA RESULT:    -6.630      1.898      2.229
REMARK INTER + INTRA:         -12.063
REMARK INTER:                 -11.055
REMARK INTRA:                  -1.008
REMARK UNBOUND:                -1.751
REMARK  Name = 
REMARK  10 active torsions:
REMARK  status: ('A' for Active; 'I' for Inactive)
REMARK    1  A    between atoms: C_2  and  C_23
REMARK    2  A    between atoms: N_3  and  C_4
REMARK    3  A    between atoms: C_4  and  C_5
REMARK    4  A    between atoms: C_8  and  C_9
REMARK    5  A    between atoms: C_9  and  N_10
REMARK    6  A    between atoms: N_10  and  C_11
REMARK    7  A    between atoms: N_10  and  C_14
REMARK    8  A    between atoms: C_11  and  C_12
REMARK    9  A    between atoms: C_12  and  O_13
REMARK   10  A    between atoms: C_14  and  C_15
REMARK                            x       y       z     vdW  Elec       q    Type
REMARK                         _______ _______ _______ _____ _____    ______ ____
ROOT
ATOM      1  C   UNL     1      47.737   8.013  13.549  0.00  0.00    +0.000 A 
ATOM      2  C   UNL     1      48.129   7.053  12.608  0.00  0.00    +0.000 A 
ATOM      3  C   UNL     1      47.205   6.522  11.705  0.00  0.00    +0.000 A 
ATOM      4  C   UNL     1      45.852   6.878  11.785  0.00  0.00    +0.000 A 
ATOM      5  C   UNL     1      45.480   7.917  12.648  0.00  0.00    +0.000 A 
ATOM      6  C   UNL     1      46.420   8.490  13.512  0.00  0.00    +0.000 A 
ENDROOT
BRANCH   1   7
ATOM      7  C   UNL     1      48.710   8.500  14.589  0.00  0.00    +0.000 C 
BRANCH   7  10
ATOM      8  O   UNL     1      50.470   8.363  16.711  0.00  0.00    +0.000 OA
ATOM      9  C   UNL     1      49.284   8.114  16.923  0.00  0.00    +0.000 C 
ATOM     10  N   UNL     1      48.344   8.101  15.921  0.00  0.00    +0.000 N 
ATOM     11  H   UNL     1      47.363   8.194  16.163  0.00  0.00    +0.000 HD
BRANCH   9  12
ATOM     12  C   UNL     1      48.805   7.782  18.266  0.00  0.00    +0.000 A 
ATOM     13  C   UNL     1      48.130   8.711  19.045  0.00  0.00    +0.000 A 
ATOM     14  S   UNL     1      47.655   8.092  20.569  0.00  0.00    +0.000 S 
ATOM     15  C   UNL     1      48.314   6.564  20.216  0.00  0.00    +0.000 A 
ATOM     16  N   UNL     1      48.237   5.530  21.099  0.00  0.00    +0.000 NA
ATOM     17  C   UNL     1      48.760   4.428  20.672  0.00  0.00    +0.000 A 
ATOM     18  N   UNL     1      49.348   4.262  19.441  0.00  0.00    +0.000 N 
ATOM     19  C   UNL     1      49.492   5.278  18.547  0.00  0.00    +0.000 A 
ATOM     20  O   UNL     1      50.105   5.105  17.505  0.00  0.00    +0.000 OA
ATOM     21  C   UNL     1      48.904   6.532  18.967  0.00  0.00    +0.000 A 
ATOM     22  H   UNL     1      49.760   3.375  19.180  0.00  0.00    +0.000 HD
ENDBRANCH   9  12
ENDBRANCH   7  10
ENDBRANCH   1   7
BRANCH   4  23
ATOM     23  C   UNL     1      44.808   6.107  11.001  0.00  0.00    +0.000 C 
BRANCH  23  24
ATOM     24  N   UNL     1      45.175   4.681  10.751  0.00  0.00    +0.000 NA
BRANCH  24  25
ATOM     25  C   UNL     1      44.689   3.786  11.836  0.00  0.00    +0.000 C 
BRANCH  25  26
ATOM     26  C   UNL     1      43.210   3.344  11.723  0.00  0.00    +0.000 C 
BRANCH  26  27
ATOM     27  O   UNL     1      43.105   1.922  11.667  0.00  0.00    +0.000 OA
ATOM     28  H   UNL     1      42.195   1.708  11.399  0.00  0.00    +0.000 HD
ENDBRANCH  26  27
ENDBRANCH  25  26
ENDBRANCH  24  25
BRANCH  24  29
ATOM     29  C   UNL     1      44.592   4.262   9.452  0.00  0.00    +0.000 C 
BRANCH  29  30
ATOM     30  C   UNL     1      45.507   3.429   8.573  0.00  0.00    +0.000 A 
ATOM     31  C   UNL     1      45.626   2.054   8.771  0.00  0.00    +0.000 A 
ATOM     32  C   UNL     1      46.405   1.315   7.885  0.00  0.00    +0.000 A 
ATOM     33  C   UNL     1      47.060   1.966   6.847  0.00  0.00    +0.000 A 
ATOM     34  C   UNL     1      46.921   3.340   6.745  0.00  0.00    +0.000 A 
ATOM     35  N   UNL     1      46.159   4.081   7.576  0.00  0.00    +0.000 NA
ENDBRANCH  29  30
ENDBRANCH  24  29
ENDBRANCH  23  24
ENDBRANCH   4  23
TORSDOF 10
ENDMDL
MODEL 6
REMARK VINA RESULT:    -6.610      2.166      2.922
REMARK INTER + INTRA:         -12.033
REMARK INTER:                 -10.821
REMARK INTRA:                  -1.211
REMARK UNBOUND:                -1.751
REMARK  Name = 
REMARK  10 active torsions:
REMARK  status: ('A' for Active; 'I' for Inactive)
REMARK    1  A    between atoms: C_2  and  C_23
REMARK    2  A    between atoms: N_3  and  C_4
REMARK    3  A    between atoms: C_4  and  C_5
REMARK    4  A    between atoms: C_8  and  C_9
REMARK    5  A    between atoms: C_9  and  N_10
REMARK    6  A    between atoms: N_10  and  C_11
REMARK    7  A    between atoms: N_10  and  C_14
REMARK    8  A    between atoms: C_11  and  C_12
REMARK    9  A    between atoms: C_12  and  O_13
REMARK   10  A    between atoms: C_14  and  C_15
REMARK                            x       y       z     vdW  Elec       q    Type
REMARK                         _______ _______ _______ _____ _____    ______ ____
ROOT
ATOM      1  C   UNL     1      48.196   8.106  13.155  0.00  0.00    +0.000 A 
ATOM      2  C   UNL     1      48.335   7.200  12.096  0.00  0.00    +0.000 A 
ATOM      3  C   UNL     1      47.213   6.708  11.427  0.00  0.00    +0.000 A 
ATOM      4  C   UNL     1      45.925   7.047  11.861  0.00  0.00    +0.000 A 
ATOM      5  C   UNL     1      45.785   8.036  12.844  0.00  0.00    +0.000 A 
ATOM      6  C   UNL     1      46.914   8.572  13.474  0.00  0.00    +0.000 A 
ENDROOT
BRANCH   1   7
ATOM      7  C   UNL     1      49.401   8.548  13.942  0.00  0.00    +0.000 C 
BRANCH   7  10
ATOM      8  O   UNL     1      48.764   8.027  16.577  0.00  0.00    +0.000 OA
ATOM      9  C   UNL     1      49.554   7.273  16.010  0.00  0.00    +0.000 C 
ATOM     10  N   UNL     1      49.975   7.484  14.720  0.00  0.00    +0.000 N 
ATOM     11  H   UNL     1      50.369   6.709  14.196  0.00  0.00    +0.000 HD
BRANCH   9  12
ATOM     12  C   UNL     1      50.124   6.113  16.697  0.00  0.00    +0.000 A 
ATOM     13  C   UNL     1      49.318   5.116  17.226  0.00  0.00    +0.000 A 
ATOM     14  S   UNL     1      50.207   3.855  17.968  0.00  0.00    +0.000 S 
ATOM     15  C   UNL     1      51.689   4.596  17.580  0.00  0.00    +0.000 A 
ATOM     16  N   UNL     1      52.882   4.028  17.910  0.00  0.00    +0.000 NA
ATOM     17  C   UNL     1      53.915   4.700  17.521  0.00  0.00    +0.000 A 
ATOM     18  N   UNL     1      53.866   5.885  16.826  0.00  0.00    +0.000 N 
ATOM     19  C   UNL     1      52.699   6.515  16.520  0.00  0.00    +0.000 A 
ATOM     20  O   UNL     1      52.709   7.612  15.984  0.00  0.00    +0.000 OA
ATOM     21  C   UNL     1      51.508   5.793  16.914  0.00  0.00    +0.000 A 
ATOM     22  H   UNL     1      54.717   6.371  16.573  0.00  0.00    +0.000 HD
ENDBRANCH   9  12
ENDBRANCH   7  10
ENDBRANCH   1   7
BRANCH   4  23
ATOM     23  C   UNL     1      44.714   6.309  11.325  0.00  0.00    +0.000 C 
BRANCH  23  24
ATOM     24  N   UNL     1      44.944   4.847  11.119  0.00  0.00    +0.000 NA
BRANCH  24  25
ATOM     25  C   UNL     1      44.318   4.031  12.194  0.00  0.00    +0.000 C 
BRANCH  25  26
ATOM     26  C   UNL     1      43.266   2.998  11.722  0.00  0.00    +0.000 C 
BRANCH  26  27
ATOM     27  O   UNL     1      43.381   1.781  12.458  0.00  0.00    +0.000 OA
ATOM     28  H   UNL     1      43.289   1.049  11.824  0.00  0.00    +0.000 HD
ENDBRANCH  26  27
ENDBRANCH  25  26
ENDBRANCH  24  25
BRANCH  24  29
ATOM     29  C   UNL     1      44.383   4.460   9.801  0.00  0.00    +0.000 C 
BRANCH  29  30
ATOM     30  C   UNL     1      45.333   3.703   8.892  0.00  0.00    +0.000 A 
ATOM     31  C   UNL     1      45.453   2.317   8.984  0.00  0.00    +0.000 A 
ATOM     32  C   UNL     1      46.268   1.654   8.071  0.00  0.00    +0.000 A 
ATOM     33  C   UNL     1      46.956   2.387   7.112  0.00  0.00    +0.000 A 
ATOM     34  C   UNL     1      46.812   3.764   7.114  0.00  0.00    +0.000 A 
ATOM     35  N   UNL     1      46.017   4.434   7.974  0.00  0.00    +0.000 NA
ENDBRANCH  29  30
ENDBRANCH  24  29
ENDBRANCH  23  24
ENDBRANCH   4  23
TORSDOF 10
ENDMDL
MODEL 7
REMARK VINA RESULT:    -6.083      3.098      4.161
REMARK INTER + INTRA:         -11.212
REMARK INTER:                  -9.994
REMARK INTRA:                  -1.219
REMARK UNBOUND:                -1.751
REMARK  Name = 
REMARK  10 active torsions:
REMARK  status: ('A' for Active; 'I' for Inactive)
REMARK    1  A    between atoms: C_2  and  C_23
REMARK    2  A    between atoms: N_3  and  C_4
REMARK    3  A    between atoms: C_4  and  C_5
REMARK    4  A    between atoms: C_8  and  C_9
REMARK    5  A    between atoms: C_9  and  N_10
REMARK    6  A    between atoms: N_10  and  C_11
REMARK    7  A    between atoms: N_10  and  C_14
REMARK    8  A    between atoms: C_11  and  C_12
REMARK    9  A    between atoms: C_12  and  O_13
REMARK   10  A    between atoms: C_14  and  C_15
REMARK                            x       y       z     vdW  Elec       q    Type
REMARK                         _______ _______ _______ _____ _____    ______ ____
ROOT
ATOM      1  C   UNL     1      47.795   8.244  13.127  0.00  0.00    +0.000 A 
ATOM      2  C   UNL     1      48.102   7.321  12.119  0.00  0.00    +0.000 A 
ATOM      3  C   UNL     1      47.086   6.688  11.400  0.00  0.00    +0.000 A 
ATOM      4  C   UNL     1      45.743   6.901  11.735  0.00  0.00    +0.000 A 
ATOM      5  C   UNL     1      45.433   7.903  12.663  0.00  0.00    +0.000 A 
ATOM      6  C   UNL     1      46.452   8.580  13.343  0.00  0.00    +0.000 A 
ENDROOT
BRANCH   1   7
ATOM      7  C   UNL     1      48.889   8.839  13.972  0.00  0.00    +0.000 C 
BRANCH   7  10
ATOM      8  O   UNL     1      49.472   7.608  16.372  0.00  0.00    +0.000 OA
ATOM      9  C   UNL     1      48.805   8.641  16.397  0.00  0.00    +0.000 C 
ATOM     10  N   UNL     1      48.417   9.294  15.252  0.00  0.00    +0.000 N 
ATOM     11  H   UNL     1      48.144  10.269  15.308  0.00  0.00    +0.000 HD
BRANCH   9  12
ATOM     12  C   UNL     1      48.353   9.225  17.661  0.00  0.00    +0.000 A 
ATOM     13  C   UNL     1      47.682   8.469  18.610  0.00  0.00    +0.000 A 
ATOM     14  S   UNL     1      47.266   9.361  20.010  0.00  0.00    +0.000 S 
ATOM     15  C   UNL     1      47.993  10.771  19.396  0.00  0.00    +0.000 A 
ATOM     16  N   UNL     1      48.019  11.932  20.107  0.00  0.00    +0.000 NA
ATOM     17  C   UNL     1      48.632  12.904  19.514  0.00  0.00    +0.000 A 
ATOM     18  N   UNL     1      49.227  12.820  18.279  0.00  0.00    +0.000 N 
ATOM     19  C   UNL     1      49.183  11.698  17.511  0.00  0.00    +0.000 A 
ATOM     20  O   UNL     1      49.645  11.701  16.380  0.00  0.00    +0.000 OA
ATOM     21  C   UNL     1      48.526  10.570  18.136  0.00  0.00    +0.000 A 
ATOM     22  H   UNL     1      49.670  13.630  17.863  0.00  0.00    +0.000 HD
ENDBRANCH   9  12
ENDBRANCH   7  10
ENDBRANCH   1   7
BRANCH   4  23
ATOM     23  C   UNL     1      44.656   6.019  11.153  0.00  0.00    +0.000 C 
BRANCH  23  24
ATOM     24  N   UNL     1      45.097   4.615  10.893  0.00  0.00    +0.000 NA
BRANCH  24  25
ATOM     25  C   UNL     1      44.691   3.695  11.990  0.00  0.00    +0.000 C 
BRANCH  25  26
ATOM     26  C   UNL     1      43.251   3.136  11.893  0.00  0.00    +0.000 C 
BRANCH  26  27
ATOM     27  O   UNL     1      43.262   1.712  11.797  0.00  0.00    +0.000 OA
ATOM     28  H   UNL     1      43.052   1.361  12.679  0.00  0.00    +0.000 HD
ENDBRANCH  26  27
ENDBRANCH  25  26
ENDBRANCH  24  25
BRANCH  24  29
ATOM     29  C   UNL     1      44.505   4.162   9.609  0.00  0.00    +0.000 C 
BRANCH  29  30
ATOM     30  C   UNL     1      45.447   3.398   8.697  0.00  0.00    +0.000 A 
ATOM     31  C   UNL     1      45.566   2.013   8.797  0.00  0.00    +0.000 A 
ATOM     32  C   UNL     1      46.373   1.343   7.881  0.00  0.00    +0.000 A 
ATOM     33  C   UNL     1      47.055   2.070   6.913  0.00  0.00    +0.000 A 
ATOM     34  C   UNL     1      46.913   3.447   6.908  0.00  0.00    +0.000 A 
ATOM     35  N   UNL     1      46.125   4.124   7.770  0.00  0.00    +0.000 NA
ENDBRANCH  29  30
ENDBRANCH  24  29
ENDBRANCH  23  24
ENDBRANCH   4  23
TORSDOF 10
ENDMDL
MODEL 8
REMARK VINA RESULT:    -6.067      3.338      8.135
REMARK INTER + INTRA:         -11.187
REMARK INTER:                  -8.915
REMARK INTRA:                  -2.272
REMARK UNBOUND:                -1.751
REMARK  Name = 
REMARK  10 active torsions:
REMARK  status: ('A' for Active; 'I' for Inactive)
REMARK    1  A    between atoms: C_2  and  C_23
REMARK    2  A    between atoms: N_3  and  C_4
REMARK    3  A    between atoms: C_4  and  C_5
REMARK    4  A    between atoms: C_8  and  C_9
REMARK    5  A    between atoms: C_9  and  N_10
REMARK    6  A    between atoms: N_10  and  C_11
REMARK    7  A    between atoms: N_10  and  C_14
REMARK    8  A    between atoms: C_11  and  C_12
REMARK    9  A    between atoms: C_12  and  O_13
REMARK   10  A    between atoms: C_14  and  C_15
REMARK                            x       y       z     vdW  Elec       q    Type
REMARK                         _______ _______ _______ _____ _____    ______ ____
ROOT
ATOM      1  C   UNL     1      48.858   8.278  15.782  0.00  0.00    +0.000 A 
ATOM      2  C   UNL     1      49.828   7.322  15.454  0.00  0.00    +0.000 A 
ATOM      3  C   UNL     1      50.580   6.699  16.453  0.00  0.00    +0.000 A 
ATOM      4  C   UNL     1      50.436   7.084  17.792  0.00  0.00    +0.000 A 
ATOM      5  C   UNL     1      49.393   7.956  18.132  0.00  0.00    +0.000 A 
ATOM      6  C   UNL     1      48.601   8.536  17.135  0.00  0.00    +0.000 A 
ENDROOT
BRANCH   1   7
ATOM      7  C   UNL     1      48.129   9.025  14.697  0.00  0.00    +0.000 C 
BRANCH   7  10
ATOM      8  O   UNL     1      47.841   8.392  12.026  0.00  0.00    +0.000 OA
ATOM      9  C   UNL     1      46.998   7.970  12.817  0.00  0.00    +0.000 C 
ATOM     10  N   UNL     1      47.026   8.280  14.156  0.00  0.00    +0.000 N 
ATOM     11  H   UNL     1      46.519   7.691  14.809  0.00  0.00    +0.000 HD
BRANCH   9  12
ATOM     12  C   UNL     1      45.886   7.131  12.369  0.00  0.00    +0.000 A 
ATOM     13  C   UNL     1      44.835   7.655  11.630  0.00  0.00    +0.000 A 
ATOM     14  S   UNL     1      43.661   6.483  11.208  0.00  0.00    +0.000 S 
ATOM     15  C   UNL     1      44.538   5.245  11.976  0.00  0.00    +0.000 A 
ATOM     16  N   UNL     1      44.103   3.954  11.979  0.00  0.00    +0.000 NA
ATOM     17  C   UNL     1      44.895   3.129  12.581  0.00  0.00    +0.000 A 
ATOM     18  N   UNL     1      46.086   3.474  13.174  0.00  0.00    +0.000 N 
ATOM     19  C   UNL     1      46.536   4.756  13.241  0.00  0.00    +0.000 A 
ATOM     20  O   UNL     1      47.553   5.025  13.860  0.00  0.00    +0.000 OA
ATOM     21  C   UNL     1      45.696   5.720  12.562  0.00  0.00    +0.000 A 
ATOM     22  H   UNL     1      46.646   2.778  13.650  0.00  0.00    +0.000 HD
ENDBRANCH   9  12
ENDBRANCH   7  10
ENDBRANCH   1   7
BRANCH   4  23
ATOM     23  C   UNL     1      51.431   6.619  18.837  0.00  0.00    +0.000 C 
BRANCH  23  24
ATOM     24  N   UNL     1      51.463   5.136  19.018  0.00  0.00    +0.000 NA
BRANCH  24  25
ATOM     25  C   UNL     1      52.519   4.718  19.979  0.00  0.00    +0.000 C 
BRANCH  25  26
ATOM     26  C   UNL     1      53.458   3.589  19.490  0.00  0.00    +0.000 C 
BRANCH  26  27
ATOM     27  O   UNL     1      52.707   2.469  19.021  0.00  0.00    +0.000 OA
ATOM     28  H   UNL     1      51.976   2.816  18.483  0.00  0.00    +0.000 HD
ENDBRANCH  26  27
ENDBRANCH  25  26
ENDBRANCH  24  25
BRANCH  24  29
ATOM     29  C   UNL     1      50.134   4.689  19.502  0.00  0.00    +0.000 C 
BRANCH  29  30
ATOM     30  C   UNL     1      49.266   4.000  18.465  0.00  0.00    +0.000 A 
ATOM     31  C   UNL     1      47.965   4.437  18.223  0.00  0.00    +0.000 A 
ATOM     32  C   UNL     1      47.236   3.835  17.200  0.00  0.00    +0.000 A 
ATOM     33  C   UNL     1      47.812   2.804  16.468  0.00  0.00    +0.000 A 
ATOM     34  C   UNL     1      49.096   2.404  16.800  0.00  0.00    +0.000 A 
ATOM     35  N   UNL     1      49.833   2.979  17.772  0.00  0.00    +0.000 NA
ENDBRANCH  29  30
ENDBRANCH  24  29
ENDBRANCH  23  24
ENDBRANCH   4  23
TORSDOF 10
ENDMDL
MODEL 9
REMARK VINA RESULT:    -5.972      3.160      8.127
REMARK INTER + INTRA:         -11.040
REMARK INTER:                  -9.554
REMARK INTRA:                  -1.487
REMARK UNBOUND:                -1.751
REMARK  Name = 
REMARK  10 active torsions:
REMARK  status: ('A' for Active; 'I' for Inactive)
REMARK    1  A    between atoms: C_2  and  C_23
REMARK    2  A    between atoms: N_3  and  C_4
REMARK    3  A    between atoms: C_4  and  C_5
REMARK    4  A    between atoms: C_8  and  C_9
REMARK    5  A    between atoms: C_9  and  N_10
REMARK    6  A    between atoms: N_10  and  C_11
REMARK    7  A    between atoms: N_10  and  C_14
REMARK    8  A    between atoms: C_11  and  C_12
REMARK    9  A    between atoms: C_12  and  O_13
REMARK   10  A    between atoms: C_14  and  C_15
REMARK                            x       y       z     vdW  Elec       q    Type
REMARK                         _______ _______ _______ _____ _____    ______ ____
ROOT
ATOM      1  C   UNL     1      48.544   8.070  13.468  0.00  0.00    +0.000 A 
ATOM      2  C   UNL     1      48.330   9.217  14.242  0.00  0.00    +0.000 A 
ATOM      3  C   UNL     1      48.417   9.163  15.634  0.00  0.00    +0.000 A 
ATOM      4  C   UNL     1      48.635   7.941  16.283  0.00  0.00    +0.000 A 
ATOM      5  C   UNL     1      48.959   6.818  15.510  0.00  0.00    +0.000 A 
ATOM      6  C   UNL     1      48.929   6.887  14.113  0.00  0.00    +0.000 A 
ENDROOT
BRANCH   1   7
ATOM      7  C   UNL     1      48.341   8.109  11.976  0.00  0.00    +0.000 C 
BRANCH   7  10
ATOM      8  O   UNL     1      45.599   7.937  11.716  0.00  0.00    +0.000 OA
ATOM      9  C   UNL     1      46.279   6.983  11.340  0.00  0.00    +0.000 C 
ATOM     10  N   UNL     1      47.646   6.953  11.480  0.00  0.00    +0.000 N 
ATOM     11  H   UNL     1      48.188   6.317  10.905  0.00  0.00    +0.000 HD
BRANCH   9  12
ATOM     12  C   UNL     1      45.663   5.798  10.742  0.00  0.00    +0.000 A 
ATOM     13  C   UNL     1      45.844   5.484   9.403  0.00  0.00    +0.000 A 
ATOM     14  S   UNL     1      45.040   4.047   8.934  0.00  0.00    +0.000 S 
ATOM     15  C   UNL     1      44.453   3.795  10.511  0.00  0.00    +0.000 A 
ATOM     16  N   UNL     1      43.691   2.711  10.827  0.00  0.00    +0.000 NA
ATOM     17  C   UNL     1      43.347   2.649  12.071  0.00  0.00    +0.000 A 
ATOM     18  N   UNL     1      43.700   3.568  13.031  0.00  0.00    +0.000 N 
ATOM     19  C   UNL     1      44.415   4.691  12.752  0.00  0.00    +0.000 A 
ATOM     20  O   UNL     1      44.624   5.525  13.620  0.00  0.00    +0.000 OA
ATOM     21  C   UNL     1      44.846   4.799  11.375  0.00  0.00    +0.000 A 
ATOM     22  H   UNL     1      43.374   3.469  13.984  0.00  0.00    +0.000 HD
ENDBRANCH   9  12
ENDBRANCH   7  10
ENDBRANCH   1   7
BRANCH   4  23
ATOM     23  C   UNL     1      48.456   7.825  17.784  0.00  0.00    +0.000 C 
BRANCH  23  24
ATOM     24  N   UNL     1      49.518   7.016  18.455  0.00  0.00    +0.000 NA
BRANCH  24  25
ATOM     25  C   UNL     1      50.229   7.796  19.503  0.00  0.00    +0.000 C 
BRANCH  25  26
ATOM     26  C   UNL     1      49.792   7.510  20.960  0.00  0.00    +0.000 C 
BRANCH  26  27
ATOM     27  O   UNL     1      49.249   8.682  21.569  0.00  0.00    +0.000 OA
ATOM     28  H   UNL     1      48.412   8.427  21.991  0.00  0.00    +0.000 HD
ENDBRANCH  26  27
ENDBRANCH  25  26
ENDBRANCH  24  25
BRANCH  24  29
ATOM     29  C   UNL     1      48.888   5.816  19.060  0.00  0.00    +0.000 C 
BRANCH  29  30
ATOM     30  C   UNL     1      48.906   4.570  18.194  0.00  0.00    +0.000 A 
ATOM     31  C   UNL     1      50.080   3.836  18.028  0.00  0.00    +0.000 A 
ATOM     32  C   UNL     1      50.031   2.651  17.299  0.00  0.00    +0.000 A 
ATOM     33  C   UNL     1      48.828   2.245  16.737  0.00  0.00    +0.000 A 
ATOM     34  C   UNL     1      47.717   3.053  16.916  0.00  0.00    +0.000 A 
ATOM     35  N   UNL     1      47.728   4.197  17.632  0.00  0.00    +0.000 NA
ENDBRANCH  29  30
ENDBRANCH  24  29
ENDBRANCH  23  24
ENDBRANCH   4  23
TORSDOF 10
ENDMDL
