MODEL 1
REMARK VINA RESULT:    -8.422      0.000      0.000
REMARK INTER + INTRA:         -12.091
REMARK INTER:                 -11.376
REMARK INTRA:                  -0.715
REMARK UNBOUND:                -0.715
REMARK  Name = 
REMARK  6 active torsions:
REMARK  status: ('A' for Active; 'I' for Inactive)
REMARK    1  A    between atoms: C_2  and  C_4
REMARK    2  A    between atoms: N_8  and  C_9
REMARK    3  A    between atoms: C_9  and  C_10
REMARK    4  A    between atoms: C_10  and  C_11
REMARK    5  A    between atoms: C_15  and  O_16
REMARK    6  A    between atoms: O_16  and  C_17
REMARK                            x       y       z     vdW  Elec       q    Type
REMARK                         _______ _______ _______ _____ _____    ______ ____
ROOT
ATOM      1  C   UNL     1      43.396   4.301  11.031  0.00  0.00    +0.000 C 
ENDROOT
BRANCH   1   6
ATOM      2  C   UNL     1      46.583   2.477   7.536  0.00  0.00    +0.000 A 
ATOM      3  C   UNL     1      45.785   1.802   8.452  0.00  0.00    +0.000 A 
ATOM      4  C   UNL     1      44.847   2.519   9.194  0.00  0.00    +0.000 A 
ATOM      5  C   UNL     1      44.738   3.899   9.028  0.00  0.00    +0.000 A 
ATOM      6  N   UNL     1      43.770   4.659   9.669  0.00  0.00    +0.000 N 
ATOM      7  N   UNL     1      45.533   4.567   8.170  0.00  0.00    +0.000 NA
ATOM      8  C   UNL     1      46.437   3.855   7.449  0.00  0.00    +0.000 A 
ATOM      9  H   UNL     1      44.008   5.637   9.509  0.00  0.00    +0.000 HD
BRANCH   2  11
ATOM     10  N   UNL     1      48.701   2.472   6.353  0.00  0.00    +0.000 N 
ATOM     11  C   UNL     1      47.556   1.788   6.664  0.00  0.00    +0.000 C 
ATOM     12  O   UNL     1      47.369   0.648   6.270  0.00  0.00    +0.000 OA
ATOM     13  H   UNL     1      49.411   1.953   5.849  0.00  0.00    +0.000 HD
ATOM     14  H   UNL     1      48.999   3.294   6.862  0.00  0.00    +0.000 HD
ENDBRANCH   2  11
ENDBRANCH   1   6
BRANCH   1  15
ATOM     15  C   UNL     1      43.601   5.481  11.988  0.00  0.00    +0.000 C 
BRANCH  15  16
ATOM     16  C   UNL     1      45.064   5.633  12.340  0.00  0.00    +0.000 A 
ATOM     17  C   UNL     1      45.817   6.694  11.823  0.00  0.00    +0.000 A 
ATOM     18  C   UNL     1      47.149   6.865  12.207  0.00  0.00    +0.000 A 
ATOM     19  C   UNL     1      47.744   5.981  13.111  0.00  0.00    +0.000 A 
ATOM     20  C   UNL     1      47.004   4.918  13.625  0.00  0.00    +0.000 A 
ATOM     21  C   UNL     1      45.670   4.752  13.245  0.00  0.00    +0.000 A 
BRANCH  20  22
ATOM     22  O   UNL     1      47.467   4.011  14.543  0.00  0.00    +0.000 OA
BRANCH  22  23
ATOM     23  C   UNL     1      47.284   4.283  15.952  0.00  0.00    +0.000 C 
ATOM     24  C   UNL     1      48.329   5.169  16.658  0.00  0.00    +0.000 C 
ATOM     25  N   UNL     1      48.528   4.140  17.690  0.00  0.00    +0.000 NA
ATOM     26  C   UNL     1      47.776   3.163  16.892  0.00  0.00    +0.000 C 
ATOM     27  H   UNL     1      48.102   4.360  18.590  0.00  0.00    +0.000 HD
ENDBRANCH  22  23
ENDBRANCH  20  22
ENDBRANCH  15  16
ENDBRANCH   1  15
TORSDOF 6
ENDMDL
MODEL 2
REMARK VINA RESULT:    -7.614      2.063      2.882
REMARK INTER + INTRA:         -11.000
REMARK INTER:                 -10.368
REMARK INTRA:                  -0.632
REMARK UNBOUND:                -0.715
REMARK  Name = 
REMARK  6 active torsions:
REMARK  status: ('A' for Active; 'I' for Inactive)
REMARK    1  A    between atoms: C_2  and  C_4
REMARK    2  A    between atoms: N_8  and  C_9
REMARK    3  A    between atoms: C_9  and  C_10
REMARK    4  A    between atoms: C_10  and  C_11
REMARK    5  A    between atoms: C_15  and  O_16
REMARK    6  A    between atoms: O_16  and  C_17
REMARK                            x       y       z     vdW  Elec       q    Type
REMARK                         _______ _______ _______ _____ _____    ______ ____
ROOT
ATOM      1  C   UNL     1      43.297   4.511  11.004  0.00  0.00    +0.000 C 
ENDROOT
BRANCH   1   6
ATOM      2  C   UNL     1      46.542   2.495   7.672  0.00  0.00    +0.000 A 
ATOM      3  C   UNL     1      45.660   1.870   8.546  0.00  0.00    +0.000 A 
ATOM      4  C   UNL     1      44.730   2.643   9.240  0.00  0.00    +0.000 A 
ATOM      5  C   UNL     1      44.711   4.026   9.071  0.00  0.00    +0.000 A 
ATOM      6  N   UNL     1      43.759   4.843   9.663  0.00  0.00    +0.000 N 
ATOM      7  N   UNL     1      45.586   4.644   8.254  0.00  0.00    +0.000 NA
ATOM      8  C   UNL     1      46.482   3.879   7.579  0.00  0.00    +0.000 A 
ATOM      9  H   UNL     1      44.062   5.805   9.516  0.00  0.00    +0.000 HD
BRANCH   2  11
ATOM     10  N   UNL     1      48.591   2.450   6.373  0.00  0.00    +0.000 N 
ATOM     11  C   UNL     1      47.515   1.748   6.849  0.00  0.00    +0.000 C 
ATOM     12  O   UNL     1      47.390   0.553   6.634  0.00  0.00    +0.000 OA
ATOM     13  H   UNL     1      49.309   1.908   5.906  0.00  0.00    +0.000 HD
ATOM     14  H   UNL     1      48.855   3.355   6.740  0.00  0.00    +0.000 HD
ENDBRANCH   2  11
ENDBRANCH   1   6
BRANCH   1  15
ATOM     15  C   UNL     1      43.480   5.694  11.961  0.00  0.00    +0.000 C 
BRANCH  15  16
ATOM     16  C   UNL     1      44.826   5.621  12.646  0.00  0.00    +0.000 A 
ATOM     17  C   UNL     1      45.386   4.385  12.993  0.00  0.00    +0.000 A 
ATOM     18  C   UNL     1      46.659   4.323  13.563  0.00  0.00    +0.000 A 
ATOM     19  C   UNL     1      47.388   5.493  13.793  0.00  0.00    +0.000 A 
ATOM     20  C   UNL     1      46.837   6.727  13.458  0.00  0.00    +0.000 A 
ATOM     21  C   UNL     1      45.565   6.787  12.881  0.00  0.00    +0.000 A 
BRANCH  20  22
ATOM     22  O   UNL     1      47.470   7.935  13.602  0.00  0.00    +0.000 OA
BRANCH  22  23
ATOM     23  C   UNL     1      48.492   8.310  12.649  0.00  0.00    +0.000 C 
ATOM     24  C   UNL     1      48.782   7.346  11.483  0.00  0.00    +0.000 C 
ATOM     25  N   UNL     1      50.213   7.339  11.822  0.00  0.00    +0.000 NA
ATOM     26  C   UNL     1      49.934   8.004  13.102  0.00  0.00    +0.000 C 
ATOM     27  H   UNL     1      50.797   7.883  11.188  0.00  0.00    +0.000 HD
ENDBRANCH  22  23
ENDBRANCH  20  22
ENDBRANCH  15  16
ENDBRANCH   1  15
TORSDOF 6
ENDMDL
MODEL 3
REMARK VINA RESULT:    -7.128      2.770      4.286
REMARK INTER + INTRA:         -10.344
REMARK INTER:                 -10.027
REMARK INTRA:                  -0.317
REMARK UNBOUND:                -0.715
REMARK  Name = 
REMARK  6 active torsions:
REMARK  status: ('A' for Active; 'I' for Inactive)
REMARK    1  A    between atoms: C_2  and  C_4
REMARK    2  A    between atoms: N_8  and  C_9
REMARK    3  A    between atoms: C_9  and  C_10
REMARK    4  A    between atoms: C_10  and  C_11
REMARK    5  A    between atoms: C_15  and  O_16
REMARK    6  A    between atoms: O_16  and  C_17
REMARK                            x       y       z     vdW  Elec       q    Type
REMARK                         _______ _______ _______ _____ _____    ______ ____
ROOT
ATOM      1  C   UNL     1      43.874   4.814  11.076  0.00  0.00    +0.000 C 
ENDROOT
BRANCH   1   6
ATOM      2  C   UNL     1      46.604   2.407   7.547  0.00  0.00    +0.000 A 
ATOM      3  C   UNL     1      45.758   1.892   8.522  0.00  0.00    +0.000 A 
ATOM      4  C   UNL     1      44.968   2.768   9.266  0.00  0.00    +0.000 A 
ATOM      5  C   UNL     1      45.052   4.141   9.043  0.00  0.00    +0.000 A 
ATOM      6  N   UNL     1      44.235   5.059   9.686  0.00  0.00    +0.000 N 
ATOM      7  N   UNL     1      45.897   4.651   8.126  0.00  0.00    +0.000 NA
ATOM      8  C   UNL     1      46.655   3.787   7.404  0.00  0.00    +0.000 A 
ATOM      9  H   UNL     1      44.604   5.985   9.473  0.00  0.00    +0.000 HD
BRANCH   2  11
ATOM     10  N   UNL     1      48.607   2.078   6.217  0.00  0.00    +0.000 N 
ATOM     11  C   UNL     1      47.427   1.549   6.670  0.00  0.00    +0.000 C 
ATOM     12  O   UNL     1      47.093   0.409   6.392  0.00  0.00    +0.000 OA
ATOM     13  H   UNL     1      49.216   1.447   5.711  0.00  0.00    +0.000 HD
ATOM     14  H   UNL     1      49.027   2.901   6.629  0.00  0.00    +0.000 HD
ENDBRANCH   2  11
ENDBRANCH   1   6
BRANCH   1  15
ATOM     15  C   UNL     1      45.104   4.436  11.908  0.00  0.00    +0.000 C 
BRANCH  15  16
ATOM     16  C   UNL     1      45.778   5.675  12.454  0.00  0.00    +0.000 A 
ATOM     17  C   UNL     1      47.105   5.630  12.900  0.00  0.00    +0.000 A 
ATOM     18  C   UNL     1      47.740   6.793  13.338  0.00  0.00    +0.000 A 
ATOM     19  C   UNL     1      47.060   8.014  13.338  0.00  0.00    +0.000 A 
ATOM     20  C   UNL     1      45.738   8.067  12.904  0.00  0.00    +0.000 A 
ATOM     21  C   UNL     1      45.105   6.903  12.458  0.00  0.00    +0.000 A 
BRANCH  20  22
ATOM     22  O   UNL     1      44.982   9.209  12.823  0.00  0.00    +0.000 OA
BRANCH  22  23
ATOM     23  C   UNL     1      44.979   9.962  11.588  0.00  0.00    +0.000 C 
ATOM     24  C   UNL     1      45.830  11.245  11.521  0.00  0.00    +0.000 C 
ATOM     25  N   UNL     1      44.661  12.018  11.075  0.00  0.00    +0.000 NA
ATOM     26  C   UNL     1      43.768  10.901  11.412  0.00  0.00    +0.000 C 
ATOM     27  H   UNL     1      44.670  12.260  10.085  0.00  0.00    +0.000 HD
ENDBRANCH  22  23
ENDBRANCH  20  22
ENDBRANCH  15  16
ENDBRANCH   1  15
TORSDOF 6
ENDMDL
MODEL 4
REMARK VINA RESULT:    -7.004      2.118      8.147
REMARK INTER + INTRA:         -10.176
REMARK INTER:                  -9.621
REMARK INTRA:                  -0.555
REMARK UNBOUND:                -0.715
REMARK  Name = 
REMARK  6 active torsions:
REMARK  status: ('A' for Active; 'I' for Inactive)
REMARK    1  A    between atoms: C_2  and  C_4
REMARK    2  A    between atoms: N_8  and  C_9
REMARK    3  A    between atoms: C_9  and  C_10
REMARK    4  A    between atoms: C_10  and  C_11
REMARK    5  A    between atoms: C_15  and  O_16
REMARK    6  A    between atoms: O_16  and  C_17
REMARK                            x       y       z     vdW  Elec       q    Type
REMARK                         _______ _______ _______ _____ _____    ______ ____
ROOT
ATOM      1  C   UNL     1      45.649   6.233  12.555  0.00  0.00    +0.000 C 
ENDROOT
BRANCH   1   6
ATOM      2  C   UNL     1      48.317   4.700  16.583  0.00  0.00    +0.000 A 
ATOM      3  C   UNL     1      47.265   4.076  15.923  0.00  0.00    +0.000 A 
ATOM      4  C   UNL     1      46.808   4.611  14.719  0.00  0.00    +0.000 A 
ATOM      5  C   UNL     1      47.390   5.769  14.207  0.00  0.00    +0.000 A 
ATOM      6  N   UNL     1      47.043   6.304  12.975  0.00  0.00    +0.000 N 
ATOM      7  N   UNL     1      48.385   6.401  14.859  0.00  0.00    +0.000 NA
ATOM      8  C   UNL     1      48.825   5.865  16.027  0.00  0.00    +0.000 A 
ATOM      9  H   UNL     1      47.486   7.219  12.913  0.00  0.00    +0.000 HD
BRANCH   2  11
ATOM     10  N   UNL     1      50.071   4.744  18.260  0.00  0.00    +0.000 N 
ATOM     11  C   UNL     1      48.906   4.167  17.830  0.00  0.00    +0.000 C 
ATOM     12  O   UNL     1      48.361   3.280  18.468  0.00  0.00    +0.000 OA
ATOM     13  H   UNL     1      50.407   4.451  19.170  0.00  0.00    +0.000 HD
ATOM     14  H   UNL     1      50.401   5.632  17.906  0.00  0.00    +0.000 HD
ENDBRANCH   2  11
ENDBRANCH   1   6
BRANCH   1  15
ATOM     15  C   UNL     1      45.511   6.500  11.052  0.00  0.00    +0.000 C 
BRANCH  15  16
ATOM     16  C   UNL     1      45.277   5.209  10.301  0.00  0.00    +0.000 A 
ATOM     17  C   UNL     1      44.457   4.209  10.837  0.00  0.00    +0.000 A 
ATOM     18  C   UNL     1      44.190   3.049  10.106  0.00  0.00    +0.000 A 
ATOM     19  C   UNL     1      44.739   2.874   8.832  0.00  0.00    +0.000 A 
ATOM     20  C   UNL     1      45.561   3.860   8.294  0.00  0.00    +0.000 A 
ATOM     21  C   UNL     1      45.821   5.024   9.023  0.00  0.00    +0.000 A 
BRANCH  20  22
ATOM     22  O   UNL     1      46.124   3.818   7.044  0.00  0.00    +0.000 OA
BRANCH  22  23
ATOM     23  C   UNL     1      46.569   2.547   6.517  0.00  0.00    +0.000 C 
ATOM     24  C   UNL     1      47.990   2.073   6.876  0.00  0.00    +0.000 C 
ATOM     25  N   UNL     1      48.303   1.878   5.452  0.00  0.00    +0.000 NA
ATOM     26  C   UNL     1      47.083   2.599   5.063  0.00  0.00    +0.000 C 
ATOM     27  H   UNL     1      48.323   0.903   5.156  0.00  0.00    +0.000 HD
ENDBRANCH  22  23
ENDBRANCH  20  22
ENDBRANCH  15  16
ENDBRANCH   1  15
TORSDOF 6
ENDMDL
MODEL 5
REMARK VINA RESULT:    -6.459      3.028      4.445
REMARK INTER + INTRA:          -9.440
REMARK INTER:                  -8.663
REMARK INTRA:                  -0.777
REMARK UNBOUND:                -0.715
REMARK  Name = 
REMARK  6 active torsions:
REMARK  status: ('A' for Active; 'I' for Inactive)
REMARK    1  A    between atoms: C_2  and  C_4
REMARK    2  A    between atoms: N_8  and  C_9
REMARK    3  A    between atoms: C_9  and  C_10
REMARK    4  A    between atoms: C_10  and  C_11
REMARK    5  A    between atoms: C_15  and  O_16
REMARK    6  A    between atoms: O_16  and  C_17
REMARK                            x       y       z     vdW  Elec       q    Type
REMARK                         _______ _______ _______ _____ _____    ______ ____
ROOT
ATOM      1  C   UNL     1      46.294   8.566  13.157  0.00  0.00    +0.000 C 
ENDROOT
BRANCH   1   6
ATOM      2  C   UNL     1      44.419   4.212  11.363  0.00  0.00    +0.000 A 
ATOM      3  C   UNL     1      44.301   4.778  12.626  0.00  0.00    +0.000 A 
ATOM      4  C   UNL     1      44.753   6.081  12.831  0.00  0.00    +0.000 A 
ATOM      5  C   UNL     1      45.337   6.788  11.781  0.00  0.00    +0.000 A 
ATOM      6  N   UNL     1      45.729   8.114  11.892  0.00  0.00    +0.000 N 
ATOM      7  N   UNL     1      45.489   6.233  10.562  0.00  0.00    +0.000 NA
ATOM      8  C   UNL     1      45.037   4.966  10.375  0.00  0.00    +0.000 A 
ATOM      9  H   UNL     1      46.263   8.336  11.053  0.00  0.00    +0.000 HD
BRANCH   2  11
ATOM     10  N   UNL     1      44.518   2.201  10.008  0.00  0.00    +0.000 N 
ATOM     11  C   UNL     1      43.909   2.863  11.041  0.00  0.00    +0.000 C 
ATOM     12  O   UNL     1      43.013   2.345  11.688  0.00  0.00    +0.000 OA
ATOM     13  H   UNL     1      44.240   1.237   9.867  0.00  0.00    +0.000 HD
ATOM     14  H   UNL     1      45.412   2.487   9.631  0.00  0.00    +0.000 HD
ENDBRANCH   2  11
ENDBRANCH   1   6
BRANCH   1  15
ATOM     15  C   UNL     1      47.814   8.371  13.184  0.00  0.00    +0.000 C 
BRANCH  15  16
ATOM     16  C   UNL     1      48.281   8.017  14.577  0.00  0.00    +0.000 A 
ATOM     17  C   UNL     1      48.350   8.994  15.578  0.00  0.00    +0.000 A 
ATOM     18  C   UNL     1      48.716   8.645  16.879  0.00  0.00    +0.000 A 
ATOM     19  C   UNL     1      49.017   7.318  17.198  0.00  0.00    +0.000 A 
ATOM     20  C   UNL     1      48.958   6.341  16.208  0.00  0.00    +0.000 A 
ATOM     21  C   UNL     1      48.584   6.690  14.907  0.00  0.00    +0.000 A 
BRANCH  20  22
ATOM     22  O   UNL     1      49.193   5.004  16.407  0.00  0.00    +0.000 OA
BRANCH  22  23
ATOM     23  C   UNL     1      48.508   4.324  17.484  0.00  0.00    +0.000 C 
ATOM     24  C   UNL     1      48.321   2.798  17.372  0.00  0.00    +0.000 C 
ATOM     25  N   UNL     1      46.875   2.942  17.598  0.00  0.00    +0.000 NA
ATOM     26  C   UNL     1      46.969   4.396  17.412  0.00  0.00    +0.000 C 
ATOM     27  H   UNL     1      46.565   2.660  18.527  0.00  0.00    +0.000 HD
ENDBRANCH  22  23
ENDBRANCH  20  22
ENDBRANCH  15  16
ENDBRANCH   1  15
TORSDOF 6
ENDMDL
MODEL 6
REMARK VINA RESULT:    -6.306      3.138      4.969
REMARK INTER + INTRA:          -9.234
REMARK INTER:                  -8.512
REMARK INTRA:                  -0.722
REMARK UNBOUND:                -0.715
REMARK  Name = 
REMARK  6 active torsions:
REMARK  status: ('A' for Active; 'I' for Inactive)
REMARK    1  A    between atoms: C_2  and  C_4
REMARK    2  A    between atoms: N_8  and  C_9
REMARK    3  A    between atoms: C_9  and  C_10
REMARK    4  A    between atoms: C_10  and  C_11
REMARK    5  A    between atoms: C_15  and  O_16
REMARK    6  A    between atoms: O_16  and  C_17
REMARK                            x       y       z     vdW  Elec       q    Type
REMARK                         _______ _______ _______ _____ _____    ______ ____
ROOT
ATOM      1  C   UNL     1      48.741   7.527  13.191  0.00  0.00    +0.000 C 
ENDROOT
BRANCH   1   6
ATOM      2  C   UNL     1      45.088   4.311  11.772  0.00  0.00    +0.000 A 
ATOM      3  C   UNL     1      45.772   4.405  12.979  0.00  0.00    +0.000 A 
ATOM      4  C   UNL     1      46.612   5.496  13.199  0.00  0.00    +0.000 A 
ATOM      5  C   UNL     1      46.775   6.460  12.206  0.00  0.00    +0.000 A 
ATOM      6  N   UNL     1      47.526   7.612  12.391  0.00  0.00    +0.000 N 
ATOM      7  N   UNL     1      46.144   6.358  11.019  0.00  0.00    +0.000 NA
ATOM      8  C   UNL     1      45.324   5.294  10.821  0.00  0.00    +0.000 A 
ATOM      9  H   UNL     1      47.616   8.056  11.479  0.00  0.00    +0.000 HD
BRANCH   2  11
ATOM     10  N   UNL     1      43.802   2.393  12.518  0.00  0.00    +0.000 N 
ATOM     11  C   UNL     1      44.130   3.225  11.480  0.00  0.00    +0.000 C 
ATOM     12  O   UNL     1      43.623   3.096  10.377  0.00  0.00    +0.000 OA
ATOM     13  H   UNL     1      43.063   1.723  12.339  0.00  0.00    +0.000 HD
ATOM     14  H   UNL     1      43.997   2.624  13.483  0.00  0.00    +0.000 HD
ENDBRANCH   2  11
ENDBRANCH   1   6
BRANCH   1  15
ATOM     15  C   UNL     1      48.723   8.549  14.333  0.00  0.00    +0.000 C 
BRANCH  15  16
ATOM     16  C   UNL     1      48.816   7.853  15.672  0.00  0.00    +0.000 A 
ATOM     17  C   UNL     1      48.426   8.507  16.847  0.00  0.00    +0.000 A 
ATOM     18  C   UNL     1      48.451   7.833  18.070  0.00  0.00    +0.000 A 
ATOM     19  C   UNL     1      48.865   6.500  18.135  0.00  0.00    +0.000 A 
ATOM     20  C   UNL     1      49.262   5.843  16.973  0.00  0.00    +0.000 A 
ATOM     21  C   UNL     1      49.230   6.516  15.748  0.00  0.00    +0.000 A 
BRANCH  20  22
ATOM     22  O   UNL     1      49.651   4.530  16.906  0.00  0.00    +0.000 OA
BRANCH  22  23
ATOM     23  C   UNL     1      48.638   3.502  16.806  0.00  0.00    +0.000 C 
ATOM     24  C   UNL     1      47.201   3.934  16.456  0.00  0.00    +0.000 C 
ATOM     25  N   UNL     1      46.682   3.225  17.635  0.00  0.00    +0.000 NA
ATOM     26  C   UNL     1      48.044   3.052  18.157  0.00  0.00    +0.000 C 
ATOM     27  H   UNL     1      46.203   2.351  17.422  0.00  0.00    +0.000 HD
ENDBRANCH  22  23
ENDBRANCH  20  22
ENDBRANCH  15  16
ENDBRANCH   1  15
TORSDOF 6
ENDMDL
MODEL 7
REMARK VINA RESULT:    -6.256      4.187      5.877
REMARK INTER + INTRA:          -9.165
REMARK INTER:                  -8.379
REMARK INTRA:                  -0.786
REMARK UNBOUND:                -0.715
REMARK  Name = 
REMARK  6 active torsions:
REMARK  status: ('A' for Active; 'I' for Inactive)
REMARK    1  A    between atoms: C_2  and  C_4
REMARK    2  A    between atoms: N_8  and  C_9
REMARK    3  A    between atoms: C_9  and  C_10
REMARK    4  A    between atoms: C_10  and  C_11
REMARK    5  A    between atoms: C_15  and  O_16
REMARK    6  A    between atoms: O_16  and  C_17
REMARK                            x       y       z     vdW  Elec       q    Type
REMARK                         _______ _______ _______ _____ _____    ______ ____
ROOT
ATOM      1  C   UNL     1      49.313   8.171  12.659  0.00  0.00    +0.000 C 
ENDROOT
BRANCH   1   6
ATOM      2  C   UNL     1      45.151   5.297  12.996  0.00  0.00    +0.000 A 
ATOM      3  C   UNL     1      45.337   6.523  12.369  0.00  0.00    +0.000 A 
ATOM      4  C   UNL     1      46.628   7.037  12.254  0.00  0.00    +0.000 A 
ATOM      5  C   UNL     1      47.707   6.333  12.786  0.00  0.00    +0.000 A 
ATOM      6  N   UNL     1      49.023   6.744  12.631  0.00  0.00    +0.000 N 
ATOM      7  N   UNL     1      47.531   5.161  13.428  0.00  0.00    +0.000 NA
ATOM      8  C   UNL     1      46.270   4.670  13.527  0.00  0.00    +0.000 A 
ATOM      9  H   UNL     1      49.590   6.156  13.241  0.00  0.00    +0.000 HD
BRANCH   2  11
ATOM     10  N   UNL     1      42.731   5.469  13.058  0.00  0.00    +0.000 N 
ATOM     11  C   UNL     1      43.827   4.649  13.105  0.00  0.00    +0.000 C 
ATOM     12  O   UNL     1      43.712   3.437  13.195  0.00  0.00    +0.000 OA
ATOM     13  H   UNL     1      41.829   5.009  13.021  0.00  0.00    +0.000 HD
ATOM     14  H   UNL     1      42.781   6.424  12.730  0.00  0.00    +0.000 HD
ENDBRANCH   2  11
ENDBRANCH   1   6
BRANCH   1  15
ATOM     15  C   UNL     1      49.350   8.699  14.097  0.00  0.00    +0.000 C 
BRANCH  15  16
ATOM     16  C   UNL     1      50.161   7.780  14.982  0.00  0.00    +0.000 A 
ATOM     17  C   UNL     1      51.556   7.890  15.038  0.00  0.00    +0.000 A 
ATOM     18  C   UNL     1      52.291   7.083  15.909  0.00  0.00    +0.000 A 
ATOM     19  C   UNL     1      51.644   6.158  16.733  0.00  0.00    +0.000 A 
ATOM     20  C   UNL     1      50.258   6.037  16.678  0.00  0.00    +0.000 A 
ATOM     21  C   UNL     1      49.522   6.850  15.811  0.00  0.00    +0.000 A 
BRANCH  20  22
ATOM     22  O   UNL     1      49.511   5.195  17.462  0.00  0.00    +0.000 OA
BRANCH  22  23
ATOM     23  C   UNL     1      48.206   4.778  16.998  0.00  0.00    +0.000 C 
ATOM     24  C   UNL     1      47.094   4.586  18.047  0.00  0.00    +0.000 C 
ATOM     25  N   UNL     1      46.834   3.227  17.548  0.00  0.00    +0.000 NA
ATOM     26  C   UNL     1      48.067   3.262  16.751  0.00  0.00    +0.000 C 
ATOM     27  H   UNL     1      45.982   3.139  16.995  0.00  0.00    +0.000 HD
ENDBRANCH  22  23
ENDBRANCH  20  22
ENDBRANCH  15  16
ENDBRANCH   1  15
TORSDOF 6
ENDMDL
MODEL 8
REMARK VINA RESULT:    -5.724      3.094      8.065
REMARK INTER + INTRA:          -8.448
REMARK INTER:                  -7.642
REMARK INTRA:                  -0.805
REMARK UNBOUND:                -0.715
REMARK  Name = 
REMARK  6 active torsions:
REMARK  status: ('A' for Active; 'I' for Inactive)
REMARK    1  A    between atoms: C_2  and  C_4
REMARK    2  A    between atoms: N_8  and  C_9
REMARK    3  A    between atoms: C_9  and  C_10
REMARK    4  A    between atoms: C_10  and  C_11
REMARK    5  A    between atoms: C_15  and  O_16
REMARK    6  A    between atoms: O_16  and  C_17
REMARK                            x       y       z     vdW  Elec       q    Type
REMARK                         _______ _______ _______ _____ _____    ______ ____
ROOT
ATOM      1  C   UNL     1      49.432   8.614  13.555  0.00  0.00    +0.000 C 
ENDROOT
BRANCH   1   6
ATOM      2  C   UNL     1      49.620   5.365  17.441  0.00  0.00    +0.000 A 
ATOM      3  C   UNL     1      48.542   5.745  16.650  0.00  0.00    +0.000 A 
ATOM      4  C   UNL     1      48.774   6.522  15.515  0.00  0.00    +0.000 A 
ATOM      5  C   UNL     1      50.070   6.925  15.202  0.00  0.00    +0.000 A 
ATOM      6  N   UNL     1      50.382   7.624  14.045  0.00  0.00    +0.000 N 
ATOM      7  N   UNL     1      51.116   6.592  15.983  0.00  0.00    +0.000 NA
ATOM      8  C   UNL     1      50.877   5.830  17.082  0.00  0.00    +0.000 A 
ATOM      9  H   UNL     1      51.349   7.932  14.136  0.00  0.00    +0.000 HD
BRANCH   2  11
ATOM     10  N   UNL     1      49.287   3.155  18.387  0.00  0.00    +0.000 N 
ATOM     11  C   UNL     1      49.473   4.491  18.624  0.00  0.00    +0.000 C 
ATOM     12  O   UNL     1      49.552   4.931  19.760  0.00  0.00    +0.000 OA
ATOM     13  H   UNL     1      49.300   2.549  19.199  0.00  0.00    +0.000 HD
ATOM     14  H   UNL     1      49.474   2.731  17.487  0.00  0.00    +0.000 HD
ENDBRANCH   2  11
ENDBRANCH   1   6
BRANCH   1  15
ATOM     15  C   UNL     1      48.949   8.266  12.143  0.00  0.00    +0.000 C 
BRANCH  15  16
ATOM     16  C   UNL     1      47.503   7.827  12.168  0.00  0.00    +0.000 A 
ATOM     17  C   UNL     1      46.469   8.771  12.186  0.00  0.00    +0.000 A 
ATOM     18  C   UNL     1      45.136   8.358  12.139  0.00  0.00    +0.000 A 
ATOM     19  C   UNL     1      44.819   6.998  12.075  0.00  0.00    +0.000 A 
ATOM     20  C   UNL     1      45.840   6.051  12.063  0.00  0.00    +0.000 A 
ATOM     21  C   UNL     1      47.174   6.467  12.103  0.00  0.00    +0.000 A 
BRANCH  20  22
ATOM     22  O   UNL     1      45.654   4.696  11.964  0.00  0.00    +0.000 OA
BRANCH  22  23
ATOM     23  C   UNL     1      44.420   4.196  11.398  0.00  0.00    +0.000 C 
ATOM     24  C   UNL     1      43.666   3.095  12.168  0.00  0.00    +0.000 C 
ATOM     25  N   UNL     1      43.639   2.250  10.965  0.00  0.00    +0.000 NA
ATOM     26  C   UNL     1      44.604   3.133  10.296  0.00  0.00    +0.000 C 
ATOM     27  H   UNL     1      42.730   2.202  10.506  0.00  0.00    +0.000 HD
ENDBRANCH  22  23
ENDBRANCH  20  22
ENDBRANCH  15  16
ENDBRANCH   1  15
TORSDOF 6
ENDMDL
MODEL 9
REMARK VINA RESULT:    -5.598      4.247      5.865
REMARK INTER + INTRA:          -8.277
REMARK INTER:                  -7.471
REMARK INTRA:                  -0.805
REMARK UNBOUND:                -0.715
REMARK  Name = 
REMARK  6 active torsions:
REMARK  status: ('A' for Active; 'I' for Inactive)
REMARK    1  A    between atoms: C_2  and  C_4
REMARK    2  A    between atoms: N_8  and  C_9
REMARK    3  A    between atoms: C_9  and  C_10
REMARK    4  A    between atoms: C_10  and  C_11
REMARK    5  A    between atoms: C_15  and  O_16
REMARK    6  A    between atoms: O_16  and  C_17
REMARK                            x       y       z     vdW  Elec       q    Type
REMARK                         _______ _______ _______ _____ _____    ______ ____
ROOT
ATOM      1  C   UNL     1      49.068   8.047  13.196  0.00  0.00    +0.000 C 
ENDROOT
BRANCH   1   6
ATOM      2  C   UNL     1      45.094   4.905  13.021  0.00  0.00    +0.000 A 
ATOM      3  C   UNL     1      45.220   6.207  12.552  0.00  0.00    +0.000 A 
ATOM      4  C   UNL     1      46.479   6.809  12.551  0.00  0.00    +0.000 A 
ATOM      5  C   UNL     1      47.583   6.113  13.039  0.00  0.00    +0.000 A 
ATOM      6  N   UNL     1      48.874   6.618  12.988  0.00  0.00    +0.000 N 
ATOM      7  N   UNL     1      47.462   4.864  13.530  0.00  0.00    +0.000 NA
ATOM      8  C   UNL     1      46.233   4.288  13.519  0.00  0.00    +0.000 A 
ATOM      9  H   UNL     1      49.457   5.997  13.547  0.00  0.00    +0.000 HD
BRANCH   2  11
ATOM     10  N   UNL     1      43.870   2.836  12.691  0.00  0.00    +0.000 N 
ATOM     11  C   UNL     1      43.813   4.169  12.999  0.00  0.00    +0.000 C 
ATOM     12  O   UNL     1      42.756   4.713  13.279  0.00  0.00    +0.000 OA
ATOM     13  H   UNL     1      43.006   2.316  12.788  0.00  0.00    +0.000 HD
ATOM     14  H   UNL     1      44.734   2.310  12.710  0.00  0.00    +0.000 HD
ENDBRANCH   2  11
ENDBRANCH   1   6
BRANCH   1  15
ATOM     15  C   UNL     1      50.089   8.309  14.309  0.00  0.00    +0.000 C 
BRANCH  15  16
ATOM     16  C   UNL     1      49.426   8.239  15.666  0.00  0.00    +0.000 A 
ATOM     17  C   UNL     1      48.862   9.382  16.247  0.00  0.00    +0.000 A 
ATOM     18  C   UNL     1      48.192   9.294  17.469  0.00  0.00    +0.000 A 
ATOM     19  C   UNL     1      48.076   8.065  18.125  0.00  0.00    +0.000 A 
ATOM     20  C   UNL     1      48.640   6.925  17.559  0.00  0.00    +0.000 A 
ATOM     21  C   UNL     1      49.305   7.013  16.333  0.00  0.00    +0.000 A 
BRANCH  20  22
ATOM     22  O   UNL     1      48.559   5.662  18.089  0.00  0.00    +0.000 OA
BRANCH  22  23
ATOM     23  C   UNL     1      49.205   4.568  17.397  0.00  0.00    +0.000 C 
ATOM     24  C   UNL     1      48.583   3.164  17.527  0.00  0.00    +0.000 C 
ATOM     25  N   UNL     1      49.876   2.613  17.961  0.00  0.00    +0.000 NA
ATOM     26  C   UNL     1      50.418   3.967  18.136  0.00  0.00    +0.000 C 
ATOM     27  H   UNL     1      50.357   2.061  17.251  0.00  0.00    +0.000 HD
ENDBRANCH  22  23
ENDBRANCH  20  22
ENDBRANCH  15  16
ENDBRANCH   1  15
TORSDOF 6
ENDMDL
