MODEL 1
REMARK VINA RESULT:    -8.151      0.000      0.000
REMARK INTER + INTRA:         -11.941
REMARK INTER:                 -11.011
REMARK INTRA:                  -0.930
REMARK UNBOUND:                -0.930
REMARK  Name = 
REMARK  7 active torsions:
REMARK  status: ('A' for Active; 'I' for Inactive)
REMARK    1  A    between atoms: C_1  and  C_2
REMARK    2  A    between atoms: C_2  and  N_3
REMARK    3  A    between atoms: C_2  and  C_16
REMARK    4  A    between atoms: C_4  and  C_6
REMARK    5  A    between atoms: C_19  and  C_20
REMARK    6  A    between atoms: C_20  and  N_21
REMARK    7  A    between atoms: C_22  and  C_24
REMARK                            x       y       z     vdW  Elec       q    Type
REMARK                         _______ _______ _______ _____ _____    ______ ____
ROOT
ATOM      1  C   UNL     1      46.249   6.987  12.302  0.00  0.00    +0.000 A 
ATOM      2  C   UNL     1      46.562   6.797  10.949  0.00  0.00    +0.000 A 
ATOM      3  C   UNL     1      45.944   5.781  10.209  0.00  0.00    +0.000 A 
ATOM      4  C   UNL     1      44.996   4.937  10.805  0.00  0.00    +0.000 A 
ATOM      5  C   UNL     1      44.686   5.121  12.157  0.00  0.00    +0.000 A 
ATOM      6  C   UNL     1      45.300   6.135  12.892  0.00  0.00    +0.000 A 
ENDROOT
BRANCH   1   8
ATOM      7  C   UNL     1      46.028   9.286  13.272  0.00  0.00    +0.000 C 
ATOM      8  C   UNL     1      46.945   8.065  13.125  0.00  0.00    +0.000 C 
BRANCH   8   9
ATOM      9  N   UNL     1      47.343   7.495  14.405  0.00  0.00    +0.000 N 
ATOM     10  C   UNL     1      48.502   6.785  14.592  0.00  0.00    +0.000 C 
ATOM     11  O   UNL     1      49.335   6.628  13.705  0.00  0.00    +0.000 OA
ATOM     12  H   UNL     1      46.586   7.335  15.063  0.00  0.00    +0.000 HD
BRANCH  10  13
ATOM     13  C   UNL     1      48.735   6.269  15.947  0.00  0.00    +0.000 A 
ATOM     14  C   UNL     1      49.525   6.992  16.829  0.00  0.00    +0.000 A 
ATOM     15  S   UNL     1      49.698   6.253  18.356  0.00  0.00    +0.000 S 
ATOM     16  C   UNL     1      48.757   4.918  17.877  0.00  0.00    +0.000 A 
ATOM     17  N   UNL     1      48.547   3.873  18.720  0.00  0.00    +0.000 NA
ATOM     18  C   UNL     1      47.840   2.916  18.217  0.00  0.00    +0.000 A 
ATOM     19  N   UNL     1      47.312   2.918  16.951  0.00  0.00    +0.000 N 
ATOM     20  C   UNL     1      47.465   3.970  16.080  0.00  0.00    +0.000 A 
ATOM     21  O   UNL     1      46.924   3.976  14.978  0.00  0.00    +0.000 OA
ATOM     22  C   UNL     1      48.284   5.054  16.584  0.00  0.00    +0.000 A 
ATOM     23  H   UNL     1      46.745   2.148  16.627  0.00  0.00    +0.000 HD
ENDBRANCH  10  13
ENDBRANCH   8   9
ENDBRANCH   1   8
BRANCH   4  24
ATOM     24  C   UNL     1      44.379   3.798  10.035  0.00  0.00    +0.000 C 
BRANCH  24  25
ATOM     25  N   UNL     1      45.147   3.524   8.842  0.00  0.00    +0.000 N 
ATOM     26  C   UNL     1      45.548   2.254   8.510  0.00  0.00    +0.000 C 
ATOM     27  O   UNL     1      45.259   1.270   9.185  0.00  0.00    +0.000 OA
ATOM     28  H   UNL     1      45.432   4.320   8.283  0.00  0.00    +0.000 HD
BRANCH  26  29
ATOM     29  C   UNL     1      46.299   2.076   7.241  0.00  0.00    +0.000 A 
ATOM     30  C   UNL     1      46.376   3.177   6.376  0.00  0.00    +0.000 A 
ATOM     31  C   UNL     1      47.114   3.093   5.196  0.00  0.00    +0.000 A 
ATOM     32  C   UNL     1      47.749   1.899   4.906  0.00  0.00    +0.000 A 
ATOM     33  N   UNL     1      47.679   0.807   5.695  0.00  0.00    +0.000 NA
ATOM     34  C   UNL     1      46.950   0.916   6.836  0.00  0.00    +0.000 A 
ATOM     35 CL   UNL     1      46.911  -0.582   7.689  0.00  0.00    +0.000 Cl
ENDBRANCH  26  29
ENDBRANCH  24  25
ENDBRANCH   4  24
TORSDOF 6
ENDMDL
MODEL 2
REMARK VINA RESULT:    -7.933      1.849      2.328
REMARK INTER + INTRA:         -11.646
REMARK INTER:                 -10.680
REMARK INTRA:                  -0.966
REMARK UNBOUND:                -0.930
REMARK  Name = 
REMARK  7 active torsions:
REMARK  status: ('A' for Active; 'I' for Inactive)
REMARK    1  A    between atoms: C_1  and  C_2
REMARK    2  A    between atoms: C_2  and  N_3
REMARK    3  A    between atoms: C_2  and  C_16
REMARK    4  A    between atoms: C_4  and  C_6
REMARK    5  A    between atoms: C_19  and  C_20
REMARK    6  A    between atoms: C_20  and  N_21
REMARK    7  A    between atoms: C_22  and  C_24
REMARK                            x       y       z     vdW  Elec       q    Type
REMARK                         _______ _______ _______ _____ _____    ______ ____
ROOT
ATOM      1  C   UNL     1      47.096   6.571  13.066  0.00  0.00    +0.000 A 
ATOM      2  C   UNL     1      46.725   7.052  11.803  0.00  0.00    +0.000 A 
ATOM      3  C   UNL     1      45.918   6.282  10.956  0.00  0.00    +0.000 A 
ATOM      4  C   UNL     1      45.461   5.018  11.355  0.00  0.00    +0.000 A 
ATOM      5  C   UNL     1      45.835   4.534  12.613  0.00  0.00    +0.000 A 
ATOM      6  C   UNL     1      46.637   5.302  13.458  0.00  0.00    +0.000 A 
ENDROOT
BRANCH   1   8
ATOM      7  C   UNL     1      47.589   8.860  13.957  0.00  0.00    +0.000 C 
ATOM      8  C   UNL     1      48.006   7.384  13.979  0.00  0.00    +0.000 C 
BRANCH   8   9
ATOM      9  N   UNL     1      47.973   6.804  15.315  0.00  0.00    +0.000 N 
ATOM     10  C   UNL     1      49.093   6.395  15.993  0.00  0.00    +0.000 C 
ATOM     11  O   UNL     1      50.229   6.548  15.554  0.00  0.00    +0.000 OA
ATOM     12  H   UNL     1      47.086   6.389  15.585  0.00  0.00    +0.000 HD
BRANCH  10  13
ATOM     13  C   UNL     1      48.870   5.816  17.324  0.00  0.00    +0.000 A 
ATOM     14  C   UNL     1      49.112   4.466  17.533  0.00  0.00    +0.000 A 
ATOM     15  S   UNL     1      48.801   3.953  19.129  0.00  0.00    +0.000 S 
ATOM     16  C   UNL     1      48.291   5.510  19.587  0.00  0.00    +0.000 A 
ATOM     17  N   UNL     1      47.837   5.755  20.845  0.00  0.00    +0.000 NA
ATOM     18  C   UNL     1      47.455   6.973  21.046  0.00  0.00    +0.000 A 
ATOM     19  N   UNL     1      47.500   7.970  20.106  0.00  0.00    +0.000 N 
ATOM     20  C   UNL     1      47.988   7.778  18.836  0.00  0.00    +0.000 A 
ATOM     21  O   UNL     1      48.081   8.705  18.037  0.00  0.00    +0.000 OA
ATOM     22  C   UNL     1      48.395   6.417  18.547  0.00  0.00    +0.000 A 
ATOM     23  H   UNL     1      47.210   8.909  20.337  0.00  0.00    +0.000 HD
ENDBRANCH  10  13
ENDBRANCH   8   9
ENDBRANCH   1   8
BRANCH   4  24
ATOM     24  C   UNL     1      44.651   4.156  10.422  0.00  0.00    +0.000 C 
BRANCH  24  25
ATOM     25  N   UNL     1      45.423   3.825   9.247  0.00  0.00    +0.000 N 
ATOM     26  C   UNL     1      45.416   2.564   8.702  0.00  0.00    +0.000 C 
ATOM     27  O   UNL     1      44.737   1.649   9.160  0.00  0.00    +0.000 OA
ATOM     28  H   UNL     1      46.022   4.549   8.868  0.00  0.00    +0.000 HD
BRANCH  26  29
ATOM     29  C   UNL     1      46.213   2.339   7.470  0.00  0.00    +0.000 A 
ATOM     30  C   UNL     1      46.374   3.426   6.597  0.00  0.00    +0.000 A 
ATOM     31  C   UNL     1      47.158   3.296   5.452  0.00  0.00    +0.000 A 
ATOM     32  C   UNL     1      47.755   2.074   5.203  0.00  0.00    +0.000 A 
ATOM     33  N   UNL     1      47.604   0.995   6.000  0.00  0.00    +0.000 NA
ATOM     34  C   UNL     1      46.832   1.149   7.106  0.00  0.00    +0.000 A 
ATOM     35 CL   UNL     1      46.693  -0.336   7.973  0.00  0.00    +0.000 Cl
ENDBRANCH  26  29
ENDBRANCH  24  25
ENDBRANCH   4  24
TORSDOF 6
ENDMDL
MODEL 3
REMARK VINA RESULT:    -7.803      3.657      8.835
REMARK INTER + INTRA:         -11.471
REMARK INTER:                 -10.283
REMARK INTRA:                  -1.188
REMARK UNBOUND:                -0.930
REMARK  Name = 
REMARK  7 active torsions:
REMARK  status: ('A' for Active; 'I' for Inactive)
REMARK    1  A    between atoms: C_1  and  C_2
REMARK    2  A    between atoms: C_2  and  N_3
REMARK    3  A    between atoms: C_2  and  C_16
REMARK    4  A    between atoms: C_4  and  C_6
REMARK    5  A    between atoms: C_19  and  C_20
REMARK    6  A    between atoms: C_20  and  N_21
REMARK    7  A    between atoms: C_22  and  C_24
REMARK                            x       y       z     vdW  Elec       q    Type
REMARK                         _______ _______ _______ _____ _____    ______ ____
ROOT
ATOM      1  C   UNL     1      48.831   7.577  13.524  0.00  0.00    +0.000 A 
ATOM      2  C   UNL     1      48.286   6.854  14.595  0.00  0.00    +0.000 A 
ATOM      3  C   UNL     1      49.021   6.660  15.771  0.00  0.00    +0.000 A 
ATOM      4  C   UNL     1      50.313   7.188  15.904  0.00  0.00    +0.000 A 
ATOM      5  C   UNL     1      50.861   7.905  14.835  0.00  0.00    +0.000 A 
ATOM      6  C   UNL     1      50.127   8.100  13.664  0.00  0.00    +0.000 A 
ENDROOT
BRANCH   1   8
ATOM      7  C   UNL     1      49.028   7.984  11.060  0.00  0.00    +0.000 C 
ATOM      8  C   UNL     1      48.055   7.760  12.225  0.00  0.00    +0.000 C 
BRANCH   8   9
ATOM      9  N   UNL     1      47.188   6.607  12.028  0.00  0.00    +0.000 N 
ATOM     10  C   UNL     1      45.847   6.702  11.758  0.00  0.00    +0.000 C 
ATOM     11  O   UNL     1      45.277   7.777  11.593  0.00  0.00    +0.000 OA
ATOM     12  H   UNL     1      47.520   5.739  12.439  0.00  0.00    +0.000 HD
BRANCH  10  13
ATOM     13  C   UNL     1      45.123   5.433  11.607  0.00  0.00    +0.000 A 
ATOM     14  C   UNL     1      44.394   4.929  12.675  0.00  0.00    +0.000 A 
ATOM     15  S   UNL     1      43.618   3.449  12.336  0.00  0.00    +0.000 S 
ATOM     16  C   UNL     1      44.263   3.409  10.761  0.00  0.00    +0.000 A 
ATOM     17  N   UNL     1      44.021   2.359   9.932  0.00  0.00    +0.000 NA
ATOM     18  C   UNL     1      44.596   2.446   8.779  0.00  0.00    +0.000 A 
ATOM     19  N   UNL     1      45.381   3.496   8.376  0.00  0.00    +0.000 N 
ATOM     20  C   UNL     1      45.621   4.596   9.165  0.00  0.00    +0.000 A 
ATOM     21  O   UNL     1      46.270   5.552   8.753  0.00  0.00    +0.000 OA
ATOM     22  C   UNL     1      45.028   4.530  10.485  0.00  0.00    +0.000 A 
ATOM     23  H   UNL     1      45.782   3.514   7.449  0.00  0.00    +0.000 HD
ENDBRANCH  10  13
ENDBRANCH   8   9
ENDBRANCH   1   8
BRANCH   4  24
ATOM     24  C   UNL     1      51.135   6.924  17.140  0.00  0.00    +0.000 C 
BRANCH  24  25
ATOM     25  N   UNL     1      51.604   5.558  17.148  0.00  0.00    +0.000 N 
ATOM     26  C   UNL     1      51.047   4.601  17.960  0.00  0.00    +0.000 C 
ATOM     27  O   UNL     1      50.103   4.836  18.709  0.00  0.00    +0.000 OA
ATOM     28  H   UNL     1      52.407   5.341  16.567  0.00  0.00    +0.000 HD
BRANCH  26  29
ATOM     29  C   UNL     1      51.577   3.217  17.862  0.00  0.00    +0.000 A 
ATOM     30  C   UNL     1      52.882   2.991  18.321  0.00  0.00    +0.000 A 
ATOM     31  C   UNL     1      53.418   1.704  18.309  0.00  0.00    +0.000 A 
ATOM     32  C   UNL     1      52.632   0.673  17.825  0.00  0.00    +0.000 A 
ATOM     33  N   UNL     1      51.382   0.851  17.347  0.00  0.00    +0.000 NA
ATOM     34  C   UNL     1      50.888   2.115  17.368  0.00  0.00    +0.000 A 
ATOM     35 CL   UNL     1      49.314   2.174  16.665  0.00  0.00    +0.000 Cl
ENDBRANCH  26  29
ENDBRANCH  24  25
ENDBRANCH   4  24
TORSDOF 6
ENDMDL
MODEL 4
REMARK VINA RESULT:    -7.760      3.850      5.479
REMARK INTER + INTRA:         -11.412
REMARK INTER:                 -10.167
REMARK INTRA:                  -1.245
REMARK UNBOUND:                -0.930
REMARK  Name = 
REMARK  7 active torsions:
REMARK  status: ('A' for Active; 'I' for Inactive)
REMARK    1  A    between atoms: C_1  and  C_2
REMARK    2  A    between atoms: C_2  and  N_3
REMARK    3  A    between atoms: C_2  and  C_16
REMARK    4  A    between atoms: C_4  and  C_6
REMARK    5  A    between atoms: C_19  and  C_20
REMARK    6  A    between atoms: C_20  and  N_21
REMARK    7  A    between atoms: C_22  and  C_24
REMARK                            x       y       z     vdW  Elec       q    Type
REMARK                         _______ _______ _______ _____ _____    ______ ____
ROOT
ATOM      1  C   UNL     1      48.275   4.916  16.428  0.00  0.00    +0.000 A 
ATOM      2  C   UNL     1      48.816   6.161  16.078  0.00  0.00    +0.000 A 
ATOM      3  C   UNL     1      48.426   6.800  14.894  0.00  0.00    +0.000 A 
ATOM      4  C   UNL     1      47.484   6.211  14.038  0.00  0.00    +0.000 A 
ATOM      5  C   UNL     1      46.947   4.966  14.383  0.00  0.00    +0.000 A 
ATOM      6  C   UNL     1      47.334   4.331  15.564  0.00  0.00    +0.000 A 
ENDROOT
BRANCH   1   8
ATOM      7  C   UNL     1      47.809   2.990  17.961  0.00  0.00    +0.000 C 
ATOM      8  C   UNL     1      48.721   4.194  17.694  0.00  0.00    +0.000 C 
BRANCH   8   9
ATOM      9  N   UNL     1      50.124   3.826  17.556  0.00  0.00    +0.000 N 
ATOM     10  C   UNL     1      51.078   4.100  18.503  0.00  0.00    +0.000 C 
ATOM     11  O   UNL     1      50.812   4.623  19.582  0.00  0.00    +0.000 OA
ATOM     12  H   UNL     1      50.442   3.679  16.602  0.00  0.00    +0.000 HD
BRANCH  10  13
ATOM     13  C   UNL     1      52.446   3.671  18.189  0.00  0.00    +0.000 A 
ATOM     14  C   UNL     1      53.486   4.586  18.269  0.00  0.00    +0.000 A 
ATOM     15  S   UNL     1      55.008   3.929  17.869  0.00  0.00    +0.000 S 
ATOM     16  C   UNL     1      54.324   2.408  17.534  0.00  0.00    +0.000 A 
ATOM     17  N   UNL     1      55.092   1.379  17.086  0.00  0.00    +0.000 NA
ATOM     18  C   UNL     1      54.438   0.292  16.843  0.00  0.00    +0.000 A 
ATOM     19  N   UNL     1      53.087   0.137  17.022  0.00  0.00    +0.000 N 
ATOM     20  C   UNL     1      52.279   1.136  17.510  0.00  0.00    +0.000 A 
ATOM     21  O   UNL     1      51.086   0.949  17.725  0.00  0.00    +0.000 OA
ATOM     22  C   UNL     1      52.959   2.391  17.762  0.00  0.00    +0.000 A 
ATOM     23  H   UNL     1      52.641  -0.749  16.838  0.00  0.00    +0.000 HD
ENDBRANCH  10  13
ENDBRANCH   8   9
ENDBRANCH   1   8
BRANCH   4  24
ATOM     24  C   UNL     1      47.113   6.860  12.730  0.00  0.00    +0.000 C 
BRANCH  24  25
ATOM     25  N   UNL     1      46.696   5.860  11.774  0.00  0.00    +0.000 N 
ATOM     26  C   UNL     1      45.383   5.713  11.399  0.00  0.00    +0.000 C 
ATOM     27  O   UNL     1      44.487   6.436  11.828  0.00  0.00    +0.000 OA
ATOM     28  H   UNL     1      47.406   5.224  11.430  0.00  0.00    +0.000 HD
BRANCH  26  29
ATOM     29  C   UNL     1      45.066   4.682  10.380  0.00  0.00    +0.000 A 
ATOM     30  C   UNL     1      45.581   4.870   9.089  0.00  0.00    +0.000 A 
ATOM     31  C   UNL     1      45.367   3.909   8.101  0.00  0.00    +0.000 A 
ATOM     32  C   UNL     1      44.631   2.786   8.430  0.00  0.00    +0.000 A 
ATOM     33  N   UNL     1      44.094   2.578   9.650  0.00  0.00    +0.000 NA
ATOM     34  C   UNL     1      44.314   3.531  10.592  0.00  0.00    +0.000 A 
ATOM     35 CL   UNL     1      43.506   3.143  12.065  0.00  0.00    +0.000 Cl
ENDBRANCH  26  29
ENDBRANCH  24  25
ENDBRANCH   4  24
TORSDOF 6
ENDMDL
MODEL 5
REMARK VINA RESULT:    -7.703      1.750      2.126
REMARK INTER + INTRA:         -11.336
REMARK INTER:                 -10.305
REMARK INTRA:                  -1.031
REMARK UNBOUND:                -0.930
REMARK  Name = 
REMARK  7 active torsions:
REMARK  status: ('A' for Active; 'I' for Inactive)
REMARK    1  A    between atoms: C_1  and  C_2
REMARK    2  A    between atoms: C_2  and  N_3
REMARK    3  A    between atoms: C_2  and  C_16
REMARK    4  A    between atoms: C_4  and  C_6
REMARK    5  A    between atoms: C_19  and  C_20
REMARK    6  A    between atoms: C_20  and  N_21
REMARK    7  A    between atoms: C_22  and  C_24
REMARK                            x       y       z     vdW  Elec       q    Type
REMARK                         _______ _______ _______ _____ _____    ______ ____
ROOT
ATOM      1  C   UNL     1      46.882   6.564  13.090  0.00  0.00    +0.000 A 
ATOM      2  C   UNL     1      46.079   6.807  11.966  0.00  0.00    +0.000 A 
ATOM      3  C   UNL     1      45.258   5.798  11.446  0.00  0.00    +0.000 A 
ATOM      4  C   UNL     1      45.219   4.528  12.039  0.00  0.00    +0.000 A 
ATOM      5  C   UNL     1      46.024   4.282  13.157  0.00  0.00    +0.000 A 
ATOM      6  C   UNL     1      46.839   5.288  13.677  0.00  0.00    +0.000 A 
ENDROOT
BRANCH   1   8
ATOM      7  C   UNL     1      47.333   9.026  13.180  0.00  0.00    +0.000 C 
ATOM      8  C   UNL     1      47.808   7.642  13.640  0.00  0.00    +0.000 C 
BRANCH   8   9
ATOM      9  N   UNL     1      47.870   7.514  15.089  0.00  0.00    +0.000 N 
ATOM     10  C   UNL     1      48.959   7.023  15.763  0.00  0.00    +0.000 C 
ATOM     11  O   UNL     1      50.003   6.710  15.199  0.00  0.00    +0.000 OA
ATOM     12  H   UNL     1      46.970   7.467  15.559  0.00  0.00    +0.000 HD
BRANCH  10  13
ATOM     13  C   UNL     1      48.839   6.949  17.225  0.00  0.00    +0.000 A 
ATOM     14  C   UNL     1      48.770   8.120  17.967  0.00  0.00    +0.000 A 
ATOM     15  S   UNL     1      48.638   7.858  19.647  0.00  0.00    +0.000 S 
ATOM     16  C   UNL     1      48.711   6.170  19.445  0.00  0.00    +0.000 A 
ATOM     17  N   UNL     1      48.694   5.336  20.518  0.00  0.00    +0.000 NA
ATOM     18  C   UNL     1      48.785   4.082  20.221  0.00  0.00    +0.000 A 
ATOM     19  N   UNL     1      48.877   3.587  18.945  0.00  0.00    +0.000 N 
ATOM     20  C   UNL     1      48.857   4.390  17.829  0.00  0.00    +0.000 A 
ATOM     21  O   UNL     1      48.871   3.917  16.697  0.00  0.00    +0.000 OA
ATOM     22  C   UNL     1      48.794   5.810  18.111  0.00  0.00    +0.000 A 
ATOM     23  H   UNL     1      48.919   2.593  18.780  0.00  0.00    +0.000 HD
ENDBRANCH  10  13
ENDBRANCH   8   9
ENDBRANCH   1   8
BRANCH   4  24
ATOM     24  C   UNL     1      44.391   3.419  11.443  0.00  0.00    +0.000 C 
BRANCH  24  25
ATOM     25  N   UNL     1      45.155   2.703  10.447  0.00  0.00    +0.000 N 
ATOM     26  C   UNL     1      45.056   2.991   9.108  0.00  0.00    +0.000 C 
ATOM     27  O   UNL     1      44.337   3.887   8.675  0.00  0.00    +0.000 OA
ATOM     28  H   UNL     1      45.729   1.933  10.770  0.00  0.00    +0.000 HD
BRANCH  26  29
ATOM     29  C   UNL     1      45.914   2.223   8.171  0.00  0.00    +0.000 A 
ATOM     30  C   UNL     1      45.958   0.830   8.329  0.00  0.00    +0.000 A 
ATOM     31  C   UNL     1      46.701   0.047   7.446  0.00  0.00    +0.000 A 
ATOM     32  C   UNL     1      47.391   0.682   6.430  0.00  0.00    +0.000 A 
ATOM     33  N   UNL     1      47.399   2.020   6.259  0.00  0.00    +0.000 NA
ATOM     34  C   UNL     1      46.671   2.759   7.135  0.00  0.00    +0.000 A 
ATOM     35 CL   UNL     1      46.844   4.445   6.814  0.00  0.00    +0.000 Cl
ENDBRANCH  26  29
ENDBRANCH  24  25
ENDBRANCH   4  24
TORSDOF 6
ENDMDL
MODEL 6
REMARK VINA RESULT:    -7.602      3.969      8.533
REMARK INTER + INTRA:         -11.199
REMARK INTER:                 -10.181
REMARK INTRA:                  -1.018
REMARK UNBOUND:                -0.930
REMARK  Name = 
REMARK  7 active torsions:
REMARK  status: ('A' for Active; 'I' for Inactive)
REMARK    1  A    between atoms: C_1  and  C_2
REMARK    2  A    between atoms: C_2  and  N_3
REMARK    3  A    between atoms: C_2  and  C_16
REMARK    4  A    between atoms: C_4  and  C_6
REMARK    5  A    between atoms: C_19  and  C_20
REMARK    6  A    between atoms: C_20  and  N_21
REMARK    7  A    between atoms: C_22  and  C_24
REMARK                            x       y       z     vdW  Elec       q    Type
REMARK                         _______ _______ _______ _____ _____    ______ ____
ROOT
ATOM      1  C   UNL     1      48.237   7.623  13.938  0.00  0.00    +0.000 A 
ATOM      2  C   UNL     1      48.798   8.542  14.835  0.00  0.00    +0.000 A 
ATOM      3  C   UNL     1      49.177   8.141  16.123  0.00  0.00    +0.000 A 
ATOM      4  C   UNL     1      49.006   6.813  16.539  0.00  0.00    +0.000 A 
ATOM      5  C   UNL     1      48.441   5.895  15.646  0.00  0.00    +0.000 A 
ATOM      6  C   UNL     1      48.067   6.294  14.363  0.00  0.00    +0.000 A 
ENDROOT
BRANCH   1   8
ATOM      7  C   UNL     1      48.970   8.651  11.774  0.00  0.00    +0.000 C 
ATOM      8  C   UNL     1      47.786   8.058  12.548  0.00  0.00    +0.000 C 
BRANCH   8   9
ATOM      9  N   UNL     1      47.177   6.920  11.874  0.00  0.00    +0.000 N 
ATOM     10  C   UNL     1      45.872   6.897  11.450  0.00  0.00    +0.000 C 
ATOM     11  O   UNL     1      45.125   7.866  11.546  0.00  0.00    +0.000 OA
ATOM     12  H   UNL     1      47.630   6.025  12.037  0.00  0.00    +0.000 HD
BRANCH  10  13
ATOM     13  C   UNL     1      45.421   5.658  10.803  0.00  0.00    +0.000 A 
ATOM     14  C   UNL     1      45.649   5.472   9.447  0.00  0.00    +0.000 A 
ATOM     15  S   UNL     1      45.060   3.986   8.852  0.00  0.00    +0.000 S 
ATOM     16  C   UNL     1      44.443   3.558  10.379  0.00  0.00    +0.000 A 
ATOM     17  N   UNL     1      43.760   2.395  10.556  0.00  0.00    +0.000 NA
ATOM     18  C   UNL     1      43.323   2.212  11.758  0.00  0.00    +0.000 A 
ATOM     19  N   UNL     1      43.519   3.080  12.801  0.00  0.00    +0.000 N 
ATOM     20  C   UNL     1      44.237   4.246  12.677  0.00  0.00    +0.000 A 
ATOM     21  O   UNL     1      44.456   4.970  13.643  0.00  0.00    +0.000 OA
ATOM     22  C   UNL     1      44.717   4.518  11.337  0.00  0.00    +0.000 A 
ATOM     23  H   UNL     1      43.172   2.864  13.724  0.00  0.00    +0.000 HD
ENDBRANCH  10  13
ENDBRANCH   8   9
ENDBRANCH   1   8
BRANCH   4  24
ATOM     24  C   UNL     1      49.347   6.390  17.945  0.00  0.00    +0.000 C 
BRANCH  24  25
ATOM     25  N   UNL     1      49.871   5.044  17.951  0.00  0.00    +0.000 N 
ATOM     26  C   UNL     1      51.145   4.756  17.530  0.00  0.00    +0.000 C 
ATOM     27  O   UNL     1      51.927   5.622  17.147  0.00  0.00    +0.000 OA
ATOM     28  H   UNL     1      49.237   4.303  18.228  0.00  0.00    +0.000 HD
BRANCH  26  29
ATOM     29  C   UNL     1      51.600   3.345  17.615  0.00  0.00    +0.000 A 
ATOM     30  C   UNL     1      52.910   3.114  18.058  0.00  0.00    +0.000 A 
ATOM     31  C   UNL     1      53.379   1.810  18.214  0.00  0.00    +0.000 A 
ATOM     32  C   UNL     1      52.523   0.767  17.912  0.00  0.00    +0.000 A 
ATOM     33  N   UNL     1      51.265   0.944  17.456  0.00  0.00    +0.000 NA
ATOM     34  C   UNL     1      50.836   2.224  17.309  0.00  0.00    +0.000 A 
ATOM     35 CL   UNL     1      49.239   2.270  16.660  0.00  0.00    +0.000 Cl
ENDBRANCH  26  29
ENDBRANCH  24  25
ENDBRANCH   4  24
TORSDOF 6
ENDMDL
MODEL 7
REMARK VINA RESULT:    -7.029      4.983      7.372
REMARK INTER + INTRA:         -10.425
REMARK INTER:                  -9.478
REMARK INTRA:                  -0.947
REMARK UNBOUND:                -0.930
REMARK  Name = 
REMARK  7 active torsions:
REMARK  status: ('A' for Active; 'I' for Inactive)
REMARK    1  A    between atoms: C_1  and  C_2
REMARK    2  A    between atoms: C_2  and  N_3
REMARK    3  A    between atoms: C_2  and  C_16
REMARK    4  A    between atoms: C_4  and  C_6
REMARK    5  A    between atoms: C_19  and  C_20
REMARK    6  A    between atoms: C_20  and  N_21
REMARK    7  A    between atoms: C_22  and  C_24
REMARK                            x       y       z     vdW  Elec       q    Type
REMARK                         _______ _______ _______ _____ _____    ______ ____
ROOT
ATOM      1  C   UNL     1      47.322   8.469  12.228  0.00  0.00    +0.000 A 
ATOM      2  C   UNL     1      47.870   9.728  11.947  0.00  0.00    +0.000 A 
ATOM      3  C   UNL     1      49.218   9.856  11.588  0.00  0.00    +0.000 A 
ATOM      4  C   UNL     1      50.045   8.727  11.498  0.00  0.00    +0.000 A 
ATOM      5  C   UNL     1      49.502   7.470  11.783  0.00  0.00    +0.000 A 
ATOM      6  C   UNL     1      48.158   7.343  12.138  0.00  0.00    +0.000 A 
ENDROOT
BRANCH   1   8
ATOM      7  C   UNL     1      45.075   9.576  12.258  0.00  0.00    +0.000 C 
ATOM      8  C   UNL     1      45.867   8.324  12.657  0.00  0.00    +0.000 C 
BRANCH   8   9
ATOM      9  N   UNL     1      45.326   7.100  12.081  0.00  0.00    +0.000 N 
ATOM     10  C   UNL     1      45.358   5.884  12.713  0.00  0.00    +0.000 C 
ATOM     11  O   UNL     1      45.790   5.739  13.853  0.00  0.00    +0.000 OA
ATOM     12  H   UNL     1      45.243   7.098  11.068  0.00  0.00    +0.000 HD
BRANCH  10  13
ATOM     13  C   UNL     1      44.781   4.753  11.975  0.00  0.00    +0.000 A 
ATOM     14  C   UNL     1      43.984   3.834  12.643  0.00  0.00    +0.000 A 
ATOM     15  S   UNL     1      43.398   2.582  11.645  0.00  0.00    +0.000 S 
ATOM     16  C   UNL     1      44.225   3.201  10.292  0.00  0.00    +0.000 A 
ATOM     17  N   UNL     1      44.182   2.561   9.094  0.00  0.00    +0.000 NA
ATOM     18  C   UNL     1      44.879   3.125   8.163  0.00  0.00    +0.000 A 
ATOM     19  N   UNL     1      45.602   4.279   8.320  0.00  0.00    +0.000 N 
ATOM     20  C   UNL     1      45.641   4.981   9.501  0.00  0.00    +0.000 A 
ATOM     21  O   UNL     1      46.240   6.048   9.594  0.00  0.00    +0.000 OA
ATOM     22  C   UNL     1      44.906   4.369  10.590  0.00  0.00    +0.000 A 
ATOM     23  H   UNL     1      46.105   4.682   7.543  0.00  0.00    +0.000 HD
ENDBRANCH  10  13
ENDBRANCH   8   9
ENDBRANCH   1   8
BRANCH   4  24
ATOM     24  C   UNL     1      51.512   8.864  11.181  0.00  0.00    +0.000 C 
BRANCH  24  25
ATOM     25  N   UNL     1      51.897   7.910  10.166  0.00  0.00    +0.000 N 
ATOM     26  C   UNL     1      52.887   8.177   9.253  0.00  0.00    +0.000 C 
ATOM     27  O   UNL     1      53.523   9.227   9.255  0.00  0.00    +0.000 OA
ATOM     28  H   UNL     1      51.365   7.048  10.116  0.00  0.00    +0.000 HD
BRANCH  26  29
ATOM     29  C   UNL     1      53.233   7.113   8.278  0.00  0.00    +0.000 A 
ATOM     30  C   UNL     1      53.755   5.915   8.788  0.00  0.00    +0.000 A 
ATOM     31  C   UNL     1      54.047   4.855   7.930  0.00  0.00    +0.000 A 
ATOM     32  C   UNL     1      53.819   5.027   6.577  0.00  0.00    +0.000 A 
ATOM     33  N   UNL     1      53.346   6.172   6.041  0.00  0.00    +0.000 NA
ATOM     34  C   UNL     1      53.074   7.188   6.899  0.00  0.00    +0.000 A 
ATOM     35 CL   UNL     1      52.543   8.590   6.046  0.00  0.00    +0.000 Cl
ENDBRANCH  26  29
ENDBRANCH  24  25
ENDBRANCH   4  24
TORSDOF 6
ENDMDL
MODEL 8
REMARK VINA RESULT:    -6.850      3.604      5.488
REMARK INTER + INTRA:         -10.183
REMARK INTER:                  -9.064
REMARK INTRA:                  -1.119
REMARK UNBOUND:                -0.930
REMARK  Name = 
REMARK  7 active torsions:
REMARK  status: ('A' for Active; 'I' for Inactive)
REMARK    1  A    between atoms: C_1  and  C_2
REMARK    2  A    between atoms: C_2  and  N_3
REMARK    3  A    between atoms: C_2  and  C_16
REMARK    4  A    between atoms: C_4  and  C_6
REMARK    5  A    between atoms: C_19  and  C_20
REMARK    6  A    between atoms: C_20  and  N_21
REMARK    7  A    between atoms: C_22  and  C_24
REMARK                            x       y       z     vdW  Elec       q    Type
REMARK                         _______ _______ _______ _____ _____    ______ ____
ROOT
ATOM      1  C   UNL     1      48.883   7.265  16.819  0.00  0.00    +0.000 A 
ATOM      2  C   UNL     1      48.471   6.117  16.126  0.00  0.00    +0.000 A 
ATOM      3  C   UNL     1      48.148   6.184  14.765  0.00  0.00    +0.000 A 
ATOM      4  C   UNL     1      48.235   7.397  14.067  0.00  0.00    +0.000 A 
ATOM      5  C   UNL     1      48.640   8.544  14.757  0.00  0.00    +0.000 A 
ATOM      6  C   UNL     1      48.964   8.477  16.113  0.00  0.00    +0.000 A 
ENDROOT
BRANCH   1   8
ATOM      7  C   UNL     1      47.899   7.095  19.117  0.00  0.00    +0.000 C 
ATOM      8  C   UNL     1      49.198   7.211  18.309  0.00  0.00    +0.000 C 
BRANCH   8   9
ATOM      9  N   UNL     1      50.121   6.111  18.556  0.00  0.00    +0.000 N 
ATOM     10  C   UNL     1      51.420   6.097  18.116  0.00  0.00    +0.000 C 
ATOM     11  O   UNL     1      51.934   7.046  17.532  0.00  0.00    +0.000 OA
ATOM     12  H   UNL     1      49.685   5.215  18.752  0.00  0.00    +0.000 HD
BRANCH  10  13
ATOM     13  C   UNL     1      52.203   4.898  18.441  0.00  0.00    +0.000 A 
ATOM     14  C   UNL     1      53.383   5.023  19.159  0.00  0.00    +0.000 A 
ATOM     15  S   UNL     1      54.170   3.539  19.448  0.00  0.00    +0.000 S 
ATOM     16  C   UNL     1      52.981   2.679  18.586  0.00  0.00    +0.000 A 
ATOM     17  N   UNL     1      53.081   1.335  18.409  0.00  0.00    +0.000 NA
ATOM     18  C   UNL     1      52.125   0.816  17.711  0.00  0.00    +0.000 A 
ATOM     19  N   UNL     1      51.072   1.520  17.186  0.00  0.00    +0.000 N 
ATOM     20  C   UNL     1      50.910   2.872  17.373  0.00  0.00    +0.000 A 
ATOM     21  O   UNL     1      49.922   3.465  16.950  0.00  0.00    +0.000 OA
ATOM     22  C   UNL     1      51.977   3.509  18.119  0.00  0.00    +0.000 A 
ATOM     23  H   UNL     1      50.343   1.049  16.670  0.00  0.00    +0.000 HD
ENDBRANCH  10  13
ENDBRANCH   8   9
ENDBRANCH   1   8
BRANCH   4  24
ATOM     24  C   UNL     1      47.823   7.490  12.620  0.00  0.00    +0.000 C 
BRANCH  24  25
ATOM     25  N   UNL     1      47.054   6.327  12.242  0.00  0.00    +0.000 N 
ATOM     26  C   UNL     1      45.682   6.350  12.176  0.00  0.00    +0.000 C 
ATOM     27  O   UNL     1      45.026   7.362  12.407  0.00  0.00    +0.000 OA
ATOM     28  H   UNL     1      47.565   5.467  12.080  0.00  0.00    +0.000 HD
BRANCH  26  29
ATOM     29  C   UNL     1      44.990   5.112  11.737  0.00  0.00    +0.000 A 
ATOM     30  C   UNL     1      44.276   4.393  12.707  0.00  0.00    +0.000 A 
ATOM     31  C   UNL     1      43.558   3.253  12.348  0.00  0.00    +0.000 A 
ATOM     32  C   UNL     1      43.582   2.855  11.024  0.00  0.00    +0.000 A 
ATOM     33  N   UNL     1      44.278   3.501  10.064  0.00  0.00    +0.000 NA
ATOM     34  C   UNL     1      44.972   4.605  10.443  0.00  0.00    +0.000 A 
ATOM     35 CL   UNL     1      45.853   5.265   9.115  0.00  0.00    +0.000 Cl
ENDBRANCH  26  29
ENDBRANCH  24  25
ENDBRANCH   4  24
TORSDOF 6
ENDMDL
MODEL 9
REMARK VINA RESULT:    -6.777      5.612      7.903
REMARK INTER + INTRA:         -10.084
REMARK INTER:                  -8.868
REMARK INTRA:                  -1.216
REMARK UNBOUND:                -0.930
REMARK  Name = 
REMARK  7 active torsions:
REMARK  status: ('A' for Active; 'I' for Inactive)
REMARK    1  A    between atoms: C_1  and  C_2
REMARK    2  A    between atoms: C_2  and  N_3
REMARK    3  A    between atoms: C_2  and  C_16
REMARK    4  A    between atoms: C_4  and  C_6
REMARK    5  A    between atoms: C_19  and  C_20
REMARK    6  A    between atoms: C_20  and  N_21
REMARK    7  A    between atoms: C_22  and  C_24
REMARK                            x       y       z     vdW  Elec       q    Type
REMARK                         _______ _______ _______ _____ _____    ______ ____
ROOT
ATOM      1  C   UNL     1      50.648   8.514  12.277  0.00  0.00    +0.000 A 
ATOM      2  C   UNL     1      50.123   8.859  13.530  0.00  0.00    +0.000 A 
ATOM      3  C   UNL     1      48.806   8.521  13.868  0.00  0.00    +0.000 A 
ATOM      4  C   UNL     1      47.989   7.829  12.963  0.00  0.00    +0.000 A 
ATOM      5  C   UNL     1      48.510   7.488  11.710  0.00  0.00    +0.000 A 
ATOM      6  C   UNL     1      49.823   7.822  11.375  0.00  0.00    +0.000 A 
ENDROOT
BRANCH   1   8
ATOM      7  C   UNL     1      53.062   8.415  12.942  0.00  0.00    +0.000 C 
ATOM      8  C   UNL     1      52.067   8.911  11.884  0.00  0.00    +0.000 C 
BRANCH   8   9
ATOM      9  N   UNL     1      52.348   8.395  10.552  0.00  0.00    +0.000 N 
ATOM     10  C   UNL     1      53.181   9.017   9.656  0.00  0.00    +0.000 C 
ATOM     11  O   UNL     1      53.813  10.032   9.932  0.00  0.00    +0.000 OA
ATOM     12  H   UNL     1      51.649   7.760  10.176  0.00  0.00    +0.000 HD
BRANCH  10  13
ATOM     13  C   UNL     1      53.334   8.363   8.351  0.00  0.00    +0.000 A 
ATOM     14  C   UNL     1      53.256   9.122   7.191  0.00  0.00    +0.000 A 
ATOM     15  S   UNL     1      53.452   8.211   5.763  0.00  0.00    +0.000 S 
ATOM     16  C   UNL     1      53.606   6.763   6.643  0.00  0.00    +0.000 A 
ATOM     17  N   UNL     1      53.754   5.571   6.007  0.00  0.00    +0.000 NA
ATOM     18  C   UNL     1      53.829   4.551   6.796  0.00  0.00    +0.000 A 
ATOM     19  N   UNL     1      53.783   4.618   8.165  0.00  0.00    +0.000 N 
ATOM     20  C   UNL     1      53.675   5.804   8.851  0.00  0.00    +0.000 A 
ATOM     21  O   UNL     1      53.706   5.842  10.077  0.00  0.00    +0.000 OA
ATOM     22  C   UNL     1      53.549   6.977   8.009  0.00  0.00    +0.000 A 
ATOM     23  H   UNL     1      53.874   3.784   8.725  0.00  0.00    +0.000 HD
ENDBRANCH  10  13
ENDBRANCH   8   9
ENDBRANCH   1   8
BRANCH   4  24
ATOM     24  C   UNL     1      46.551   7.524  13.294  0.00  0.00    +0.000 C 
BRANCH  24  25
ATOM     25  N   UNL     1      46.102   6.363  12.560  0.00  0.00    +0.000 N 
ATOM     26  C   UNL     1      45.212   6.458  11.520  0.00  0.00    +0.000 C 
ATOM     27  O   UNL     1      44.762   7.532  11.130  0.00  0.00    +0.000 OA
ATOM     28  H   UNL     1      46.428   5.458  12.882  0.00  0.00    +0.000 HD
BRANCH  26  29
ATOM     29  C   UNL     1      44.847   5.208  10.806  0.00  0.00    +0.000 A 
ATOM     30  C   UNL     1      45.420   4.995   9.543  0.00  0.00    +0.000 A 
ATOM     31  C   UNL     1      45.163   3.815   8.846  0.00  0.00    +0.000 A 
ATOM     32  C   UNL     1      44.326   2.881   9.428  0.00  0.00    +0.000 A 
ATOM     33  N   UNL     1      43.732   3.057  10.627  0.00  0.00    +0.000 NA
ATOM     34  C   UNL     1      43.997   4.217  11.282  0.00  0.00    +0.000 A 
ATOM     35 CL   UNL     1      43.109   4.309  12.758  0.00  0.00    +0.000 Cl
ENDBRANCH  26  29
ENDBRANCH  24  25
ENDBRANCH   4  24
TORSDOF 6
ENDMDL
