MODEL 1
REMARK VINA RESULT:    -8.263      0.000      0.000
REMARK INTER + INTRA:         -11.374
REMARK INTER:                 -10.679
REMARK INTRA:                  -0.695
REMARK UNBOUND:                -0.695
REMARK  Name = 
REMARK  5 active torsions:
REMARK  status: ('A' for Active; 'I' for Inactive)
REMARK    1  A    between atoms: C_2  and  C_18
REMARK    2  A    between atoms: N_3  and  C_4
REMARK    3  A    between atoms: C_4  and  C_5
REMARK    4  A    between atoms: C_8  and  C_9
REMARK    5  A    between atoms: C_9  and  C_10
REMARK                            x       y       z     vdW  Elec       q    Type
REMARK                         _______ _______ _______ _____ _____    ______ ____
ROOT
ATOM      1  O   UNL     1      48.761   6.733  12.826  0.00  0.00    +0.000 OA
ATOM      2  C   UNL     1      47.993   6.704  13.797  0.00  0.00    +0.000 C 
ATOM      3  N   UNL     1      46.652   6.942  13.690  0.00  0.00    +0.000 N 
ATOM      4  H   UNL     1      46.120   7.159  14.527  0.00  0.00    +0.000 HD
ENDROOT
BRANCH   2   5
ATOM      5  C   UNL     1      48.474   6.364  15.127  0.00  0.00    +0.000 A 
ATOM      6  C   UNL     1      49.344   7.178  15.838  0.00  0.00    +0.000 A 
ATOM      7  S   UNL     1      49.727   6.548  17.385  0.00  0.00    +0.000 S 
ATOM      8  C   UNL     1      48.728   5.191  17.143  0.00  0.00    +0.000 A 
ATOM      9  N   UNL     1      48.583   4.231  18.097  0.00  0.00    +0.000 NA
ATOM     10  C   UNL     1      47.775   3.276  17.773  0.00  0.00    +0.000 A 
ATOM     11  N   UNL     1      47.094   3.185  16.592  0.00  0.00    +0.000 N 
ATOM     12  C   UNL     1      47.255   4.093  15.580  0.00  0.00    +0.000 A 
ATOM     13  O   UNL     1      46.732   3.891  14.491  0.00  0.00    +0.000 OA
ATOM     14  C   UNL     1      48.128   5.209  15.902  0.00  0.00    +0.000 A 
ATOM     15  H   UNL     1      46.508   2.397  16.378  0.00  0.00    +0.000 HD
ENDBRANCH   2   5
BRANCH   3  16
ATOM     16  C   UNL     1      46.054   7.356  12.449  0.00  0.00    +0.000 C 
BRANCH  16  17
ATOM     17  C   UNL     1      45.676   6.185  11.582  0.00  0.00    +0.000 A 
ATOM     18  C   UNL     1      46.048   6.170  10.231  0.00  0.00    +0.000 A 
ATOM     19  C   UNL     1      45.710   5.094   9.409  0.00  0.00    +0.000 A 
ATOM     20  C   UNL     1      44.999   3.995   9.916  0.00  0.00    +0.000 A 
ATOM     21  C   UNL     1      44.612   4.020  11.264  0.00  0.00    +0.000 A 
ATOM     22  C   UNL     1      44.937   5.106  12.083  0.00  0.00    +0.000 A 
BRANCH  20  23
ATOM     23  C   UNL     1      44.653   2.801   9.048  0.00  0.00    +0.000 C 
BRANCH  23  24
ATOM     24  C   UNL     1      45.716   2.451   8.038  0.00  0.00    +0.000 A 
ATOM     25  C   UNL     1      45.987   3.283   6.946  0.00  0.00    +0.000 A 
ATOM     26  C   UNL     1      46.847   2.847   5.942  0.00  0.00    +0.000 A 
ATOM     27  C   UNL     1      47.447   1.608   6.085  0.00  0.00    +0.000 A 
ATOM     28  N   UNL     1      47.264   0.806   7.156  0.00  0.00    +0.000 NA
ATOM     29  C   UNL     1      46.400   1.241   8.101  0.00  0.00    +0.000 A 
ENDBRANCH  23  24
ENDBRANCH  20  23
ENDBRANCH  16  17
ENDBRANCH   3  16
TORSDOF 5
ENDMDL
MODEL 2
REMARK VINA RESULT:    -8.031      1.407      2.090
REMARK INTER + INTRA:         -11.073
REMARK INTER:                 -11.081
REMARK INTRA:                   0.008
REMARK UNBOUND:                -0.695
REMARK  Name = 
REMARK  5 active torsions:
REMARK  status: ('A' for Active; 'I' for Inactive)
REMARK    1  A    between atoms: C_2  and  C_18
REMARK    2  A    between atoms: N_3  and  C_4
REMARK    3  A    between atoms: C_4  and  C_5
REMARK    4  A    between atoms: C_8  and  C_9
REMARK    5  A    between atoms: C_9  and  C_10
REMARK                            x       y       z     vdW  Elec       q    Type
REMARK                         _______ _______ _______ _____ _____    ______ ____
ROOT
ATOM      1  O   UNL     1      46.618   3.411  13.794  0.00  0.00    +0.000 OA
ATOM      2  C   UNL     1      46.473   4.590  14.139  0.00  0.00    +0.000 C 
ATOM      3  N   UNL     1      45.332   5.302  13.893  0.00  0.00    +0.000 N 
ATOM      4  H   UNL     1      45.357   6.314  13.960  0.00  0.00    +0.000 HD
ENDROOT
BRANCH   2   5
ATOM      5  C   UNL     1      47.510   5.290  14.881  0.00  0.00    +0.000 A 
ATOM      6  C   UNL     1      48.303   6.276  14.310  0.00  0.00    +0.000 A 
ATOM      7  S   UNL     1      49.425   6.948  15.417  0.00  0.00    +0.000 S 
ATOM      8  C   UNL     1      48.864   5.953  16.679  0.00  0.00    +0.000 A 
ATOM      9  N   UNL     1      49.394   6.019  17.931  0.00  0.00    +0.000 NA
ATOM     10  C   UNL     1      48.849   5.216  18.784  0.00  0.00    +0.000 A 
ATOM     11  N   UNL     1      47.823   4.355  18.512  0.00  0.00    +0.000 N 
ATOM     12  C   UNL     1      47.300   4.210  17.256  0.00  0.00    +0.000 A 
ATOM     13  O   UNL     1      46.481   3.326  17.035  0.00  0.00    +0.000 OA
ATOM     14  C   UNL     1      47.853   5.113  16.262  0.00  0.00    +0.000 A 
ATOM     15  H   UNL     1      47.464   3.724  19.207  0.00  0.00    +0.000 HD
ENDBRANCH   2   5
BRANCH   3  16
ATOM     16  C   UNL     1      44.256   4.756  13.111  0.00  0.00    +0.000 C 
BRANCH  16  17
ATOM     17  C   UNL     1      44.636   4.580  11.665  0.00  0.00    +0.000 A 
ATOM     18  C   UNL     1      44.139   3.487  10.942  0.00  0.00    +0.000 A 
ATOM     19  C   UNL     1      44.476   3.306   9.600  0.00  0.00    +0.000 A 
ATOM     20  C   UNL     1      45.313   4.216   8.938  0.00  0.00    +0.000 A 
ATOM     21  C   UNL     1      45.824   5.299   9.667  0.00  0.00    +0.000 A 
ATOM     22  C   UNL     1      45.500   5.472  11.017  0.00  0.00    +0.000 A 
BRANCH  20  23
ATOM     23  C   UNL     1      45.663   4.055   7.471  0.00  0.00    +0.000 C 
BRANCH  23  24
ATOM     24  C   UNL     1      46.344   2.751   7.144  0.00  0.00    +0.000 A 
ATOM     25  C   UNL     1      46.949   2.535   5.902  0.00  0.00    +0.000 A 
ATOM     26  C   UNL     1      47.413   1.265   5.571  0.00  0.00    +0.000 A 
ATOM     27  C   UNL     1      47.298   0.259   6.515  0.00  0.00    +0.000 A 
ATOM     28  N   UNL     1      46.784   0.444   7.749  0.00  0.00    +0.000 NA
ATOM     29  C   UNL     1      46.313   1.680   8.033  0.00  0.00    +0.000 A 
ENDBRANCH  23  24
ENDBRANCH  20  23
ENDBRANCH  16  17
ENDBRANCH   3  16
TORSDOF 5
ENDMDL
MODEL 3
REMARK VINA RESULT:    -7.910      1.537      2.300
REMARK INTER + INTRA:         -10.917
REMARK INTER:                 -10.144
REMARK INTRA:                  -0.773
REMARK UNBOUND:                -0.695
REMARK  Name = 
REMARK  5 active torsions:
REMARK  status: ('A' for Active; 'I' for Inactive)
REMARK    1  A    between atoms: C_2  and  C_18
REMARK    2  A    between atoms: N_3  and  C_4
REMARK    3  A    between atoms: C_4  and  C_5
REMARK    4  A    between atoms: C_8  and  C_9
REMARK    5  A    between atoms: C_9  and  C_10
REMARK                            x       y       z     vdW  Elec       q    Type
REMARK                         _______ _______ _______ _____ _____    ______ ____
ROOT
ATOM      1  O   UNL     1      48.650   6.335  14.094  0.00  0.00    +0.000 OA
ATOM      2  C   UNL     1      47.694   5.768  14.639  0.00  0.00    +0.000 C 
ATOM      3  N   UNL     1      46.420   5.821  14.148  0.00  0.00    +0.000 N 
ATOM      4  H   UNL     1      45.646   5.567  14.753  0.00  0.00    +0.000 HD
ENDROOT
BRANCH   2   5
ATOM      5  C   UNL     1      47.881   4.959  15.834  0.00  0.00    +0.000 A 
ATOM      6  C   UNL     1      47.639   3.594  15.858  0.00  0.00    +0.000 A 
ATOM      7  S   UNL     1      47.964   2.889  17.386  0.00  0.00    +0.000 S 
ATOM      8  C   UNL     1      48.451   4.385  18.037  0.00  0.00    +0.000 A 
ATOM      9  N   UNL     1      48.872   4.500  19.325  0.00  0.00    +0.000 NA
ATOM     10  C   UNL     1      49.227   5.695  19.665  0.00  0.00    +0.000 A 
ATOM     11  N   UNL     1      49.206   6.787  18.844  0.00  0.00    +0.000 N 
ATOM     12  C   UNL     1      48.733   6.732  17.561  0.00  0.00    +0.000 A 
ATOM     13  O   UNL     1      48.604   7.765  16.914  0.00  0.00    +0.000 OA
ATOM     14  C   UNL     1      48.350   5.404  17.114  0.00  0.00    +0.000 A 
ATOM     15  H   UNL     1      49.458   7.703  19.175  0.00  0.00    +0.000 HD
ENDBRANCH   2   5
BRANCH   3  16
ATOM     16  C   UNL     1      46.082   6.639  13.014  0.00  0.00    +0.000 C 
BRANCH  16  17
ATOM     17  C   UNL     1      45.721   5.815  11.806  0.00  0.00    +0.000 A 
ATOM     18  C   UNL     1      44.919   4.677  11.954  0.00  0.00    +0.000 A 
ATOM     19  C   UNL     1      44.571   3.900  10.847  0.00  0.00    +0.000 A 
ATOM     20  C   UNL     1      45.007   4.245   9.559  0.00  0.00    +0.000 A 
ATOM     21  C   UNL     1      45.826   5.375   9.416  0.00  0.00    +0.000 A 
ATOM     22  C   UNL     1      46.188   6.143  10.527  0.00  0.00    +0.000 A 
BRANCH  20  23
ATOM     23  C   UNL     1      44.611   3.434   8.340  0.00  0.00    +0.000 C 
BRANCH  23  24
ATOM     24  C   UNL     1      45.764   2.729   7.674  0.00  0.00    +0.000 A 
ATOM     25  C   UNL     1      46.375   3.251   6.529  0.00  0.00    +0.000 A 
ATOM     26  C   UNL     1      47.316   2.491   5.840  0.00  0.00    +0.000 A 
ATOM     27  C   UNL     1      47.651   1.247   6.347  0.00  0.00    +0.000 A 
ATOM     28  N   UNL     1      47.135   0.737   7.485  0.00  0.00    +0.000 NA
ATOM     29  C   UNL     1      46.200   1.484   8.117  0.00  0.00    +0.000 A 
ENDBRANCH  23  24
ENDBRANCH  20  23
ENDBRANCH  16  17
ENDBRANCH   3  16
TORSDOF 5
ENDMDL
MODEL 4
REMARK VINA RESULT:    -7.657      1.365      2.080
REMARK INTER + INTRA:         -10.591
REMARK INTER:                  -9.716
REMARK INTRA:                  -0.875
REMARK UNBOUND:                -0.695
REMARK  Name = 
REMARK  5 active torsions:
REMARK  status: ('A' for Active; 'I' for Inactive)
REMARK    1  A    between atoms: C_2  and  C_18
REMARK    2  A    between atoms: N_3  and  C_4
REMARK    3  A    between atoms: C_4  and  C_5
REMARK    4  A    between atoms: C_8  and  C_9
REMARK    5  A    between atoms: C_9  and  C_10
REMARK                            x       y       z     vdW  Elec       q    Type
REMARK                         _______ _______ _______ _____ _____    ______ ____
ROOT
ATOM      1  O   UNL     1      49.638   6.874  14.109  0.00  0.00    +0.000 OA
ATOM      2  C   UNL     1      48.838   7.109  15.023  0.00  0.00    +0.000 C 
ATOM      3  N   UNL     1      47.643   7.741  14.821  0.00  0.00    +0.000 N 
ATOM      4  H   UNL     1      47.150   8.134  15.616  0.00  0.00    +0.000 HD
ENDROOT
BRANCH   2   5
ATOM      5  C   UNL     1      49.106   6.679  16.387  0.00  0.00    +0.000 A 
ATOM      6  C   UNL     1      49.761   7.482  17.309  0.00  0.00    +0.000 A 
ATOM      7  S   UNL     1      49.921   6.736  18.843  0.00  0.00    +0.000 S 
ATOM      8  C   UNL     1      49.104   5.339  18.313  0.00  0.00    +0.000 A 
ATOM      9  N   UNL     1      48.880   4.284  19.143  0.00  0.00    +0.000 NA
ATOM     10  C   UNL     1      48.231   3.308  18.599  0.00  0.00    +0.000 A 
ATOM     11  N   UNL     1      47.779   3.281  17.310  0.00  0.00    +0.000 N 
ATOM     12  C   UNL     1      48.034   4.292  16.423  0.00  0.00    +0.000 A 
ATOM     13  O   UNL     1      47.730   4.157  15.243  0.00  0.00    +0.000 OA
ATOM     14  C   UNL     1      48.733   5.432  16.988  0.00  0.00    +0.000 A 
ATOM     15  H   UNL     1      47.312   2.476  16.929  0.00  0.00    +0.000 HD
ENDBRANCH   2   5
BRANCH   3  16
ATOM     16  C   UNL     1      47.281   8.279  13.537  0.00  0.00    +0.000 C 
BRANCH  16  17
ATOM     17  C   UNL     1      46.394   7.345  12.758  0.00  0.00    +0.000 A 
ATOM     18  C   UNL     1      45.251   7.841  12.119  0.00  0.00    +0.000 A 
ATOM     19  C   UNL     1      44.415   6.994  11.390  0.00  0.00    +0.000 A 
ATOM     20  C   UNL     1      44.704   5.626  11.269  0.00  0.00    +0.000 A 
ATOM     21  C   UNL     1      45.839   5.127  11.925  0.00  0.00    +0.000 A 
ATOM     22  C   UNL     1      46.667   5.974  12.670  0.00  0.00    +0.000 A 
BRANCH  20  23
ATOM     23  C   UNL     1      43.828   4.696  10.452  0.00  0.00    +0.000 C 
BRANCH  23  24
ATOM     24  C   UNL     1      44.585   3.877   9.438  0.00  0.00    +0.000 A 
ATOM     25  C   UNL     1      44.659   2.484   9.533  0.00  0.00    +0.000 A 
ATOM     26  C   UNL     1      45.507   1.777   8.685  0.00  0.00    +0.000 A 
ATOM     27  C   UNL     1      46.222   2.485   7.735  0.00  0.00    +0.000 A 
ATOM     28  N   UNL     1      46.127   3.821   7.566  0.00  0.00    +0.000 NA
ATOM     29  C   UNL     1      45.319   4.486   8.424  0.00  0.00    +0.000 A 
ENDBRANCH  23  24
ENDBRANCH  20  23
ENDBRANCH  16  17
ENDBRANCH   3  16
TORSDOF 5
ENDMDL
MODEL 5
REMARK VINA RESULT:    -7.514      2.054      2.740
REMARK INTER + INTRA:         -10.406
REMARK INTER:                  -9.492
REMARK INTRA:                  -0.914
REMARK UNBOUND:                -0.695
REMARK  Name = 
REMARK  5 active torsions:
REMARK  status: ('A' for Active; 'I' for Inactive)
REMARK    1  A    between atoms: C_2  and  C_18
REMARK    2  A    between atoms: N_3  and  C_4
REMARK    3  A    between atoms: C_4  and  C_5
REMARK    4  A    between atoms: C_8  and  C_9
REMARK    5  A    between atoms: C_9  and  C_10
REMARK                            x       y       z     vdW  Elec       q    Type
REMARK                         _______ _______ _______ _____ _____    ______ ____
ROOT
ATOM      1  O   UNL     1      46.847   8.470  13.302  0.00  0.00    +0.000 OA
ATOM      2  C   UNL     1      47.631   7.536  13.514  0.00  0.00    +0.000 C 
ATOM      3  N   UNL     1      47.248   6.225  13.496  0.00  0.00    +0.000 N 
ATOM      4  H   UNL     1      47.850   5.527  13.920  0.00  0.00    +0.000 HD
ENDROOT
BRANCH   2   5
ATOM      5  C   UNL     1      49.045   7.781  13.757  0.00  0.00    +0.000 A 
ATOM      6  C   UNL     1      49.829   8.546  12.904  0.00  0.00    +0.000 A 
ATOM      7  S   UNL     1      51.449   8.690  13.443  0.00  0.00    +0.000 S 
ATOM      8  C   UNL     1      51.132   7.753  14.829  0.00  0.00    +0.000 A 
ATOM      9  N   UNL     1      52.100   7.487  15.748  0.00  0.00    +0.000 NA
ATOM     10  C   UNL     1      51.699   6.781  16.754  0.00  0.00    +0.000 A 
ATOM     11  N   UNL     1      50.427   6.317  16.936  0.00  0.00    +0.000 N 
ATOM     12  C   UNL     1      49.437   6.508  16.010  0.00  0.00    +0.000 A 
ATOM     13  O   UNL     1      48.354   5.953  16.152  0.00  0.00    +0.000 OA
ATOM     14  C   UNL     1      49.822   7.324  14.872  0.00  0.00    +0.000 A 
ATOM     15  H   UNL     1      50.182   5.738  17.720  0.00  0.00    +0.000 HD
ENDBRANCH   2   5
BRANCH   3  16
ATOM     16  C   UNL     1      45.870   5.844  13.336  0.00  0.00    +0.000 C 
BRANCH  16  17
ATOM     17  C   UNL     1      45.593   5.269  11.973  0.00  0.00    +0.000 A 
ATOM     18  C   UNL     1      44.958   4.025  11.857  0.00  0.00    +0.000 A 
ATOM     19  C   UNL     1      44.690   3.475  10.603  0.00  0.00    +0.000 A 
ATOM     20  C   UNL     1      45.039   4.155   9.427  0.00  0.00    +0.000 A 
ATOM     21  C   UNL     1      45.691   5.391   9.545  0.00  0.00    +0.000 A 
ATOM     22  C   UNL     1      45.975   5.935  10.802  0.00  0.00    +0.000 A 
BRANCH  20  23
ATOM     23  C   UNL     1      44.724   3.590   8.056  0.00  0.00    +0.000 C 
BRANCH  23  24
ATOM     24  C   UNL     1      45.875   2.854   7.419  0.00  0.00    +0.000 A 
ATOM     25  C   UNL     1      46.450   3.295   6.223  0.00  0.00    +0.000 A 
ATOM     26  C   UNL     1      47.390   2.500   5.573  0.00  0.00    +0.000 A 
ATOM     27  C   UNL     1      47.759   1.305   6.166  0.00  0.00    +0.000 A 
ATOM     28  N   UNL     1      47.278   0.877   7.353  0.00  0.00    +0.000 NA
ATOM     29  C   UNL     1      46.344   1.655   7.947  0.00  0.00    +0.000 A 
ENDBRANCH  23  24
ENDBRANCH  20  23
ENDBRANCH  16  17
ENDBRANCH   3  16
TORSDOF 5
ENDMDL
MODEL 6
REMARK VINA RESULT:    -7.488      3.959      9.524
REMARK INTER + INTRA:         -10.372
REMARK INTER:                  -9.534
REMARK INTRA:                  -0.838
REMARK UNBOUND:                -0.695
REMARK  Name = 
REMARK  5 active torsions:
REMARK  status: ('A' for Active; 'I' for Inactive)
REMARK    1  A    between atoms: C_2  and  C_18
REMARK    2  A    between atoms: N_3  and  C_4
REMARK    3  A    between atoms: C_4  and  C_5
REMARK    4  A    between atoms: C_8  and  C_9
REMARK    5  A    between atoms: C_9  and  C_10
REMARK                            x       y       z     vdW  Elec       q    Type
REMARK                         _______ _______ _______ _____ _____    ______ ____
ROOT
ATOM      1  O   UNL     1      47.315   3.166  14.079  0.00  0.00    +0.000 OA
ATOM      2  C   UNL     1      46.956   4.268  14.513  0.00  0.00    +0.000 C 
ATOM      3  N   UNL     1      46.972   4.583  15.843  0.00  0.00    +0.000 N 
ATOM      4  H   UNL     1      46.438   5.383  16.168  0.00  0.00    +0.000 HD
ENDROOT
BRANCH   2   5
ATOM      5  C   UNL     1      46.529   5.329  13.614  0.00  0.00    +0.000 A 
ATOM      6  C   UNL     1      47.333   6.417  13.306  0.00  0.00    +0.000 A 
ATOM      7  S   UNL     1      46.591   7.499  12.205  0.00  0.00    +0.000 S 
ATOM      8  C   UNL     1      45.195   6.529  12.102  0.00  0.00    +0.000 A 
ATOM      9  N   UNL     1      44.144   6.872  11.310  0.00  0.00    +0.000 NA
ATOM     10  C   UNL     1      43.168   6.025  11.324  0.00  0.00    +0.000 A 
ATOM     11  N   UNL     1      43.139   4.867  12.048  0.00  0.00    +0.000 N 
ATOM     12  C   UNL     1      44.146   4.512  12.905  0.00  0.00    +0.000 A 
ATOM     13  O   UNL     1      44.009   3.538  13.636  0.00  0.00    +0.000 OA
ATOM     14  C   UNL     1      45.285   5.412  12.906  0.00  0.00    +0.000 A 
ATOM     15  H   UNL     1      42.335   4.263  12.051  0.00  0.00    +0.000 HD
ENDBRANCH   2   5
BRANCH   3  16
ATOM     16  C   UNL     1      47.306   3.609  16.846  0.00  0.00    +0.000 C 
BRANCH  16  17
ATOM     17  C   UNL     1      48.784   3.570  17.132  0.00  0.00    +0.000 A 
ATOM     18  C   UNL     1      49.460   2.343  17.139  0.00  0.00    +0.000 A 
ATOM     19  C   UNL     1      50.830   2.284  17.400  0.00  0.00    +0.000 A 
ATOM     20  C   UNL     1      51.567   3.451  17.651  0.00  0.00    +0.000 A 
ATOM     21  C   UNL     1      50.885   4.677  17.662  0.00  0.00    +0.000 A 
ATOM     22  C   UNL     1      49.509   4.734  17.418  0.00  0.00    +0.000 A 
BRANCH  20  23
ATOM     23  C   UNL     1      53.062   3.411  17.902  0.00  0.00    +0.000 C 
BRANCH  23  24
ATOM     24  C   UNL     1      53.434   3.199  19.347  0.00  0.00    +0.000 A 
ATOM     25  C   UNL     1      52.934   4.025  20.358  0.00  0.00    +0.000 A 
ATOM     26  C   UNL     1      53.432   3.913  21.653  0.00  0.00    +0.000 A 
ATOM     27  C   UNL     1      54.387   2.943  21.905  0.00  0.00    +0.000 A 
ATOM     28  N   UNL     1      54.846   2.081  20.972  0.00  0.00    +0.000 NA
ATOM     29  C   UNL     1      54.366   2.233  19.716  0.00  0.00    +0.000 A 
ENDBRANCH  23  24
ENDBRANCH  20  23
ENDBRANCH  16  17
ENDBRANCH   3  16
TORSDOF 5
ENDMDL
MODEL 7
REMARK VINA RESULT:    -7.458      2.380      3.096
REMARK INTER + INTRA:         -10.333
REMARK INTER:                  -9.502
REMARK INTRA:                  -0.832
REMARK UNBOUND:                -0.695
REMARK  Name = 
REMARK  5 active torsions:
REMARK  status: ('A' for Active; 'I' for Inactive)
REMARK    1  A    between atoms: C_2  and  C_18
REMARK    2  A    between atoms: N_3  and  C_4
REMARK    3  A    between atoms: C_4  and  C_5
REMARK    4  A    between atoms: C_8  and  C_9
REMARK    5  A    between atoms: C_9  and  C_10
REMARK                            x       y       z     vdW  Elec       q    Type
REMARK                         _______ _______ _______ _____ _____    ______ ____
ROOT
ATOM      1  O   UNL     1      50.073   6.462  15.501  0.00  0.00    +0.000 OA
ATOM      2  C   UNL     1      48.938   6.267  15.956  0.00  0.00    +0.000 C 
ATOM      3  N   UNL     1      47.803   6.416  15.211  0.00  0.00    +0.000 N 
ATOM      4  H   UNL     1      46.908   6.497  15.684  0.00  0.00    +0.000 HD
ENDROOT
BRANCH   2   5
ATOM      5  C   UNL     1      48.744   5.816  17.326  0.00  0.00    +0.000 A 
ATOM      6  C   UNL     1      48.991   4.510  17.725  0.00  0.00    +0.000 A 
ATOM      7  S   UNL     1      48.702   4.261  19.396  0.00  0.00    +0.000 S 
ATOM      8  C   UNL     1      48.263   5.891  19.621  0.00  0.00    +0.000 A 
ATOM      9  N   UNL     1      47.902   6.371  20.842  0.00  0.00    +0.000 NA
ATOM     10  C   UNL     1      47.617   7.631  20.856  0.00  0.00    +0.000 A 
ATOM     11  N   UNL     1      47.658   8.461  19.771  0.00  0.00    +0.000 N 
ATOM     12  C   UNL     1      47.955   8.011  18.513  0.00  0.00    +0.000 A 
ATOM     13  O   UNL     1      47.841   8.764  17.554  0.00  0.00    +0.000 OA
ATOM     14  C   UNL     1      48.318   6.606  18.443  0.00  0.00    +0.000 A 
ATOM     15  H   UNL     1      47.387   9.427  19.833  0.00  0.00    +0.000 HD
ENDBRANCH   2   5
BRANCH   3  16
ATOM     16  C   UNL     1      47.844   6.922  13.866  0.00  0.00    +0.000 C 
BRANCH  16  17
ATOM     17  C   UNL     1      46.939   6.152  12.941  0.00  0.00    +0.000 A 
ATOM     18  C   UNL     1      46.580   6.700  11.702  0.00  0.00    +0.000 A 
ATOM     19  C   UNL     1      45.744   6.004  10.829  0.00  0.00    +0.000 A 
ATOM     20  C   UNL     1      45.249   4.734  11.163  0.00  0.00    +0.000 A 
ATOM     21  C   UNL     1      45.595   4.195  12.411  0.00  0.00    +0.000 A 
ATOM     22  C   UNL     1      46.419   4.900  13.293  0.00  0.00    +0.000 A 
BRANCH  20  23
ATOM     23  C   UNL     1      44.368   3.947  10.212  0.00  0.00    +0.000 C 
BRANCH  23  24
ATOM     24  C   UNL     1      45.111   3.344   9.048  0.00  0.00    +0.000 A 
ATOM     25  C   UNL     1      45.435   1.984   9.013  0.00  0.00    +0.000 A 
ATOM     26  C   UNL     1      46.270   1.497   8.011  0.00  0.00    +0.000 A 
ATOM     27  C   UNL     1      46.719   2.381   7.046  0.00  0.00    +0.000 A 
ATOM     28  N   UNL     1      46.374   3.686   7.005  0.00  0.00    +0.000 NA
ATOM     29  C   UNL     1      45.587   4.138   8.008  0.00  0.00    +0.000 A 
ENDBRANCH  23  24
ENDBRANCH  20  23
ENDBRANCH  16  17
ENDBRANCH   3  16
TORSDOF 5
ENDMDL
MODEL 8
REMARK VINA RESULT:    -7.097      2.051      2.844
REMARK INTER + INTRA:          -9.867
REMARK INTER:                  -8.779
REMARK INTRA:                  -1.087
REMARK UNBOUND:                -0.695
REMARK  Name = 
REMARK  5 active torsions:
REMARK  status: ('A' for Active; 'I' for Inactive)
REMARK    1  A    between atoms: C_2  and  C_18
REMARK    2  A    between atoms: N_3  and  C_4
REMARK    3  A    between atoms: C_4  and  C_5
REMARK    4  A    between atoms: C_8  and  C_9
REMARK    5  A    between atoms: C_9  and  C_10
REMARK                            x       y       z     vdW  Elec       q    Type
REMARK                         _______ _______ _______ _____ _____    ______ ____
ROOT
ATOM      1  O   UNL     1      49.518   9.509  15.242  0.00  0.00    +0.000 OA
ATOM      2  C   UNL     1      48.524   8.952  15.726  0.00  0.00    +0.000 C 
ATOM      3  N   UNL     1      47.441   8.584  14.977  0.00  0.00    +0.000 N 
ATOM      4  H   UNL     1      46.566   8.373  15.445  0.00  0.00    +0.000 HD
ENDROOT
BRANCH   2   5
ATOM      5  C   UNL     1      48.466   8.610  17.139  0.00  0.00    +0.000 A 
ATOM      6  C   UNL     1      48.296   9.562  18.133  0.00  0.00    +0.000 A 
ATOM      7  S   UNL     1      48.240   8.879  19.703  0.00  0.00    +0.000 S 
ATOM      8  C   UNL     1      48.421   7.302  19.087  0.00  0.00    +0.000 A 
ATOM      9  N   UNL     1      48.446   6.214  19.903  0.00  0.00    +0.000 NA
ATOM     10  C   UNL     1      48.569   5.086  19.284  0.00  0.00    +0.000 A 
ATOM     11  N   UNL     1      48.667   4.936  17.930  0.00  0.00    +0.000 N 
ATOM     12  C   UNL     1      48.708   6.004  17.074  0.00  0.00    +0.000 A 
ATOM     13  O   UNL     1      48.939   5.824  15.884  0.00  0.00    +0.000 OA
ATOM     14  C   UNL     1      48.540   7.298  17.713  0.00  0.00    +0.000 A 
ATOM     15  H   UNL     1      48.801   4.035  17.505  0.00  0.00    +0.000 HD
ENDBRANCH   2   5
BRANCH   3  16
ATOM     16  C   UNL     1      47.336   8.922  13.584  0.00  0.00    +0.000 C 
BRANCH  16  17
ATOM     17  C   UNL     1      46.497   7.932  12.820  0.00  0.00    +0.000 A 
ATOM     18  C   UNL     1      46.849   6.576  12.818  0.00  0.00    +0.000 A 
ATOM     19  C   UNL     1      46.084   5.642  12.118  0.00  0.00    +0.000 A 
ATOM     20  C   UNL     1      44.939   6.034  11.408  0.00  0.00    +0.000 A 
ATOM     21  C   UNL     1      44.599   7.394  11.396  0.00  0.00    +0.000 A 
ATOM     22  C   UNL     1      45.375   8.333  12.084  0.00  0.00    +0.000 A 
BRANCH  20  23
ATOM     23  C   UNL     1      44.075   5.028  10.671  0.00  0.00    +0.000 C 
BRANCH  23  24
ATOM     24  C   UNL     1      44.846   4.124   9.744  0.00  0.00    +0.000 A 
ATOM     25  C   UNL     1      45.579   4.636   8.668  0.00  0.00    +0.000 A 
ATOM     26  C   UNL     1      46.133   3.765   7.733  0.00  0.00    +0.000 A 
ATOM     27  C   UNL     1      45.973   2.405   7.929  0.00  0.00    +0.000 A 
ATOM     28  N   UNL     1      45.331   1.870   8.990  0.00  0.00    +0.000 NA
ATOM     29  C   UNL     1      44.777   2.739   9.866  0.00  0.00    +0.000 A 
ENDBRANCH  23  24
ENDBRANCH  20  23
ENDBRANCH  16  17
ENDBRANCH   3  16
TORSDOF 5
ENDMDL
MODEL 9
REMARK VINA RESULT:    -7.054      2.858      3.947
REMARK INTER + INTRA:          -9.812
REMARK INTER:                  -8.342
REMARK INTRA:                  -1.469
REMARK UNBOUND:                -0.695
REMARK  Name = 
REMARK  5 active torsions:
REMARK  status: ('A' for Active; 'I' for Inactive)
REMARK    1  A    between atoms: C_2  and  C_18
REMARK    2  A    between atoms: N_3  and  C_4
REMARK    3  A    between atoms: C_4  and  C_5
REMARK    4  A    between atoms: C_8  and  C_9
REMARK    5  A    between atoms: C_9  and  C_10
REMARK                            x       y       z     vdW  Elec       q    Type
REMARK                         _______ _______ _______ _____ _____    ______ ____
ROOT
ATOM      1  O   UNL     1      48.458   8.578  16.560  0.00  0.00    +0.000 OA
ATOM      2  C   UNL     1      49.085   7.561  16.237  0.00  0.00    +0.000 C 
ATOM      3  N   UNL     1      49.591   7.366  14.983  0.00  0.00    +0.000 N 
ATOM      4  H   UNL     1      49.863   6.430  14.699  0.00  0.00    +0.000 HD
ENDROOT
BRANCH   2   5
ATOM      5  C   UNL     1      49.364   6.511  17.205  0.00  0.00    +0.000 A 
ATOM      6  C   UNL     1      50.250   6.680  18.258  0.00  0.00    +0.000 A 
ATOM      7  S   UNL     1      50.369   5.292  19.256  0.00  0.00    +0.000 S 
ATOM      8  C   UNL     1      49.229   4.448  18.315  0.00  0.00    +0.000 A 
ATOM      9  N   UNL     1      48.850   3.177  18.622  0.00  0.00    +0.000 NA
ATOM     10  C   UNL     1      47.962   2.679  17.826  0.00  0.00    +0.000 A 
ATOM     11  N   UNL     1      47.412   3.325  16.755  0.00  0.00    +0.000 N 
ATOM     12  C   UNL     1      47.806   4.579  16.372  0.00  0.00    +0.000 A 
ATOM     13  O   UNL     1      47.386   5.057  15.325  0.00  0.00    +0.000 OA
ATOM     14  C   UNL     1      48.780   5.202  17.251  0.00  0.00    +0.000 A 
ATOM     15  H   UNL     1      46.752   2.873  16.146  0.00  0.00    +0.000 HD
ENDBRANCH   2   5
BRANCH   3  16
ATOM     16  C   UNL     1      49.332   8.290  13.912  0.00  0.00    +0.000 C 
BRANCH  16  17
ATOM     17  C   UNL     1      48.040   7.989  13.201  0.00  0.00    +0.000 A 
ATOM     18  C   UNL     1      47.971   6.912  12.309  0.00  0.00    +0.000 A 
ATOM     19  C   UNL     1      46.783   6.613  11.640  0.00  0.00    +0.000 A 
ATOM     20  C   UNL     1      45.625   7.377  11.851  0.00  0.00    +0.000 A 
ATOM     21  C   UNL     1      45.701   8.467  12.731  0.00  0.00    +0.000 A 
ATOM     22  C   UNL     1      46.896   8.776  13.388  0.00  0.00    +0.000 A 
BRANCH  20  23
ATOM     23  C   UNL     1      44.316   7.047  11.161  0.00  0.00    +0.000 C 
BRANCH  23  24
ATOM     24  C   UNL     1      43.850   5.631  11.379  0.00  0.00    +0.000 A 
ATOM     25  C   UNL     1      43.529   5.156  12.655  0.00  0.00    +0.000 A 
ATOM     26  C   UNL     1      43.272   3.801  12.844  0.00  0.00    +0.000 A 
ATOM     27  C   UNL     1      43.300   2.969  11.739  0.00  0.00    +0.000 A 
ATOM     28  N   UNL     1      43.539   3.399  10.481  0.00  0.00    +0.000 NA
ATOM     29  C   UNL     1      43.815   4.715  10.331  0.00  0.00    +0.000 A 
ENDBRANCH  23  24
ENDBRANCH  20  23
ENDBRANCH  16  17
ENDBRANCH   3  16
TORSDOF 5
ENDMDL
