MODEL 1
REMARK VINA RESULT:    -8.219      0.000      0.000
REMARK INTER + INTRA:         -12.598
REMARK INTER:                 -11.582
REMARK INTRA:                  -1.016
REMARK UNBOUND:                -1.016
REMARK  Name = 
REMARK  7 active torsions:
REMARK  status: ('A' for Active; 'I' for Inactive)
REMARK    1  A    between atoms: C_2  and  C_20
REMARK    2  A    between atoms: N_3  and  C_4
REMARK    3  A    between atoms: C_4  and  C_5
REMARK    4  A    between atoms: C_8  and  C_9
REMARK    5  A    between atoms: C_9  and  N_10
REMARK    6  A    between atoms: N_10  and  C_11
REMARK    7  A    between atoms: C_11  and  C_12
REMARK                            x       y       z     vdW  Elec       q    Type
REMARK                         _______ _______ _______ _____ _____    ______ ____
ROOT
ATOM      1  C   UNL     1      48.092   6.739  13.377  0.00  0.00    +0.000 C 
ENDROOT
BRANCH   1   2
ATOM      2  C   UNL     1      46.912   6.059  12.732  0.00  0.00    +0.000 A 
ATOM      3  C   UNL     1      46.227   5.045  13.412  0.00  0.00    +0.000 A 
ATOM      4  C   UNL     1      45.097   4.449  12.846  0.00  0.00    +0.000 A 
ATOM      5  C   UNL     1      44.626   4.850  11.587  0.00  0.00    +0.000 A 
ATOM      6  C   UNL     1      45.338   5.836  10.890  0.00  0.00    +0.000 A 
ATOM      7  C   UNL     1      46.474   6.429  11.453  0.00  0.00    +0.000 A 
BRANCH   5   8
ATOM      8  C   UNL     1      43.377   4.228  11.001  0.00  0.00    +0.000 C 
BRANCH   8   9
ATOM      9  N   UNL     1      43.653   3.666   9.680  0.00  0.00    +0.000 NA
ATOM     10  H   UNL     1      44.133   4.371   9.119  0.00  0.00    +0.000 HD
BRANCH   9  11
ATOM     11  C   UNL     1      44.514   2.480   9.754  0.00  0.00    +0.000 C 
BRANCH  11  12
ATOM     12  C   UNL     1      45.497   2.429   8.596  0.00  0.00    +0.000 A 
ATOM     13  C   UNL     1      45.746   3.577   7.841  0.00  0.00    +0.000 A 
ATOM     14  C   UNL     1      46.681   3.518   6.810  0.00  0.00    +0.000 A 
ATOM     15  C   UNL     1      47.335   2.321   6.554  0.00  0.00    +0.000 A 
ATOM     16  C   UNL     1      47.026   1.225   7.344  0.00  0.00    +0.000 A 
ATOM     17  N   UNL     1      46.129   1.253   8.356  0.00  0.00    +0.000 NA
ENDBRANCH  11  12
ENDBRANCH   9  11
ENDBRANCH   8   9
ENDBRANCH   5   8
ENDBRANCH   1   2
BRANCH   1  20
ATOM     18  O   UNL     1      50.225   6.706  15.212  0.00  0.00    +0.000 OA
ATOM     19  C   UNL     1      49.077   6.790  15.636  0.00  0.00    +0.000 C 
ATOM     20  N   UNL     1      47.981   6.768  14.812  0.00  0.00    +0.000 N 
ATOM     21  H   UNL     1      47.069   7.001  15.189  0.00  0.00    +0.000 HD
BRANCH  19  22
ATOM     22  C   UNL     1      48.803   6.868  17.075  0.00  0.00    +0.000 A 
ATOM     23  C   UNL     1      48.342   8.055  17.629  0.00  0.00    +0.000 A 
ATOM     24  S   UNL     1      48.041   7.955  19.304  0.00  0.00    +0.000 S 
ATOM     25  C   UNL     1      48.485   6.314  19.341  0.00  0.00    +0.000 A 
ATOM     26  N   UNL     1      48.410   5.592  20.491  0.00  0.00    +0.000 NA
ATOM     27  C   UNL     1      48.736   4.353  20.365  0.00  0.00    +0.000 A 
ATOM     28  N   UNL     1      49.157   3.768  19.197  0.00  0.00    +0.000 N 
ATOM     29  C   UNL     1      49.335   4.478  18.036  0.00  0.00    +0.000 A 
ATOM     30  O   UNL     1      49.867   3.965  17.056  0.00  0.00    +0.000 OA
ATOM     31  C   UNL     1      48.905   5.861  18.105  0.00  0.00    +0.000 A 
ATOM     32  H   UNL     1      49.444   2.801  19.175  0.00  0.00    +0.000 HD
ENDBRANCH  19  22
ENDBRANCH   1  20
TORSDOF 7
ENDMDL
MODEL 2
REMARK VINA RESULT:    -7.834      1.638      2.436
REMARK INTER + INTRA:         -12.056
REMARK INTER:                 -10.941
REMARK INTRA:                  -1.115
REMARK UNBOUND:                -1.016
REMARK  Name = 
REMARK  7 active torsions:
REMARK  status: ('A' for Active; 'I' for Inactive)
REMARK    1  A    between atoms: C_2  and  C_20
REMARK    2  A    between atoms: N_3  and  C_4
REMARK    3  A    between atoms: C_4  and  C_5
REMARK    4  A    between atoms: C_8  and  C_9
REMARK    5  A    between atoms: C_9  and  N_10
REMARK    6  A    between atoms: N_10  and  C_11
REMARK    7  A    between atoms: C_11  and  C_12
REMARK                            x       y       z     vdW  Elec       q    Type
REMARK                         _______ _______ _______ _____ _____    ______ ____
ROOT
ATOM      1  C   UNL     1      48.400   6.480  13.952  0.00  0.00    +0.000 C 
ENDROOT
BRANCH   1   2
ATOM      2  C   UNL     1      47.221   6.053  13.116  0.00  0.00    +0.000 A 
ATOM      3  C   UNL     1      46.327   5.091  13.600  0.00  0.00    +0.000 A 
ATOM      4  C   UNL     1      45.200   4.731  12.857  0.00  0.00    +0.000 A 
ATOM      5  C   UNL     1      44.941   5.321  11.611  0.00  0.00    +0.000 A 
ATOM      6  C   UNL     1      45.860   6.252  11.108  0.00  0.00    +0.000 A 
ATOM      7  C   UNL     1      46.993   6.609  11.850  0.00  0.00    +0.000 A 
BRANCH   5   8
ATOM      8  C   UNL     1      43.696   4.955  10.832  0.00  0.00    +0.000 C 
BRANCH   8   9
ATOM      9  N   UNL     1      44.049   4.413   9.522  0.00  0.00    +0.000 NA
ATOM     10  H   UNL     1      44.864   4.916   9.170  0.00  0.00    +0.000 HD
BRANCH   9  11
ATOM     11  C   UNL     1      44.388   2.987   9.587  0.00  0.00    +0.000 C 
BRANCH  11  12
ATOM     12  C   UNL     1      45.457   2.619   8.572  0.00  0.00    +0.000 A 
ATOM     13  C   UNL     1      45.983   3.597   7.726  0.00  0.00    +0.000 A 
ATOM     14  C   UNL     1      46.991   3.247   6.831  0.00  0.00    +0.000 A 
ATOM     15  C   UNL     1      47.441   1.934   6.795  0.00  0.00    +0.000 A 
ATOM     16  C   UNL     1      46.862   1.021   7.662  0.00  0.00    +0.000 A 
ATOM     17  N   UNL     1      45.888   1.333   8.547  0.00  0.00    +0.000 NA
ENDBRANCH  11  12
ENDBRANCH   9  11
ENDBRANCH   8   9
ENDBRANCH   5   8
ENDBRANCH   1   2
BRANCH   1  20
ATOM     18  O   UNL     1      49.979   5.784  16.174  0.00  0.00    +0.000 OA
ATOM     19  C   UNL     1      48.894   6.323  16.362  0.00  0.00    +0.000 C 
ATOM     20  N   UNL     1      48.046   6.654  15.337  0.00  0.00    +0.000 N 
ATOM     21  H   UNL     1      47.239   7.239  15.525  0.00  0.00    +0.000 HD
BRANCH  19  22
ATOM     22  C   UNL     1      48.409   6.605  17.718  0.00  0.00    +0.000 A 
ATOM     23  C   UNL     1      48.311   5.577  18.645  0.00  0.00    +0.000 A 
ATOM     24  S   UNL     1      47.768   6.091  20.179  0.00  0.00    +0.000 S 
ATOM     25  C   UNL     1      47.678   7.709  19.665  0.00  0.00    +0.000 A 
ATOM     26  N   UNL     1      47.315   8.699  20.524  0.00  0.00    +0.000 NA
ATOM     27  C   UNL     1      47.329   9.881  20.011  0.00  0.00    +0.000 A 
ATOM     28  N   UNL     1      47.650  10.166  18.708  0.00  0.00    +0.000 N 
ATOM     29  C   UNL     1      47.933   9.191  17.784  0.00  0.00    +0.000 A 
ATOM     30  O   UNL     1      48.053   9.463  16.594  0.00  0.00    +0.000 OA
ATOM     31  C   UNL     1      48.008   7.849  18.330  0.00  0.00    +0.000 A 
ATOM     32  H   UNL     1      47.596  11.110  18.355  0.00  0.00    +0.000 HD
ENDBRANCH  19  22
ENDBRANCH   1  20
TORSDOF 7
ENDMDL
MODEL 3
REMARK VINA RESULT:    -7.403      2.555      3.353
REMARK INTER + INTRA:         -11.449
REMARK INTER:                 -10.608
REMARK INTRA:                  -0.841
REMARK UNBOUND:                -1.016
REMARK  Name = 
REMARK  7 active torsions:
REMARK  status: ('A' for Active; 'I' for Inactive)
REMARK    1  A    between atoms: C_2  and  C_20
REMARK    2  A    between atoms: N_3  and  C_4
REMARK    3  A    between atoms: C_4  and  C_5
REMARK    4  A    between atoms: C_8  and  C_9
REMARK    5  A    between atoms: C_9  and  N_10
REMARK    6  A    between atoms: N_10  and  C_11
REMARK    7  A    between atoms: C_11  and  C_12
REMARK                            x       y       z     vdW  Elec       q    Type
REMARK                         _______ _______ _______ _____ _____    ______ ____
ROOT
ATOM      1  C   UNL     1      48.865   6.976  15.758  0.00  0.00    +0.000 C 
ENDROOT
BRANCH   1   2
ATOM      2  C   UNL     1      47.985   6.223  14.793  0.00  0.00    +0.000 A 
ATOM      3  C   UNL     1      47.454   4.978  15.150  0.00  0.00    +0.000 A 
ATOM      4  C   UNL     1      46.591   4.299  14.286  0.00  0.00    +0.000 A 
ATOM      5  C   UNL     1      46.241   4.847  13.043  0.00  0.00    +0.000 A 
ATOM      6  C   UNL     1      46.808   6.074  12.669  0.00  0.00    +0.000 A 
ATOM      7  C   UNL     1      47.677   6.751  13.532  0.00  0.00    +0.000 A 
BRANCH   5   8
ATOM      8  C   UNL     1      45.273   4.125  12.131  0.00  0.00    +0.000 C 
BRANCH   8   9
ATOM      9  N   UNL     1      44.901   4.973  11.000  0.00  0.00    +0.000 NA
ATOM     10  H   UNL     1      45.751   5.362  10.590  0.00  0.00    +0.000 HD
BRANCH   9  11
ATOM     11  C   UNL     1      44.194   4.222   9.956  0.00  0.00    +0.000 C 
BRANCH  11  12
ATOM     12  C   UNL     1      45.165   3.548   8.999  0.00  0.00    +0.000 A 
ATOM     13  C   UNL     1      45.331   2.163   9.033  0.00  0.00    +0.000 A 
ATOM     14  C   UNL     1      46.195   1.563   8.120  0.00  0.00    +0.000 A 
ATOM     15  C   UNL     1      46.874   2.356   7.205  0.00  0.00    +0.000 A 
ATOM     16  C   UNL     1      46.659   3.724   7.241  0.00  0.00    +0.000 A 
ATOM     17  N   UNL     1      45.822   4.335   8.110  0.00  0.00    +0.000 NA
ENDBRANCH  11  12
ENDBRANCH   9  11
ENDBRANCH   8   9
ENDBRANCH   5   8
ENDBRANCH   1   2
BRANCH   1  20
ATOM     18  O   UNL     1      49.144   5.698  18.250  0.00  0.00    +0.000 OA
ATOM     19  C   UNL     1      50.029   5.564  17.410  0.00  0.00    +0.000 C 
ATOM     20  N   UNL     1      49.991   6.187  16.190  0.00  0.00    +0.000 N 
ATOM     21  H   UNL     1      50.656   5.922  15.472  0.00  0.00    +0.000 HD
BRANCH  19  22
ATOM     22  C   UNL     1      51.222   4.757  17.687  0.00  0.00    +0.000 A 
ATOM     23  C   UNL     1      52.375   5.365  18.165  0.00  0.00    +0.000 A 
ATOM     24  S   UNL     1      53.649   4.272  18.467  0.00  0.00    +0.000 S 
ATOM     25  C   UNL     1      52.693   2.946  18.000  0.00  0.00    +0.000 A 
ATOM     26  N   UNL     1      53.176   1.675  18.065  0.00  0.00    +0.000 NA
ATOM     27  C   UNL     1      52.332   0.766  17.720  0.00  0.00    +0.000 A 
ATOM     28  N   UNL     1      51.051   1.008  17.290  0.00  0.00    +0.000 N 
ATOM     29  C   UNL     1      50.554   2.276  17.121  0.00  0.00    +0.000 A 
ATOM     30  O   UNL     1      49.468   2.463  16.580  0.00  0.00    +0.000 OA
ATOM     31  C   UNL     1      51.438   3.334  17.571  0.00  0.00    +0.000 A 
ATOM     32  H   UNL     1      50.454   0.253  16.989  0.00  0.00    +0.000 HD
ENDBRANCH  19  22
ENDBRANCH   1  20
TORSDOF 7
ENDMDL
MODEL 4
REMARK VINA RESULT:    -7.354      1.980      2.429
REMARK INTER + INTRA:         -11.379
REMARK INTER:                 -10.293
REMARK INTRA:                  -1.086
REMARK UNBOUND:                -1.016
REMARK  Name = 
REMARK  7 active torsions:
REMARK  status: ('A' for Active; 'I' for Inactive)
REMARK    1  A    between atoms: C_2  and  C_20
REMARK    2  A    between atoms: N_3  and  C_4
REMARK    3  A    between atoms: C_4  and  C_5
REMARK    4  A    between atoms: C_8  and  C_9
REMARK    5  A    between atoms: C_9  and  N_10
REMARK    6  A    between atoms: N_10  and  C_11
REMARK    7  A    between atoms: C_11  and  C_12
REMARK                            x       y       z     vdW  Elec       q    Type
REMARK                         _______ _______ _______ _____ _____    ______ ____
ROOT
ATOM      1  C   UNL     1      48.697   7.588  12.675  0.00  0.00    +0.000 C 
ENDROOT
BRANCH   1   2
ATOM      2  C   UNL     1      47.549   6.632  12.472  0.00  0.00    +0.000 A 
ATOM      3  C   UNL     1      46.736   6.739  11.338  0.00  0.00    +0.000 A 
ATOM      4  C   UNL     1      45.705   5.823  11.113  0.00  0.00    +0.000 A 
ATOM      5  C   UNL     1      45.461   4.779  12.018  0.00  0.00    +0.000 A 
ATOM      6  C   UNL     1      46.248   4.699  13.175  0.00  0.00    +0.000 A 
ATOM      7  C   UNL     1      47.277   5.621  13.404  0.00  0.00    +0.000 A 
BRANCH   5   8
ATOM      8  C   UNL     1      44.369   3.767  11.745  0.00  0.00    +0.000 C 
BRANCH   8   9
ATOM      9  N   UNL     1      44.889   2.650  10.958  0.00  0.00    +0.000 NA
ATOM     10  H   UNL     1      44.605   1.777  11.403  0.00  0.00    +0.000 HD
BRANCH   9  11
ATOM     11  C   UNL     1      44.366   2.652   9.587  0.00  0.00    +0.000 C 
BRANCH  11  12
ATOM     12  C   UNL     1      45.474   2.448   8.566  0.00  0.00    +0.000 A 
ATOM     13  C   UNL     1      45.936   3.528   7.812  0.00  0.00    +0.000 A 
ATOM     14  C   UNL     1      46.979   3.327   6.912  0.00  0.00    +0.000 A 
ATOM     15  C   UNL     1      47.527   2.059   6.779  0.00  0.00    +0.000 A 
ATOM     16  C   UNL     1      47.007   1.038   7.558  0.00  0.00    +0.000 A 
ATOM     17  N   UNL     1      46.000   1.203   8.447  0.00  0.00    +0.000 NA
ENDBRANCH  11  12
ENDBRANCH   9  11
ENDBRANCH   8   9
ENDBRANCH   5   8
ENDBRANCH   1   2
BRANCH   1  20
ATOM     18  O   UNL     1      49.896   9.074  14.740  0.00  0.00    +0.000 OA
ATOM     19  C   UNL     1      50.154   7.879  14.640  0.00  0.00    +0.000 C 
ATOM     20  N   UNL     1      49.647   7.094  13.638  0.00  0.00    +0.000 N 
ATOM     21  H   UNL     1      49.755   6.088  13.688  0.00  0.00    +0.000 HD
BRANCH  19  22
ATOM     22  C   UNL     1      51.075   7.220  15.574  0.00  0.00    +0.000 A 
ATOM     23  C   UNL     1      52.433   7.504  15.523  0.00  0.00    +0.000 A 
ATOM     24  S   UNL     1      53.347   6.679  16.703  0.00  0.00    +0.000 S 
ATOM     25  C   UNL     1      51.956   5.941  17.343  0.00  0.00    +0.000 A 
ATOM     26  N   UNL     1      52.031   5.123  18.428  0.00  0.00    +0.000 NA
ATOM     27  C   UNL     1      50.896   4.666  18.830  0.00  0.00    +0.000 A 
ATOM     28  N   UNL     1      49.688   4.930  18.233  0.00  0.00    +0.000 N 
ATOM     29  C   UNL     1      49.577   5.674  17.085  0.00  0.00    +0.000 A 
ATOM     30  O   UNL     1      48.510   5.754  16.484  0.00  0.00    +0.000 OA
ATOM     31  C   UNL     1      50.817   6.277  16.636  0.00  0.00    +0.000 A 
ATOM     32  H   UNL     1      48.839   4.502  18.569  0.00  0.00    +0.000 HD
ENDBRANCH  19  22
ENDBRANCH   1  20
TORSDOF 7
ENDMDL
MODEL 5
REMARK VINA RESULT:    -7.258      3.922      6.543
REMARK INTER + INTRA:         -11.244
REMARK INTER:                 -10.421
REMARK INTRA:                  -0.822
REMARK UNBOUND:                -1.016
REMARK  Name = 
REMARK  7 active torsions:
REMARK  status: ('A' for Active; 'I' for Inactive)
REMARK    1  A    between atoms: C_2  and  C_20
REMARK    2  A    between atoms: N_3  and  C_4
REMARK    3  A    between atoms: C_4  and  C_5
REMARK    4  A    between atoms: C_8  and  C_9
REMARK    5  A    between atoms: C_9  and  N_10
REMARK    6  A    between atoms: N_10  and  C_11
REMARK    7  A    between atoms: C_11  and  C_12
REMARK                            x       y       z     vdW  Elec       q    Type
REMARK                         _______ _______ _______ _____ _____    ______ ____
ROOT
ATOM      1  C   UNL     1      44.613   3.644  10.021  0.00  0.00    +0.000 C 
ENDROOT
BRANCH   1   2
ATOM      2  C   UNL     1      45.434   3.129   8.866  0.00  0.00    +0.000 A 
ATOM      3  C   UNL     1      45.757   1.770   8.784  0.00  0.00    +0.000 A 
ATOM      4  C   UNL     1      46.468   1.274   7.688  0.00  0.00    +0.000 A 
ATOM      5  C   UNL     1      46.876   2.125   6.650  0.00  0.00    +0.000 A 
ATOM      6  C   UNL     1      46.589   3.493   6.756  0.00  0.00    +0.000 A 
ATOM      7  C   UNL     1      45.882   3.992   7.857  0.00  0.00    +0.000 A 
BRANCH   5   8
ATOM      8  C   UNL     1      47.609   1.572   5.447  0.00  0.00    +0.000 C 
BRANCH   8   9
ATOM      9  N   UNL     1      46.944   0.371   4.946  0.00  0.00    +0.000 NA
ATOM     10  H   UNL     1      45.945   0.444   5.145  0.00  0.00    +0.000 HD
BRANCH   9  11
ATOM     11  C   UNL     1      47.109   0.213   3.497  0.00  0.00    +0.000 C 
BRANCH  11  12
ATOM     12  C   UNL     1      47.296  -1.245   3.111  0.00  0.00    +0.000 A 
ATOM     13  C   UNL     1      46.330  -2.190   3.462  0.00  0.00    +0.000 A 
ATOM     14  C   UNL     1      46.502  -3.513   3.064  0.00  0.00    +0.000 A 
ATOM     15  C   UNL     1      47.631  -3.862   2.336  0.00  0.00    +0.000 A 
ATOM     16  C   UNL     1      48.547  -2.867   2.035  0.00  0.00    +0.000 A 
ATOM     17  N   UNL     1      48.404  -1.573   2.401  0.00  0.00    +0.000 NA
ENDBRANCH  11  12
ENDBRANCH   9  11
ENDBRANCH   8   9
ENDBRANCH   5   8
ENDBRANCH   1   2
BRANCH   1  20
ATOM     18  O   UNL     1      43.159   5.727  11.231  0.00  0.00    +0.000 OA
ATOM     19  C   UNL     1      44.383   5.804  11.185  0.00  0.00    +0.000 C 
ATOM     20  N   UNL     1      45.161   4.855  10.576  0.00  0.00    +0.000 N 
ATOM     21  H   UNL     1      46.167   4.877  10.702  0.00  0.00    +0.000 HD
BRANCH  19  22
ATOM     22  C   UNL     1      45.092   6.960  11.745  0.00  0.00    +0.000 A 
ATOM     23  C   UNL     1      44.719   8.246  11.378  0.00  0.00    +0.000 A 
ATOM     24  S   UNL     1      45.623   9.467  12.153  0.00  0.00    +0.000 S 
ATOM     25  C   UNL     1      46.522   8.320  13.029  0.00  0.00    +0.000 A 
ATOM     26  N   UNL     1      47.461   8.707  13.934  0.00  0.00    +0.000 NA
ATOM     27  C   UNL     1      48.036   7.735  14.554  0.00  0.00    +0.000 A 
ATOM     28  N   UNL     1      47.777   6.405  14.338  0.00  0.00    +0.000 N 
ATOM     29  C   UNL     1      46.906   5.968  13.371  0.00  0.00    +0.000 A 
ATOM     30  O   UNL     1      46.820   4.777  13.089  0.00  0.00    +0.000 OA
ATOM     31  C   UNL     1      46.174   7.024  12.699  0.00  0.00    +0.000 A 
ATOM     32  H   UNL     1      48.297   5.690  14.824  0.00  0.00    +0.000 HD
ENDBRANCH  19  22
ENDBRANCH   1  20
TORSDOF 7
ENDMDL
MODEL 6
REMARK VINA RESULT:    -7.214      1.623      1.983
REMARK INTER + INTRA:         -11.181
REMARK INTER:                  -9.990
REMARK INTRA:                  -1.192
REMARK UNBOUND:                -1.016
REMARK  Name = 
REMARK  7 active torsions:
REMARK  status: ('A' for Active; 'I' for Inactive)
REMARK    1  A    between atoms: C_2  and  C_20
REMARK    2  A    between atoms: N_3  and  C_4
REMARK    3  A    between atoms: C_4  and  C_5
REMARK    4  A    between atoms: C_8  and  C_9
REMARK    5  A    between atoms: C_9  and  N_10
REMARK    6  A    between atoms: N_10  and  C_11
REMARK    7  A    between atoms: C_11  and  C_12
REMARK                            x       y       z     vdW  Elec       q    Type
REMARK                         _______ _______ _______ _____ _____    ______ ____
ROOT
ATOM      1  C   UNL     1      48.858   8.307  13.549  0.00  0.00    +0.000 C 
ENDROOT
BRANCH   1   2
ATOM      2  C   UNL     1      47.600   7.705  12.977  0.00  0.00    +0.000 A 
ATOM      3  C   UNL     1      47.588   6.373  12.550  0.00  0.00    +0.000 A 
ATOM      4  C   UNL     1      46.412   5.789  12.072  0.00  0.00    +0.000 A 
ATOM      5  C   UNL     1      45.220   6.526  12.006  0.00  0.00    +0.000 A 
ATOM      6  C   UNL     1      45.243   7.872  12.394  0.00  0.00    +0.000 A 
ATOM      7  C   UNL     1      46.423   8.459  12.868  0.00  0.00    +0.000 A 
BRANCH   5   8
ATOM      8  C   UNL     1      43.941   5.874  11.526  0.00  0.00    +0.000 C 
BRANCH   8   9
ATOM      9  N   UNL     1      44.070   5.452  10.133  0.00  0.00    +0.000 NA
ATOM     10  H   UNL     1      44.985   5.741   9.788  0.00  0.00    +0.000 HD
BRANCH   9  11
ATOM     11  C   UNL     1      43.967   3.995   9.986  0.00  0.00    +0.000 C 
BRANCH  11  12
ATOM     12  C   UNL     1      45.022   3.454   9.036  0.00  0.00    +0.000 A 
ATOM     13  C   UNL     1      45.304   2.087   9.010  0.00  0.00    +0.000 A 
ATOM     14  C   UNL     1      46.245   1.607   8.103  0.00  0.00    +0.000 A 
ATOM     15  C   UNL     1      46.886   2.498   7.253  0.00  0.00    +0.000 A 
ATOM     16  C   UNL     1      46.556   3.841   7.347  0.00  0.00    +0.000 A 
ATOM     17  N   UNL     1      45.641   4.336   8.212  0.00  0.00    +0.000 NA
ENDBRANCH  11  12
ENDBRANCH   9  11
ENDBRANCH   8   9
ENDBRANCH   5   8
ENDBRANCH   1   2
BRANCH   1  20
ATOM     18  O   UNL     1      48.047   9.194  16.093  0.00  0.00    +0.000 OA
ATOM     19  C   UNL     1      48.742   8.187  16.008  0.00  0.00    +0.000 C 
ATOM     20  N   UNL     1      49.215   7.713  14.811  0.00  0.00    +0.000 N 
ATOM     21  H   UNL     1      49.645   6.796  14.772  0.00  0.00    +0.000 HD
BRANCH  19  22
ATOM     22  C   UNL     1      49.156   7.446  17.205  0.00  0.00    +0.000 A 
ATOM     23  C   UNL     1      49.813   8.106  18.235  0.00  0.00    +0.000 A 
ATOM     24  S   UNL     1      50.185   7.101  19.562  0.00  0.00    +0.000 S 
ATOM     25  C   UNL     1      49.451   5.758  18.820  0.00  0.00    +0.000 A 
ATOM     26  N   UNL     1      49.378   4.558  19.455  0.00  0.00    +0.000 NA
ATOM     27  C   UNL     1      48.761   3.642  18.794  0.00  0.00    +0.000 A 
ATOM     28  N   UNL     1      48.226   3.804  17.540  0.00  0.00    +0.000 N 
ATOM     29  C   UNL     1      48.356   4.969  16.826  0.00  0.00    +0.000 A 
ATOM     30  O   UNL     1      48.014   5.031  15.649  0.00  0.00    +0.000 OA
ATOM     31  C   UNL     1      48.975   6.058  17.557  0.00  0.00    +0.000 A 
ATOM     32  H   UNL     1      47.795   3.032  17.056  0.00  0.00    +0.000 HD
ENDBRANCH  19  22
ENDBRANCH   1  20
TORSDOF 7
ENDMDL
MODEL 7
REMARK VINA RESULT:    -6.961      1.706      2.653
REMARK INTER + INTRA:         -10.825
REMARK INTER:                  -9.865
REMARK INTRA:                  -0.960
REMARK UNBOUND:                -1.016
REMARK  Name = 
REMARK  7 active torsions:
REMARK  status: ('A' for Active; 'I' for Inactive)
REMARK    1  A    between atoms: C_2  and  C_20
REMARK    2  A    between atoms: N_3  and  C_4
REMARK    3  A    between atoms: C_4  and  C_5
REMARK    4  A    between atoms: C_8  and  C_9
REMARK    5  A    between atoms: C_9  and  N_10
REMARK    6  A    between atoms: N_10  and  C_11
REMARK    7  A    between atoms: C_11  and  C_12
REMARK                            x       y       z     vdW  Elec       q    Type
REMARK                         _______ _______ _______ _____ _____    ______ ____
ROOT
ATOM      1  C   UNL     1      47.344   3.738  14.810  0.00  0.00    +0.000 C 
ENDROOT
BRANCH   1   2
ATOM      2  C   UNL     1      46.393   4.081  13.692  0.00  0.00    +0.000 A 
ATOM      3  C   UNL     1      46.085   5.418  13.417  0.00  0.00    +0.000 A 
ATOM      4  C   UNL     1      45.249   5.749  12.347  0.00  0.00    +0.000 A 
ATOM      5  C   UNL     1      44.699   4.751  11.529  0.00  0.00    +0.000 A 
ATOM      6  C   UNL     1      44.974   3.411  11.832  0.00  0.00    +0.000 A 
ATOM      7  C   UNL     1      45.806   3.079  12.908  0.00  0.00    +0.000 A 
BRANCH   5   8
ATOM      8  C   UNL     1      43.829   5.121  10.347  0.00  0.00    +0.000 C 
BRANCH   8   9
ATOM      9  N   UNL     1      44.060   4.205   9.231  0.00  0.00    +0.000 NA
ATOM     10  H   UNL     1      43.265   4.259   8.594  0.00  0.00    +0.000 HD
BRANCH   9  11
ATOM     11  C   UNL     1      45.271   4.550   8.476  0.00  0.00    +0.000 C 
BRANCH  11  12
ATOM     12  C   UNL     1      45.929   3.315   7.882  0.00  0.00    +0.000 A 
ATOM     13  C   UNL     1      46.695   3.423   6.720  0.00  0.00    +0.000 A 
ATOM     14  C   UNL     1      47.322   2.287   6.216  0.00  0.00    +0.000 A 
ATOM     15  C   UNL     1      47.164   1.075   6.874  0.00  0.00    +0.000 A 
ATOM     16  C   UNL     1      46.381   1.050   8.017  0.00  0.00    +0.000 A 
ATOM     17  N   UNL     1      45.765   2.137   8.535  0.00  0.00    +0.000 NA
ENDBRANCH  11  12
ENDBRANCH   9  11
ENDBRANCH   8   9
ENDBRANCH   5   8
ENDBRANCH   1   2
BRANCH   1  20
ATOM     18  O   UNL     1      47.651   3.580  17.602  0.00  0.00    +0.000 OA
ATOM     19  C   UNL     1      47.725   4.677  17.056  0.00  0.00    +0.000 C 
ATOM     20  N   UNL     1      47.544   4.845  15.708  0.00  0.00    +0.000 N 
ATOM     21  H   UNL     1      47.773   5.736  15.281  0.00  0.00    +0.000 HD
BRANCH  19  22
ATOM     22  C   UNL     1      47.966   5.898  17.834  0.00  0.00    +0.000 A 
ATOM     23  C   UNL     1      47.254   6.125  19.004  0.00  0.00    +0.000 A 
ATOM     24  S   UNL     1      47.689   7.571  19.797  0.00  0.00    +0.000 S 
ATOM     25  C   UNL     1      48.867   7.925  18.622  0.00  0.00    +0.000 A 
ATOM     26  N   UNL     1      49.655   9.028  18.729  0.00  0.00    +0.000 NA
ATOM     27  C   UNL     1      50.530   9.150  17.792  0.00  0.00    +0.000 A 
ATOM     28  N   UNL     1      50.678   8.282  16.739  0.00  0.00    +0.000 N 
ATOM     29  C   UNL     1      49.846   7.208  16.543  0.00  0.00    +0.000 A 
ATOM     30  O   UNL     1      49.897   6.550  15.509  0.00  0.00    +0.000 OA
ATOM     31  C   UNL     1      48.893   6.982  17.613  0.00  0.00    +0.000 A 
ATOM     32  H   UNL     1      51.353   8.460  16.011  0.00  0.00    +0.000 HD
ENDBRANCH  19  22
ENDBRANCH   1  20
TORSDOF 7
ENDMDL
MODEL 8
REMARK VINA RESULT:    -6.925      3.452      8.451
REMARK INTER + INTRA:         -10.775
REMARK INTER:                  -9.374
REMARK INTRA:                  -1.401
REMARK UNBOUND:                -1.016
REMARK  Name = 
REMARK  7 active torsions:
REMARK  status: ('A' for Active; 'I' for Inactive)
REMARK    1  A    between atoms: C_2  and  C_20
REMARK    2  A    between atoms: N_3  and  C_4
REMARK    3  A    between atoms: C_4  and  C_5
REMARK    4  A    between atoms: C_8  and  C_9
REMARK    5  A    between atoms: C_9  and  N_10
REMARK    6  A    between atoms: N_10  and  C_11
REMARK    7  A    between atoms: C_11  and  C_12
REMARK                            x       y       z     vdW  Elec       q    Type
REMARK                         _______ _______ _______ _____ _____    ______ ____
ROOT
ATOM      1  C   UNL     1      47.816   8.256  12.334  0.00  0.00    +0.000 C 
ENDROOT
BRANCH   1   2
ATOM      2  C   UNL     1      48.141   8.044  13.790  0.00  0.00    +0.000 A 
ATOM      3  C   UNL     1      48.478   6.769  14.257  0.00  0.00    +0.000 A 
ATOM      4  C   UNL     1      48.837   6.574  15.594  0.00  0.00    +0.000 A 
ATOM      5  C   UNL     1      48.864   7.648  16.496  0.00  0.00    +0.000 A 
ATOM      6  C   UNL     1      48.484   8.917  16.036  0.00  0.00    +0.000 A 
ATOM      7  C   UNL     1      48.119   9.112  14.698  0.00  0.00    +0.000 A 
BRANCH   5   8
ATOM      8  C   UNL     1      49.293   7.434  17.931  0.00  0.00    +0.000 C 
BRANCH   8   9
ATOM      9  N   UNL     1      48.195   6.878  18.720  0.00  0.00    +0.000 NA
ATOM     10  H   UNL     1      47.425   6.650  18.091  0.00  0.00    +0.000 HD
BRANCH   9  11
ATOM     11  C   UNL     1      48.587   5.652  19.423  0.00  0.00    +0.000 C 
BRANCH  11  12
ATOM     12  C   UNL     1      48.682   4.469  18.473  0.00  0.00    +0.000 A 
ATOM     13  C   UNL     1      47.548   4.032  17.786  0.00  0.00    +0.000 A 
ATOM     14  C   UNL     1      47.666   2.973  16.890  0.00  0.00    +0.000 A 
ATOM     15  C   UNL     1      48.904   2.372  16.708  0.00  0.00    +0.000 A 
ATOM     16  C   UNL     1      49.979   2.859  17.434  0.00  0.00    +0.000 A 
ATOM     17  N   UNL     1      49.898   3.890  18.305  0.00  0.00    +0.000 NA
ENDBRANCH  11  12
ENDBRANCH   9  11
ENDBRANCH   8   9
ENDBRANCH   5   8
ENDBRANCH   1   2
BRANCH   1  20
ATOM     18  O   UNL     1      45.096   7.974  11.669  0.00  0.00    +0.000 OA
ATOM     19  C   UNL     1      45.869   7.056  11.414  0.00  0.00    +0.000 C 
ATOM     20  N   UNL     1      47.199   7.096  11.744  0.00  0.00    +0.000 N 
ATOM     21  H   UNL     1      47.827   6.392  11.372  0.00  0.00    +0.000 HD
BRANCH  19  22
ATOM     22  C   UNL     1      45.398   5.822  10.775  0.00  0.00    +0.000 A 
ATOM     23  C   UNL     1      45.739   5.551   9.457  0.00  0.00    +0.000 A 
ATOM     24  S   UNL     1      45.139   4.059   8.890  0.00  0.00    +0.000 S 
ATOM     25  C   UNL     1      44.431   3.709  10.396  0.00  0.00    +0.000 A 
ATOM     26  N   UNL     1      43.783   2.533  10.611  0.00  0.00    +0.000 NA
ATOM     27  C   UNL     1      43.332   2.384  11.808  0.00  0.00    +0.000 A 
ATOM     28  N   UNL     1      43.447   3.314  12.811  0.00  0.00    +0.000 N 
ATOM     29  C   UNL     1      44.012   4.550  12.613  0.00  0.00    +0.000 A 
ATOM     30  O   UNL     1      43.952   5.418  13.478  0.00  0.00    +0.000 OA
ATOM     31  C   UNL     1      44.606   4.737  11.303  0.00  0.00    +0.000 A 
ATOM     32  H   UNL     1      43.030   3.156  13.716  0.00  0.00    +0.000 HD
ENDBRANCH  19  22
ENDBRANCH   1  20
TORSDOF 7
ENDMDL
MODEL 9
REMARK VINA RESULT:    -6.751      3.166      8.759
REMARK INTER + INTRA:         -10.530
REMARK INTER:                  -9.025
REMARK INTRA:                  -1.505
REMARK UNBOUND:                -1.016
REMARK  Name = 
REMARK  7 active torsions:
REMARK  status: ('A' for Active; 'I' for Inactive)
REMARK    1  A    between atoms: C_2  and  C_20
REMARK    2  A    between atoms: N_3  and  C_4
REMARK    3  A    between atoms: C_4  and  C_5
REMARK    4  A    between atoms: C_8  and  C_9
REMARK    5  A    between atoms: C_9  and  N_10
REMARK    6  A    between atoms: N_10  and  C_11
REMARK    7  A    between atoms: C_11  and  C_12
REMARK                            x       y       z     vdW  Elec       q    Type
REMARK                         _______ _______ _______ _____ _____    ______ ____
ROOT
ATOM      1  C   UNL     1      47.561   8.043  11.854  0.00  0.00    +0.000 C 
ENDROOT
BRANCH   1   2
ATOM      2  C   UNL     1      48.343   8.168  13.137  0.00  0.00    +0.000 A 
ATOM      3  C   UNL     1      47.763   8.774  14.257  0.00  0.00    +0.000 A 
ATOM      4  C   UNL     1      48.458   8.843  15.467  0.00  0.00    +0.000 A 
ATOM      5  C   UNL     1      49.751   8.310  15.585  0.00  0.00    +0.000 A 
ATOM      6  C   UNL     1      50.346   7.741  14.451  0.00  0.00    +0.000 A 
ATOM      7  C   UNL     1      49.651   7.678  13.236  0.00  0.00    +0.000 A 
BRANCH   5   8
ATOM      8  C   UNL     1      50.480   8.351  16.911  0.00  0.00    +0.000 C 
BRANCH   8   9
ATOM      9  N   UNL     1      50.582   7.011  17.484  0.00  0.00    +0.000 NA
ATOM     10  H   UNL     1      51.414   6.970  18.073  0.00  0.00    +0.000 HD
BRANCH   9  11
ATOM     11  C   UNL     1      49.420   6.676  18.314  0.00  0.00    +0.000 C 
BRANCH  11  12
ATOM     12  C   UNL     1      48.794   5.356  17.894  0.00  0.00    +0.000 A 
ATOM     13  C   UNL     1      48.175   5.242  16.648  0.00  0.00    +0.000 A 
ATOM     14  C   UNL     1      47.644   4.013  16.266  0.00  0.00    +0.000 A 
ATOM     15  C   UNL     1      47.736   2.934  17.135  0.00  0.00    +0.000 A 
ATOM     16  C   UNL     1      48.359   3.131  18.357  0.00  0.00    +0.000 A 
ATOM     17  N   UNL     1      48.890   4.310  18.753  0.00  0.00    +0.000 NA
ENDBRANCH  11  12
ENDBRANCH   9  11
ENDBRANCH   8   9
ENDBRANCH   5   8
ENDBRANCH   1   2
BRANCH   1  20
ATOM     18  O   UNL     1      44.774   7.661  11.884  0.00  0.00    +0.000 OA
ATOM     19  C   UNL     1      45.506   6.687  11.743  0.00  0.00    +0.000 C 
ATOM     20  N   UNL     1      46.873   6.782  11.761  0.00  0.00    +0.000 N 
ATOM     21  H   UNL     1      47.433   5.984  11.480  0.00  0.00    +0.000 HD
BRANCH  19  22
ATOM     22  C   UNL     1      44.953   5.336  11.594  0.00  0.00    +0.000 A 
ATOM     23  C   UNL     1      44.281   4.742  12.654  0.00  0.00    +0.000 A 
ATOM     24  S   UNL     1      43.673   3.190  12.293  0.00  0.00    +0.000 S 
ATOM     25  C   UNL     1      44.258   3.273  10.698  0.00  0.00    +0.000 A 
ATOM     26  N   UNL     1      44.032   2.264   9.815  0.00  0.00    +0.000 NA
ATOM     27  C   UNL     1      44.495   2.477   8.633  0.00  0.00    +0.000 A 
ATOM     28  N   UNL     1      45.188   3.599   8.252  0.00  0.00    +0.000 N 
ATOM     29  C   UNL     1      45.517   4.599   9.133  0.00  0.00    +0.000 A 
ATOM     30  O   UNL     1      46.276   5.506   8.805  0.00  0.00    +0.000 OA
ATOM     31  C   UNL     1      44.951   4.444  10.459  0.00  0.00    +0.000 A 
ATOM     32  H   UNL     1      45.566   3.685   7.321  0.00  0.00    +0.000 HD
ENDBRANCH  19  22
ENDBRANCH   1  20
TORSDOF 7
ENDMDL
