MODEL 1
REMARK VINA RESULT:    -8.584      0.000      0.000
REMARK INTER + INTRA:         -12.890
REMARK INTER:                 -12.097
REMARK INTRA:                  -0.793
REMARK UNBOUND:                -0.793
REMARK  Name = 
REMARK  7 active torsions:
REMARK  status: ('A' for Active; 'I' for Inactive)
REMARK    1  A    between atoms: C_2  and  S_3
REMARK    2  A    between atoms: C_2  and  C_11
REMARK    3  A    between atoms: S_3  and  C_4
REMARK    4  A    between atoms: C_4  and  C_5
REMARK    5  A    between atoms: C_14  and  C_15
REMARK    6  A    between atoms: C_15  and  N_16
REMARK    7  A    between atoms: C_17  and  C_19
REMARK                            x       y       z     vdW  Elec       q    Type
REMARK                         _______ _______ _______ _____ _____    ______ ____
ROOT
ATOM      1  C   UNL     1      45.020   4.717  11.869  0.00  0.00    +0.000 A 
ATOM      2  C   UNL     1      45.421   5.984  11.443  0.00  0.00    +0.000 A 
ATOM      3  C   UNL     1      46.458   6.660  12.106  0.00  0.00    +0.000 A 
ATOM      4  C   UNL     1      47.124   6.069  13.194  0.00  0.00    +0.000 A 
ATOM      5  C   UNL     1      46.718   4.789  13.598  0.00  0.00    +0.000 A 
ATOM      6  C   UNL     1      45.681   4.115  12.943  0.00  0.00    +0.000 A 
ENDROOT
BRANCH   1   8
ATOM      7  N   UNL     1      42.682   4.332  11.429  0.00  0.00    +0.000 NA
ATOM      8  C   UNL     1      43.901   4.049  11.140  0.00  0.00    +0.000 C 
ATOM      9  H   UNL     1      42.017   3.785  10.886  0.00  0.00    +0.000 HD
BRANCH   8  10
ATOM     10  S   UNL     1      44.355   2.818   9.980  0.00  0.00    +0.000 S 
BRANCH  10  11
ATOM     11  C   UNL     1      44.947   3.745   8.555  0.00  0.00    +0.000 C 
BRANCH  11  12
ATOM     12  C   UNL     1      45.883   2.918   7.705  0.00  0.00    +0.000 A 
ATOM     13  C   UNL     1      46.274   1.633   8.111  0.00  0.00    +0.000 A 
ATOM     14  C   UNL     1      47.119   0.862   7.308  0.00  0.00    +0.000 A 
ATOM     15  C   UNL     1      47.586   1.370   6.098  0.00  0.00    +0.000 A 
ATOM     16  C   UNL     1      47.223   2.654   5.694  0.00  0.00    +0.000 A 
ATOM     17  C   UNL     1      46.382   3.427   6.496  0.00  0.00    +0.000 A 
ENDBRANCH  11  12
ENDBRANCH  10  11
ENDBRANCH   8  10
ENDBRANCH   1   8
BRANCH   4  18
ATOM     18  C   UNL     1      48.271   6.740  13.919  0.00  0.00    +0.000 C 
BRANCH  18  19
ATOM     19  N   UNL     1      48.063   6.876  15.338  0.00  0.00    +0.000 N 
ATOM     20  C   UNL     1      49.033   6.556  16.252  0.00  0.00    +0.000 C 
ATOM     21  O   UNL     1      50.142   6.128  15.939  0.00  0.00    +0.000 OA
ATOM     22  H   UNL     1      47.106   6.916  15.668  0.00  0.00    +0.000 HD
BRANCH  20  23
ATOM     23  C   UNL     1      48.680   6.833  17.649  0.00  0.00    +0.000 A 
ATOM     24  C   UNL     1      48.354   8.121  18.052  0.00  0.00    +0.000 A 
ATOM     25  S   UNL     1      47.899   8.220  19.695  0.00  0.00    +0.000 S 
ATOM     26  C   UNL     1      48.174   6.558  19.930  0.00  0.00    +0.000 A 
ATOM     27  N   UNL     1      47.995   5.975  21.152  0.00  0.00    +0.000 NA
ATOM     28  C   UNL     1      48.272   4.722  21.191  0.00  0.00    +0.000 A 
ATOM     29  N   UNL     1      48.706   3.977  20.120  0.00  0.00    +0.000 N 
ATOM     30  C   UNL     1      48.843   4.509  18.863  0.00  0.00    +0.000 A 
ATOM     31  O   UNL     1      49.141   3.800  17.902  0.00  0.00    +0.000 OA
ATOM     32  C   UNL     1      48.580   5.930  18.773  0.00  0.00    +0.000 A 
ATOM     33  H   UNL     1      48.885   2.990  20.211  0.00  0.00    +0.000 HD
ENDBRANCH  20  23
ENDBRANCH  18  19
ENDBRANCH   4  18
TORSDOF 7
ENDMDL
MODEL 2
REMARK VINA RESULT:    -8.543      0.553      1.339
REMARK INTER + INTRA:         -12.832
REMARK INTER:                 -12.062
REMARK INTRA:                  -0.770
REMARK UNBOUND:                -0.793
REMARK  Name = 
REMARK  7 active torsions:
REMARK  status: ('A' for Active; 'I' for Inactive)
REMARK    1  A    between atoms: C_2  and  S_3
REMARK    2  A    between atoms: C_2  and  C_11
REMARK    3  A    between atoms: S_3  and  C_4
REMARK    4  A    between atoms: C_4  and  C_5
REMARK    5  A    between atoms: C_14  and  C_15
REMARK    6  A    between atoms: C_15  and  N_16
REMARK    7  A    between atoms: C_17  and  C_19
REMARK                            x       y       z     vdW  Elec       q    Type
REMARK                         _______ _______ _______ _____ _____    ______ ____
ROOT
ATOM      1  C   UNL     1      44.948   4.821  11.687  0.00  0.00    +0.000 A 
ATOM      2  C   UNL     1      45.290   4.543  13.012  0.00  0.00    +0.000 A 
ATOM      3  C   UNL     1      46.322   5.257  13.642  0.00  0.00    +0.000 A 
ATOM      4  C   UNL     1      47.015   6.273  12.964  0.00  0.00    +0.000 A 
ATOM      5  C   UNL     1      46.648   6.550  11.639  0.00  0.00    +0.000 A 
ATOM      6  C   UNL     1      45.624   5.837  11.005  0.00  0.00    +0.000 A 
ENDROOT
BRANCH   1   8
ATOM      7  N   UNL     1      42.632   4.222  11.396  0.00  0.00    +0.000 NA
ATOM      8  C   UNL     1      43.855   4.023  11.058  0.00  0.00    +0.000 C 
ATOM      9  H   UNL     1      41.990   3.592  10.921  0.00  0.00    +0.000 HD
BRANCH   8  10
ATOM     10  S   UNL     1      44.354   2.766   9.944  0.00  0.00    +0.000 S 
BRANCH  10  11
ATOM     11  C   UNL     1      44.820   3.654   8.450  0.00  0.00    +0.000 C 
BRANCH  11  12
ATOM     12  C   UNL     1      45.825   2.876   7.633  0.00  0.00    +0.000 A 
ATOM     13  C   UNL     1      46.336   3.400   6.435  0.00  0.00    +0.000 A 
ATOM     14  C   UNL     1      47.284   2.687   5.697  0.00  0.00    +0.000 A 
ATOM     15  C   UNL     1      47.725   1.444   6.144  0.00  0.00    +0.000 A 
ATOM     16  C   UNL     1      47.210   0.902   7.320  0.00  0.00    +0.000 A 
ATOM     17  C   UNL     1      46.259   1.611   8.057  0.00  0.00    +0.000 A 
ENDBRANCH  11  12
ENDBRANCH  10  11
ENDBRANCH   8  10
ENDBRANCH   1   8
BRANCH   4  18
ATOM     18  C   UNL     1      48.110   7.095  13.611  0.00  0.00    +0.000 C 
BRANCH  18  19
ATOM     19  N   UNL     1      48.086   7.065  15.051  0.00  0.00    +0.000 N 
ATOM     20  C   UNL     1      49.222   6.896  15.797  0.00  0.00    +0.000 C 
ATOM     21  O   UNL     1      50.339   6.751  15.304  0.00  0.00    +0.000 OA
ATOM     22  H   UNL     1      47.199   6.866  15.499  0.00  0.00    +0.000 HD
BRANCH  20  23
ATOM     23  C   UNL     1      49.025   6.973  17.249  0.00  0.00    +0.000 A 
ATOM     24  C   UNL     1      48.852   8.201  17.873  0.00  0.00    +0.000 A 
ATOM     25  S   UNL     1      48.561   8.072  19.551  0.00  0.00    +0.000 S 
ATOM     26  C   UNL     1      48.709   6.378  19.503  0.00  0.00    +0.000 A 
ATOM     27  N   UNL     1      48.593   5.624  20.636  0.00  0.00    +0.000 NA
ATOM     28  C   UNL     1      48.761   4.364  20.457  0.00  0.00    +0.000 A 
ATOM     29  N   UNL     1      49.027   3.769  19.247  0.00  0.00    +0.000 N 
ATOM     30  C   UNL     1      49.094   4.481  18.077  0.00  0.00    +0.000 A 
ATOM     31  O   UNL     1      49.239   3.913  16.994  0.00  0.00    +0.000 OA
ATOM     32  C   UNL     1      48.950   5.913  18.229  0.00  0.00    +0.000 A 
ATOM     33  H   UNL     1      49.126   2.769  19.169  0.00  0.00    +0.000 HD
ENDBRANCH  20  23
ENDBRANCH  18  19
ENDBRANCH   4  18
TORSDOF 7
ENDMDL
MODEL 3
REMARK VINA RESULT:    -8.443      1.367      2.011
REMARK INTER + INTRA:         -12.691
REMARK INTER:                 -11.691
REMARK INTRA:                  -0.999
REMARK UNBOUND:                -0.793
REMARK  Name = 
REMARK  7 active torsions:
REMARK  status: ('A' for Active; 'I' for Inactive)
REMARK    1  A    between atoms: C_2  and  S_3
REMARK    2  A    between atoms: C_2  and  C_11
REMARK    3  A    between atoms: S_3  and  C_4
REMARK    4  A    between atoms: C_4  and  C_5
REMARK    5  A    between atoms: C_14  and  C_15
REMARK    6  A    between atoms: C_15  and  N_16
REMARK    7  A    between atoms: C_17  and  C_19
REMARK                            x       y       z     vdW  Elec       q    Type
REMARK                         _______ _______ _______ _____ _____    ______ ____
ROOT
ATOM      1  C   UNL     1      45.036   4.851  11.752  0.00  0.00    +0.000 A 
ATOM      2  C   UNL     1      45.737   5.937  11.227  0.00  0.00    +0.000 A 
ATOM      3  C   UNL     1      46.745   6.561  11.980  0.00  0.00    +0.000 A 
ATOM      4  C   UNL     1      47.081   6.094  13.262  0.00  0.00    +0.000 A 
ATOM      5  C   UNL     1      46.377   4.992  13.767  0.00  0.00    +0.000 A 
ATOM      6  C   UNL     1      45.368   4.371  13.022  0.00  0.00    +0.000 A 
ENDROOT
BRANCH   1   8
ATOM      7  N   UNL     1      42.866   3.843  11.461  0.00  0.00    +0.000 NA
ATOM      8  C   UNL     1      43.963   4.234  10.917  0.00  0.00    +0.000 C 
ATOM      9  H   UNL     1      42.233   3.411  10.792  0.00  0.00    +0.000 HD
BRANCH   8  10
ATOM     10  S   UNL     1      44.337   3.993   9.223  0.00  0.00    +0.000 S 
BRANCH  10  11
ATOM     11  C   UNL     1      45.173   2.400   9.174  0.00  0.00    +0.000 C 
BRANCH  11  12
ATOM     12  C   UNL     1      46.022   2.257   7.932  0.00  0.00    +0.000 A 
ATOM     13  C   UNL     1      46.758   1.086   7.697  0.00  0.00    +0.000 A 
ATOM     14  C   UNL     1      47.521   0.949   6.535  0.00  0.00    +0.000 A 
ATOM     15  C   UNL     1      47.561   1.982   5.601  0.00  0.00    +0.000 A 
ATOM     16  C   UNL     1      46.852   3.160   5.833  0.00  0.00    +0.000 A 
ATOM     17  C   UNL     1      46.092   3.300   6.996  0.00  0.00    +0.000 A 
ENDBRANCH  11  12
ENDBRANCH  10  11
ENDBRANCH   8  10
ENDBRANCH   1   8
BRANCH   4  18
ATOM     18  C   UNL     1      48.183   6.709  14.098  0.00  0.00    +0.000 C 
BRANCH  18  19
ATOM     19  N   UNL     1      48.062   6.442  15.509  0.00  0.00    +0.000 N 
ATOM     20  C   UNL     1      49.154   6.246  16.313  0.00  0.00    +0.000 C 
ATOM     21  O   UNL     1      50.311   6.276  15.899  0.00  0.00    +0.000 OA
ATOM     22  H   UNL     1      47.168   6.100  15.844  0.00  0.00    +0.000 HD
BRANCH  20  23
ATOM     23  C   UNL     1      48.849   6.069  17.737  0.00  0.00    +0.000 A 
ATOM     24  C   UNL     1      49.089   4.853  18.363  0.00  0.00    +0.000 A 
ATOM     25  S   UNL     1      48.741   4.874  20.034  0.00  0.00    +0.000 S 
ATOM     26  C   UNL     1      48.210   6.488  19.961  0.00  0.00    +0.000 A 
ATOM     27  N   UNL     1      47.739   7.131  21.071  0.00  0.00    +0.000 NA
ATOM     28  C   UNL     1      47.341   8.333  20.862  0.00  0.00    +0.000 A 
ATOM     29  N   UNL     1      47.374   8.974  19.645  0.00  0.00    +0.000 N 
ATOM     30  C   UNL     1      47.892   8.387  18.520  0.00  0.00    +0.000 A 
ATOM     31  O   UNL     1      47.997   9.014  17.466  0.00  0.00    +0.000 OA
ATOM     32  C   UNL     1      48.319   7.014  18.693  0.00  0.00    +0.000 A 
ATOM     33  H   UNL     1      47.068   9.930  19.552  0.00  0.00    +0.000 HD
ENDBRANCH  20  23
ENDBRANCH  18  19
ENDBRANCH   4  18
TORSDOF 7
ENDMDL
MODEL 4
REMARK VINA RESULT:    -8.081      1.711      2.263
REMARK INTER + INTRA:         -12.180
REMARK INTER:                 -11.089
REMARK INTRA:                  -1.091
REMARK UNBOUND:                -0.793
REMARK  Name = 
REMARK  7 active torsions:
REMARK  status: ('A' for Active; 'I' for Inactive)
REMARK    1  A    between atoms: C_2  and  S_3
REMARK    2  A    between atoms: C_2  and  C_11
REMARK    3  A    between atoms: S_3  and  C_4
REMARK    4  A    between atoms: C_4  and  C_5
REMARK    5  A    between atoms: C_14  and  C_15
REMARK    6  A    between atoms: C_15  and  N_16
REMARK    7  A    between atoms: C_17  and  C_19
REMARK                            x       y       z     vdW  Elec       q    Type
REMARK                         _______ _______ _______ _____ _____    ______ ____
ROOT
ATOM      1  C   UNL     1      45.532   4.987  12.179  0.00  0.00    +0.000 A 
ATOM      2  C   UNL     1      46.410   4.927  13.262  0.00  0.00    +0.000 A 
ATOM      3  C   UNL     1      47.027   6.095  13.739  0.00  0.00    +0.000 A 
ATOM      4  C   UNL     1      46.759   7.343  13.153  0.00  0.00    +0.000 A 
ATOM      5  C   UNL     1      45.862   7.386  12.076  0.00  0.00    +0.000 A 
ATOM      6  C   UNL     1      45.250   6.224  11.593  0.00  0.00    +0.000 A 
ENDROOT
BRANCH   1   8
ATOM      7  N   UNL     1      45.076   2.627  12.366  0.00  0.00    +0.000 NA
ATOM      8  C   UNL     1      44.915   3.714  11.699  0.00  0.00    +0.000 C 
ATOM      9  H   UNL     1      44.636   1.827  11.916  0.00  0.00    +0.000 HD
BRANCH   8  10
ATOM     10  S   UNL     1      44.079   3.787  10.162  0.00  0.00    +0.000 S 
BRANCH  10  11
ATOM     11  C   UNL     1      44.445   2.208   9.380  0.00  0.00    +0.000 C 
BRANCH  11  12
ATOM     12  C   UNL     1      45.584   2.328   8.395  0.00  0.00    +0.000 A 
ATOM     13  C   UNL     1      46.372   1.213   8.071  0.00  0.00    +0.000 A 
ATOM     14  C   UNL     1      47.408   1.324   7.140  0.00  0.00    +0.000 A 
ATOM     15  C   UNL     1      47.670   2.548   6.530  0.00  0.00    +0.000 A 
ATOM     16  C   UNL     1      46.909   3.669   6.860  0.00  0.00    +0.000 A 
ATOM     17  C   UNL     1      45.876   3.561   7.793  0.00  0.00    +0.000 A 
ENDBRANCH  11  12
ENDBRANCH  10  11
ENDBRANCH   8  10
ENDBRANCH   1   8
BRANCH   4  18
ATOM     18  C   UNL     1      47.370   8.635  13.653  0.00  0.00    +0.000 C 
BRANCH  18  19
ATOM     19  N   UNL     1      47.367   8.762  15.089  0.00  0.00    +0.000 N 
ATOM     20  C   UNL     1      48.327   9.471  15.762  0.00  0.00    +0.000 C 
ATOM     21  O   UNL     1      49.261  10.043  15.203  0.00  0.00    +0.000 OA
ATOM     22  H   UNL     1      46.833   8.081  15.617  0.00  0.00    +0.000 HD
BRANCH  20  23
ATOM     23  C   UNL     1      48.122   9.565  17.212  0.00  0.00    +0.000 A 
ATOM     24  C   UNL     1      47.854  10.790  17.808  0.00  0.00    +0.000 A 
ATOM     25  S   UNL     1      47.572  10.676  19.488  0.00  0.00    +0.000 S 
ATOM     26  C   UNL     1      47.851   8.998  19.478  0.00  0.00    +0.000 A 
ATOM     27  N   UNL     1      47.792   8.263  20.628  0.00  0.00    +0.000 NA
ATOM     28  C   UNL     1      48.058   7.015  20.477  0.00  0.00    +0.000 A 
ATOM     29  N   UNL     1      48.371   6.416  19.280  0.00  0.00    +0.000 N 
ATOM     30  C   UNL     1      48.384   7.105  18.095  0.00  0.00    +0.000 A 
ATOM     31  O   UNL     1      48.574   6.526  17.025  0.00  0.00    +0.000 OA
ATOM     32  C   UNL     1      48.129   8.525  18.215  0.00  0.00    +0.000 A 
ATOM     33  H   UNL     1      48.547   5.425  19.225  0.00  0.00    +0.000 HD
ENDBRANCH  20  23
ENDBRANCH  18  19
ENDBRANCH   4  18
TORSDOF 7
ENDMDL
MODEL 5
REMARK VINA RESULT:    -8.030      2.289      2.709
REMARK INTER + INTRA:         -12.108
REMARK INTER:                 -10.979
REMARK INTRA:                  -1.129
REMARK UNBOUND:                -0.793
REMARK  Name = 
REMARK  7 active torsions:
REMARK  status: ('A' for Active; 'I' for Inactive)
REMARK    1  A    between atoms: C_2  and  S_3
REMARK    2  A    between atoms: C_2  and  C_11
REMARK    3  A    between atoms: S_3  and  C_4
REMARK    4  A    between atoms: C_4  and  C_5
REMARK    5  A    between atoms: C_14  and  C_15
REMARK    6  A    between atoms: C_15  and  N_16
REMARK    7  A    between atoms: C_17  and  C_19
REMARK                            x       y       z     vdW  Elec       q    Type
REMARK                         _______ _______ _______ _____ _____    ______ ____
ROOT
ATOM      1  C   UNL     1      45.439   4.680  12.233  0.00  0.00    +0.000 A 
ATOM      2  C   UNL     1      45.483   5.915  11.585  0.00  0.00    +0.000 A 
ATOM      3  C   UNL     1      46.369   6.913  12.020  0.00  0.00    +0.000 A 
ATOM      4  C   UNL     1      47.241   6.684  13.098  0.00  0.00    +0.000 A 
ATOM      5  C   UNL     1      47.194   5.432  13.728  0.00  0.00    +0.000 A 
ATOM      6  C   UNL     1      46.308   4.436  13.300  0.00  0.00    +0.000 A 
ENDROOT
BRANCH   1   8
ATOM      7  N   UNL     1      44.043   2.738  12.532  0.00  0.00    +0.000 NA
ATOM      8  C   UNL     1      44.467   3.659  11.742  0.00  0.00    +0.000 C 
ATOM      9  H   UNL     1      43.413   2.088  12.067  0.00  0.00    +0.000 HD
BRANCH   8  10
ATOM     10  S   UNL     1      44.045   3.742  10.044  0.00  0.00    +0.000 S 
BRANCH  10  11
ATOM     11  C   UNL     1      44.527   2.137   9.387  0.00  0.00    +0.000 C 
BRANCH  11  12
ATOM     12  C   UNL     1      45.617   2.267   8.350  0.00  0.00    +0.000 A 
ATOM     13  C   UNL     1      46.441   1.175   8.034  0.00  0.00    +0.000 A 
ATOM     14  C   UNL     1      47.431   1.294   7.055  0.00  0.00    +0.000 A 
ATOM     15  C   UNL     1      47.612   2.504   6.389  0.00  0.00    +0.000 A 
ATOM     16  C   UNL     1      46.816   3.602   6.709  0.00  0.00    +0.000 A 
ATOM     17  C   UNL     1      45.828   3.487   7.689  0.00  0.00    +0.000 A 
ENDBRANCH  11  12
ENDBRANCH  10  11
ENDBRANCH   8  10
ENDBRANCH   1   8
BRANCH   4  18
ATOM     18  C   UNL     1      48.240   7.714  13.582  0.00  0.00    +0.000 C 
BRANCH  18  19
ATOM     19  N   UNL     1      49.384   7.146  14.248  0.00  0.00    +0.000 N 
ATOM     20  C   UNL     1      50.085   7.830  15.207  0.00  0.00    +0.000 C 
ATOM     21  O   UNL     1      49.802   8.972  15.566  0.00  0.00    +0.000 OA
ATOM     22  H   UNL     1      49.850   6.368  13.796  0.00  0.00    +0.000 HD
BRANCH  20  23
ATOM     23  C   UNL     1      51.170   7.070  15.839  0.00  0.00    +0.000 A 
ATOM     24  C   UNL     1      52.494   7.439  15.646  0.00  0.00    +0.000 A 
ATOM     25  S   UNL     1      53.598   6.479  16.526  0.00  0.00    +0.000 S 
ATOM     26  C   UNL     1      52.346   5.510  17.148  0.00  0.00    +0.000 A 
ATOM     27  N   UNL     1      52.610   4.456  17.975  0.00  0.00    +0.000 NA
ATOM     28  C   UNL     1      51.573   3.793  18.341  0.00  0.00    +0.000 A 
ATOM     29  N   UNL     1      50.281   4.082  17.969  0.00  0.00    +0.000 N 
ATOM     30  C   UNL     1      49.967   5.164  17.188  0.00  0.00    +0.000 A 
ATOM     31  O   UNL     1      48.795   5.456  16.947  0.00  0.00    +0.000 OA
ATOM     32  C   UNL     1      51.105   5.924  16.716  0.00  0.00    +0.000 A 
ATOM     33  H   UNL     1      49.506   3.535  18.309  0.00  0.00    +0.000 HD
ENDBRANCH  20  23
ENDBRANCH  18  19
ENDBRANCH   4  18
TORSDOF 7
ENDMDL
MODEL 6
REMARK VINA RESULT:    -7.883      2.498      3.241
REMARK INTER + INTRA:         -11.902
REMARK INTER:                 -10.952
REMARK INTRA:                  -0.950
REMARK UNBOUND:                -0.793
REMARK  Name = 
REMARK  7 active torsions:
REMARK  status: ('A' for Active; 'I' for Inactive)
REMARK    1  A    between atoms: C_2  and  S_3
REMARK    2  A    between atoms: C_2  and  C_11
REMARK    3  A    between atoms: S_3  and  C_4
REMARK    4  A    between atoms: C_4  and  C_5
REMARK    5  A    between atoms: C_14  and  C_15
REMARK    6  A    between atoms: C_15  and  N_16
REMARK    7  A    between atoms: C_17  and  C_19
REMARK                            x       y       z     vdW  Elec       q    Type
REMARK                         _______ _______ _______ _____ _____    ______ ____
ROOT
ATOM      1  C   UNL     1      46.158   5.616  12.186  0.00  0.00    +0.000 A 
ATOM      2  C   UNL     1      46.513   4.852  13.299  0.00  0.00    +0.000 A 
ATOM      3  C   UNL     1      47.338   5.395  14.297  0.00  0.00    +0.000 A 
ATOM      4  C   UNL     1      47.805   6.718  14.207  0.00  0.00    +0.000 A 
ATOM      5  C   UNL     1      47.425   7.475  13.089  0.00  0.00    +0.000 A 
ATOM      6  C   UNL     1      46.608   6.935  12.089  0.00  0.00    +0.000 A 
ENDROOT
BRANCH   1   8
ATOM      7  N   UNL     1      44.649   5.720  10.309  0.00  0.00    +0.000 NA
ATOM      8  C   UNL     1      45.292   4.986  11.145  0.00  0.00    +0.000 C 
ATOM      9  H   UNL     1      44.071   5.171   9.676  0.00  0.00    +0.000 HD
BRANCH   8  10
ATOM     10  S   UNL     1      45.139   3.242  11.212  0.00  0.00    +0.000 S 
BRANCH  10  11
ATOM     11  C   UNL     1      44.359   2.803   9.651  0.00  0.00    +0.000 C 
BRANCH  11  12
ATOM     12  C   UNL     1      45.381   2.601   8.557  0.00  0.00    +0.000 A 
ATOM     13  C   UNL     1      45.715   3.649   7.685  0.00  0.00    +0.000 A 
ATOM     14  C   UNL     1      46.680   3.465   6.692  0.00  0.00    +0.000 A 
ATOM     15  C   UNL     1      47.315   2.233   6.556  0.00  0.00    +0.000 A 
ATOM     16  C   UNL     1      46.977   1.177   7.401  0.00  0.00    +0.000 A 
ATOM     17  C   UNL     1      46.010   1.358   8.392  0.00  0.00    +0.000 A 
ENDBRANCH  11  12
ENDBRANCH  10  11
ENDBRANCH   8  10
ENDBRANCH   1   8
BRANCH   4  18
ATOM     18  C   UNL     1      48.666   7.360  15.273  0.00  0.00    +0.000 C 
BRANCH  18  19
ATOM     19  N   UNL     1      49.717   6.506  15.765  0.00  0.00    +0.000 N 
ATOM     20  C   UNL     1      49.848   6.200  17.094  0.00  0.00    +0.000 C 
ATOM     21  O   UNL     1      49.092   6.630  17.964  0.00  0.00    +0.000 OA
ATOM     22  H   UNL     1      50.531   6.380  15.175  0.00  0.00    +0.000 HD
BRANCH  20  23
ATOM     23  C   UNL     1      50.923   5.252  17.407  0.00  0.00    +0.000 A 
ATOM     24  C   UNL     1      52.168   5.708  17.817  0.00  0.00    +0.000 A 
ATOM     25  S   UNL     1      53.254   4.449  18.206  0.00  0.00    +0.000 S 
ATOM     26  C   UNL     1      52.113   3.260  17.788  0.00  0.00    +0.000 A 
ATOM     27  N   UNL     1      52.415   1.930  17.865  0.00  0.00    +0.000 NA
ATOM     28  C   UNL     1      51.471   1.146  17.487  0.00  0.00    +0.000 A 
ATOM     29  N   UNL     1      50.236   1.557  17.042  0.00  0.00    +0.000 N 
ATOM     30  C   UNL     1      49.872   2.878  17.004  0.00  0.00    +0.000 A 
ATOM     31  O   UNL     1      48.730   3.214  16.692  0.00  0.00    +0.000 OA
ATOM     32  C   UNL     1      50.916   3.807  17.384  0.00  0.00    +0.000 A 
ATOM     33  H   UNL     1      49.528   0.889  16.781  0.00  0.00    +0.000 HD
ENDBRANCH  20  23
ENDBRANCH  18  19
ENDBRANCH   4  18
TORSDOF 7
ENDMDL
MODEL 7
REMARK VINA RESULT:    -7.679      4.503      5.965
REMARK INTER + INTRA:         -11.614
REMARK INTER:                 -10.503
REMARK INTRA:                  -1.112
REMARK UNBOUND:                -0.793
REMARK  Name = 
REMARK  7 active torsions:
REMARK  status: ('A' for Active; 'I' for Inactive)
REMARK    1  A    between atoms: C_2  and  S_3
REMARK    2  A    between atoms: C_2  and  C_11
REMARK    3  A    between atoms: S_3  and  C_4
REMARK    4  A    between atoms: C_4  and  C_5
REMARK    5  A    between atoms: C_14  and  C_15
REMARK    6  A    between atoms: C_15  and  N_16
REMARK    7  A    between atoms: C_17  and  C_19
REMARK                            x       y       z     vdW  Elec       q    Type
REMARK                         _______ _______ _______ _____ _____    ______ ____
ROOT
ATOM      1  C   UNL     1      45.474   5.088  12.112  0.00  0.00    +0.000 A 
ATOM      2  C   UNL     1      44.863   6.241  11.616  0.00  0.00    +0.000 A 
ATOM      3  C   UNL     1      45.324   7.510  12.002  0.00  0.00    +0.000 A 
ATOM      4  C   UNL     1      46.416   7.645  12.876  0.00  0.00    +0.000 A 
ATOM      5  C   UNL     1      47.027   6.476  13.353  0.00  0.00    +0.000 A 
ATOM      6  C   UNL     1      46.567   5.210  12.974  0.00  0.00    +0.000 A 
ENDROOT
BRANCH   1   8
ATOM      7  N   UNL     1      45.097   2.728  12.427  0.00  0.00    +0.000 NA
ATOM      8  C   UNL     1      44.935   3.764  11.683  0.00  0.00    +0.000 C 
ATOM      9  H   UNL     1      44.715   1.884  12.006  0.00  0.00    +0.000 HD
BRANCH   8  10
ATOM     10  S   UNL     1      44.187   3.704  10.100  0.00  0.00    +0.000 S 
BRANCH  10  11
ATOM     11  C   UNL     1      44.669   2.101   9.439  0.00  0.00    +0.000 C 
BRANCH  11  12
ATOM     12  C   UNL     1      45.690   2.241   8.334  0.00  0.00    +0.000 A 
ATOM     13  C   UNL     1      46.499   1.156   7.964  0.00  0.00    +0.000 A 
ATOM     14  C   UNL     1      47.424   1.283   6.924  0.00  0.00    +0.000 A 
ATOM     15  C   UNL     1      47.553   2.495   6.250  0.00  0.00    +0.000 A 
ATOM     16  C   UNL     1      46.771   3.587   6.623  0.00  0.00    +0.000 A 
ATOM     17  C   UNL     1      45.849   3.463   7.664  0.00  0.00    +0.000 A 
ENDBRANCH  11  12
ENDBRANCH  10  11
ENDBRANCH   8  10
ENDBRANCH   1   8
BRANCH   4  18
ATOM     18  C   UNL     1      46.973   8.989  13.294  0.00  0.00    +0.000 C 
BRANCH  18  19
ATOM     19  N   UNL     1      48.301   9.248  12.799  0.00  0.00    +0.000 N 
ATOM     20  C   UNL     1      48.542  10.135  11.783  0.00  0.00    +0.000 C 
ATOM     21  O   UNL     1      47.655  10.769  11.214  0.00  0.00    +0.000 OA
ATOM     22  H   UNL     1      49.015   8.556  12.994  0.00  0.00    +0.000 HD
BRANCH  20  23
ATOM     23  C   UNL     1      49.960  10.337  11.463  0.00  0.00    +0.000 A 
ATOM     24  C   UNL     1      50.486  11.617  11.369  0.00  0.00    +0.000 A 
ATOM     25  S   UNL     1      52.167  11.637  11.065  0.00  0.00    +0.000 S 
ATOM     26  C   UNL     1      52.231   9.938  10.997  0.00  0.00    +0.000 A 
ATOM     27  N   UNL     1      53.401   9.283  10.738  0.00  0.00    +0.000 NA
ATOM     28  C   UNL     1      53.295   8.004  10.684  0.00  0.00    +0.000 A 
ATOM     29  N   UNL     1      52.128   7.302  10.873  0.00  0.00    +0.000 N 
ATOM     30  C   UNL     1      50.945   7.916  11.192  0.00  0.00    +0.000 A 
ATOM     31  O   UNL     1      49.936   7.259  11.450  0.00  0.00    +0.000 OA
ATOM     32  C   UNL     1      51.001   9.362  11.228  0.00  0.00    +0.000 A 
ATOM     33  H   UNL     1      52.116   6.295  10.840  0.00  0.00    +0.000 HD
ENDBRANCH  20  23
ENDBRANCH  18  19
ENDBRANCH   4  18
TORSDOF 7
ENDMDL
MODEL 8
REMARK VINA RESULT:    -7.643      4.103      9.274
REMARK INTER + INTRA:         -11.563
REMARK INTER:                  -9.141
REMARK INTRA:                  -2.423
REMARK UNBOUND:                -0.793
REMARK  Name = 
REMARK  7 active torsions:
REMARK  status: ('A' for Active; 'I' for Inactive)
REMARK    1  A    between atoms: C_2  and  S_3
REMARK    2  A    between atoms: C_2  and  C_11
REMARK    3  A    between atoms: S_3  and  C_4
REMARK    4  A    between atoms: C_4  and  C_5
REMARK    5  A    between atoms: C_14  and  C_15
REMARK    6  A    between atoms: C_15  and  N_16
REMARK    7  A    between atoms: C_17  and  C_19
REMARK                            x       y       z     vdW  Elec       q    Type
REMARK                         _______ _______ _______ _____ _____    ______ ____
ROOT
ATOM      1  C   UNL     1      50.944   4.157  18.790  0.00  0.00    +0.000 A 
ATOM      2  C   UNL     1      50.878   3.383  17.630  0.00  0.00    +0.000 A 
ATOM      3  C   UNL     1      49.642   3.131  17.016  0.00  0.00    +0.000 A 
ATOM      4  C   UNL     1      48.453   3.665  17.541  0.00  0.00    +0.000 A 
ATOM      5  C   UNL     1      48.539   4.453  18.697  0.00  0.00    +0.000 A 
ATOM      6  C   UNL     1      49.770   4.702  19.316  0.00  0.00    +0.000 A 
ENDROOT
BRANCH   1   8
ATOM      7  N   UNL     1      53.037   3.382  19.702  0.00  0.00    +0.000 NA
ATOM      8  C   UNL     1      52.282   4.382  19.414  0.00  0.00    +0.000 C 
ATOM      9  H   UNL     1      53.903   3.667  20.153  0.00  0.00    +0.000 HD
BRANCH   8  10
ATOM     10  S   UNL     1      52.686   6.039  19.809  0.00  0.00    +0.000 S 
BRANCH  10  11
ATOM     11  C   UNL     1      52.945   6.828  18.212  0.00  0.00    +0.000 C 
BRANCH  11  12
ATOM     12  C   UNL     1      51.634   7.157  17.537  0.00  0.00    +0.000 A 
ATOM     13  C   UNL     1      51.363   6.705  16.237  0.00  0.00    +0.000 A 
ATOM     14  C   UNL     1      50.138   6.991  15.628  0.00  0.00    +0.000 A 
ATOM     15  C   UNL     1      49.178   7.736  16.308  0.00  0.00    +0.000 A 
ATOM     16  C   UNL     1      49.443   8.210  17.591  0.00  0.00    +0.000 A 
ATOM     17  C   UNL     1      50.667   7.929  18.200  0.00  0.00    +0.000 A 
ENDBRANCH  11  12
ENDBRANCH  10  11
ENDBRANCH   8  10
ENDBRANCH   1   8
BRANCH   4  18
ATOM     18  C   UNL     1      47.100   3.452  16.895  0.00  0.00    +0.000 C 
BRANCH  18  19
ATOM     19  N   UNL     1      46.770   4.438  15.897  0.00  0.00    +0.000 N 
ATOM     20  C   UNL     1      46.880   4.184  14.555  0.00  0.00    +0.000 C 
ATOM     21  O   UNL     1      47.272   3.111  14.100  0.00  0.00    +0.000 OA
ATOM     22  H   UNL     1      46.748   5.409  16.188  0.00  0.00    +0.000 HD
BRANCH  20  23
ATOM     23  C   UNL     1      46.424   5.272  13.681  0.00  0.00    +0.000 A 
ATOM     24  C   UNL     1      47.239   6.368  13.437  0.00  0.00    +0.000 A 
ATOM     25  S   UNL     1      46.559   7.483  12.336  0.00  0.00    +0.000 S 
ATOM     26  C   UNL     1      45.137   6.562  12.195  0.00  0.00    +0.000 A 
ATOM     27  N   UNL     1      44.100   6.974  11.406  0.00  0.00    +0.000 NA
ATOM     28  C   UNL     1      43.077   6.198  11.422  0.00  0.00    +0.000 A 
ATOM     29  N   UNL     1      42.983   5.033  12.145  0.00  0.00    +0.000 N 
ATOM     30  C   UNL     1      44.020   4.553  12.904  0.00  0.00    +0.000 A 
ATOM     31  O   UNL     1      43.945   3.460  13.466  0.00  0.00    +0.000 OA
ATOM     32  C   UNL     1      45.185   5.411  12.951  0.00  0.00    +0.000 A 
ATOM     33  H   UNL     1      42.159   4.455  12.096  0.00  0.00    +0.000 HD
ENDBRANCH  20  23
ENDBRANCH  18  19
ENDBRANCH   4  18
TORSDOF 7
ENDMDL
MODEL 9
REMARK VINA RESULT:    -7.567      4.183     10.034
REMARK INTER + INTRA:         -11.455
REMARK INTER:                  -9.443
REMARK INTRA:                  -2.013
REMARK UNBOUND:                -0.793
REMARK  Name = 
REMARK  7 active torsions:
REMARK  status: ('A' for Active; 'I' for Inactive)
REMARK    1  A    between atoms: C_2  and  S_3
REMARK    2  A    between atoms: C_2  and  C_11
REMARK    3  A    between atoms: S_3  and  C_4
REMARK    4  A    between atoms: C_4  and  C_5
REMARK    5  A    between atoms: C_14  and  C_15
REMARK    6  A    between atoms: C_15  and  N_16
REMARK    7  A    between atoms: C_17  and  C_19
REMARK                            x       y       z     vdW  Elec       q    Type
REMARK                         _______ _______ _______ _____ _____    ______ ____
ROOT
ATOM      1  C   UNL     1      51.295   4.488  17.830  0.00  0.00    +0.000 A 
ATOM      2  C   UNL     1      50.477   5.516  17.359  0.00  0.00    +0.000 A 
ATOM      3  C   UNL     1      49.180   5.235  16.900  0.00  0.00    +0.000 A 
ATOM      4  C   UNL     1      48.674   3.925  16.924  0.00  0.00    +0.000 A 
ATOM      5  C   UNL     1      49.504   2.907  17.416  0.00  0.00    +0.000 A 
ATOM      6  C   UNL     1      50.800   3.182  17.869  0.00  0.00    +0.000 A 
ENDROOT
BRANCH   1   8
ATOM      7  N   UNL     1      53.528   5.318  17.463  0.00  0.00    +0.000 NA
ATOM      8  C   UNL     1      52.671   4.837  18.291  0.00  0.00    +0.000 C 
ATOM      9  H   UNL     1      54.435   5.481  17.893  0.00  0.00    +0.000 HD
BRANCH   8  10
ATOM     10  S   UNL     1      53.053   4.456  19.958  0.00  0.00    +0.000 S 
BRANCH  10  11
ATOM     11  C   UNL     1      52.420   5.858  20.892  0.00  0.00    +0.000 C 
BRANCH  11  12
ATOM     12  C   UNL     1      50.911   5.913  20.856  0.00  0.00    +0.000 A 
ATOM     13  C   UNL     1      50.144   4.790  21.205  0.00  0.00    +0.000 A 
ATOM     14  C   UNL     1      48.748   4.854  21.195  0.00  0.00    +0.000 A 
ATOM     15  C   UNL     1      48.107   6.036  20.831  0.00  0.00    +0.000 A 
ATOM     16  C   UNL     1      48.856   7.151  20.460  0.00  0.00    +0.000 A 
ATOM     17  C   UNL     1      50.251   7.088  20.467  0.00  0.00    +0.000 A 
ENDBRANCH  11  12
ENDBRANCH  10  11
ENDBRANCH   8  10
ENDBRANCH   1   8
BRANCH   4  18
ATOM     18  C   UNL     1      47.270   3.577  16.475  0.00  0.00    +0.000 C 
BRANCH  18  19
ATOM     19  N   UNL     1      46.707   4.519  15.542  0.00  0.00    +0.000 N 
ATOM     20  C   UNL     1      46.840   4.374  14.186  0.00  0.00    +0.000 C 
ATOM     21  O   UNL     1      47.448   3.442  13.662  0.00  0.00    +0.000 OA
ATOM     22  H   UNL     1      46.478   5.443  15.892  0.00  0.00    +0.000 HD
BRANCH  20  23
ATOM     23  C   UNL     1      46.134   5.380  13.384  0.00  0.00    +0.000 A 
ATOM     24  C   UNL     1      46.731   6.602  13.103  0.00  0.00    +0.000 A 
ATOM     25  S   UNL     1      45.781   7.601  12.095  0.00  0.00    +0.000 S 
ATOM     26  C   UNL     1      44.525   6.455  12.049  0.00  0.00    +0.000 A 
ATOM     27  N   UNL     1      43.369   6.698  11.361  0.00  0.00    +0.000 NA
ATOM     28  C   UNL     1      42.495   5.760  11.440  0.00  0.00    +0.000 A 
ATOM     29  N   UNL     1      42.660   4.586  12.137  0.00  0.00    +0.000 N 
ATOM     30  C   UNL     1      43.824   4.278  12.791  0.00  0.00    +0.000 A 
ATOM     31  O   UNL     1      43.982   3.181  13.327  0.00  0.00    +0.000 OA
ATOM     32  C   UNL     1      44.830   5.319  12.765  0.00  0.00    +0.000 A 
ATOM     33  H   UNL     1      41.942   3.878  12.141  0.00  0.00    +0.000 HD
ENDBRANCH  20  23
ENDBRANCH  18  19
ENDBRANCH   4  18
TORSDOF 7
ENDMDL
