MODEL 1
REMARK VINA RESULT:    -7.403      0.000      0.000
REMARK INTER + INTRA:         -11.421
REMARK INTER:                 -10.432
REMARK INTRA:                  -0.989
REMARK UNBOUND:                -0.989
REMARK  Name = 
REMARK  10 active torsions:
REMARK  status: ('A' for Active; 'I' for Inactive)
REMARK    1  A    between atoms: C_1  and  O_2
REMARK    2  A    between atoms: O_2  and  C_3
REMARK    3  A    between atoms: C_5  and  O_6
REMARK    4  A    between atoms: O_6  and  C_7
REMARK    5  A    between atoms: C_7  and  C_8
REMARK    6  A    between atoms: C_13  and  C_14
REMARK    7  A    between atoms: C_22  and  O_23
REMARK    8  A    between atoms: O_23  and  C_24
REMARK    9  A    between atoms: C_25  and  O_26
REMARK   10  A    between atoms: O_26  and  C_27
REMARK                            x       y       z     vdW  Elec       q    Type
REMARK                         _______ _______ _______ _____ _____    ______ ____
ROOT
ATOM      1  C   UNL     1      44.101   6.262  10.962  0.00  0.00    +0.000 C 
ENDROOT
BRANCH   1   2
ATOM      2  C   UNL     1      44.251   4.797  10.660  0.00  0.00    +0.000 A 
ATOM      3  C   UNL     1      43.496   3.849  11.354  0.00  0.00    +0.000 A 
ATOM      4  C   UNL     1      43.600   2.508  11.015  0.00  0.00    +0.000 A 
ATOM      5  F   UNL     1      42.870   1.601  11.678  0.00  0.00    +0.000 F 
ATOM      6  C   UNL     1      44.416   2.092   9.969  0.00  0.00    +0.000 A 
ATOM      7  C   UNL     1      45.155   3.022   9.218  0.00  0.00    +0.000 A 
ATOM      8  C   UNL     1      45.081   4.374   9.608  0.00  0.00    +0.000 A 
BRANCH   7   9
ATOM      9  C   UNL     1      45.920   2.624   8.022  0.00  0.00    +0.000 A 
ATOM     10  C   UNL     1      46.124   3.502   6.955  0.00  0.00    +0.000 A 
ATOM     11  C   UNL     1      46.902   3.102   5.875  0.00  0.00    +0.000 A 
ATOM     12  C   UNL     1      47.460   1.834   5.878  0.00  0.00    +0.000 A 
ATOM     13  C   UNL     1      47.218   1.018   6.971  0.00  0.00    +0.000 A 
ATOM     14  N   UNL     1      46.476   1.384   8.038  0.00  0.00    +0.000 NA
ENDBRANCH   7   9
ENDBRANCH   1   2
BRANCH   1  15
ATOM     15  O   UNL     1      44.189   6.482  12.370  0.00  0.00    +0.000 OA
BRANCH  15  18
ATOM     16  C   UNL     1      47.245   5.297  14.132  0.00  0.00    +0.000 A 
ATOM     17  C   UNL     1      45.941   5.301  13.623  0.00  0.00    +0.000 A 
ATOM     18  C   UNL     1      45.447   6.392  12.908  0.00  0.00    +0.000 A 
ATOM     19  C   UNL     1      46.258   7.507  12.714  0.00  0.00    +0.000 A 
ATOM     20  C   UNL     1      47.554   7.539  13.238  0.00  0.00    +0.000 A 
ATOM     21  C   UNL     1      48.070   6.416  13.917  0.00  0.00    +0.000 A 
BRANCH  16  23
ATOM     22  C   UNL     1      47.328   4.238  16.276  0.00  0.00    +0.000 C 
ATOM     23  O   UNL     1      47.721   4.270  14.907  0.00  0.00    +0.000 OA
ENDBRANCH  16  23
BRANCH  20  24
ATOM     24  O   UNL     1      48.387   8.623  13.078  0.00  0.00    +0.000 OA
ATOM     25  C   UNL     1      48.884   8.812  11.756  0.00  0.00    +0.000 C 
ENDBRANCH  20  24
BRANCH  21  26
ATOM     26  O   UNL     1      49.359   6.542  14.384  0.00  0.00    +0.000 OA
ATOM     27  C   UNL     1      49.501   7.116  15.678  0.00  0.00    +0.000 C 
ENDBRANCH  21  26
ENDBRANCH  15  18
ENDBRANCH   1  15
TORSDOF 7
ENDMDL
MODEL 2
REMARK VINA RESULT:    -7.391      0.519      2.386
REMARK INTER + INTRA:         -11.404
REMARK INTER:                 -10.332
REMARK INTRA:                  -1.072
REMARK UNBOUND:                -0.989
REMARK  Name = 
REMARK  10 active torsions:
REMARK  status: ('A' for Active; 'I' for Inactive)
REMARK    1  A    between atoms: C_1  and  O_2
REMARK    2  A    between atoms: O_2  and  C_3
REMARK    3  A    between atoms: C_5  and  O_6
REMARK    4  A    between atoms: O_6  and  C_7
REMARK    5  A    between atoms: C_7  and  C_8
REMARK    6  A    between atoms: C_13  and  C_14
REMARK    7  A    between atoms: C_22  and  O_23
REMARK    8  A    between atoms: O_23  and  C_24
REMARK    9  A    between atoms: C_25  and  O_26
REMARK   10  A    between atoms: O_26  and  C_27
REMARK                            x       y       z     vdW  Elec       q    Type
REMARK                         _______ _______ _______ _____ _____    ______ ____
ROOT
ATOM      1  C   UNL     1      44.236   6.472  10.891  0.00  0.00    +0.000 C 
ENDROOT
BRANCH   1   2
ATOM      2  C   UNL     1      44.338   4.996  10.626  0.00  0.00    +0.000 A 
ATOM      3  C   UNL     1      43.544   4.092  11.336  0.00  0.00    +0.000 A 
ATOM      4  C   UNL     1      43.604   2.741  11.030  0.00  0.00    +0.000 A 
ATOM      5  F   UNL     1      42.838   1.875  11.708  0.00  0.00    +0.000 F 
ATOM      6  C   UNL     1      44.414   2.271  10.002  0.00  0.00    +0.000 A 
ATOM      7  C   UNL     1      45.192   3.156   9.236  0.00  0.00    +0.000 A 
ATOM      8  C   UNL     1      45.161   4.519   9.593  0.00  0.00    +0.000 A 
BRANCH   7   9
ATOM      9  C   UNL     1      45.952   2.702   8.057  0.00  0.00    +0.000 A 
ATOM     10  C   UNL     1      46.248   3.565   6.998  0.00  0.00    +0.000 A 
ATOM     11  C   UNL     1      47.019   3.108   5.936  0.00  0.00    +0.000 A 
ATOM     12  C   UNL     1      47.478   1.800   5.947  0.00  0.00    +0.000 A 
ATOM     13  C   UNL     1      47.148   1.004   7.031  0.00  0.00    +0.000 A 
ATOM     14  N   UNL     1      46.411   1.424   8.082  0.00  0.00    +0.000 NA
ENDBRANCH   7   9
ENDBRANCH   1   2
BRANCH   1  15
ATOM     15  O   UNL     1      44.355   6.726  12.291  0.00  0.00    +0.000 OA
BRANCH  15  18
ATOM     16  C   UNL     1      47.800   7.830  13.164  0.00  0.00    +0.000 A 
ATOM     17  C   UNL     1      46.508   7.860  12.626  0.00  0.00    +0.000 A 
ATOM     18  C   UNL     1      45.636   6.782  12.778  0.00  0.00    +0.000 A 
ATOM     19  C   UNL     1      46.063   5.646  13.460  0.00  0.00    +0.000 A 
ATOM     20  C   UNL     1      47.359   5.580  13.982  0.00  0.00    +0.000 A 
ATOM     21  C   UNL     1      48.224   6.689  13.872  0.00  0.00    +0.000 A 
BRANCH  16  23
ATOM     22  C   UNL     1      48.498  10.062  13.665  0.00  0.00    +0.000 C 
ATOM     23  O   UNL     1      48.700   8.844  12.956  0.00  0.00    +0.000 OA
ENDBRANCH  16  23
BRANCH  20  24
ATOM     24  O   UNL     1      47.827   4.475  14.655  0.00  0.00    +0.000 OA
ATOM     25  C   UNL     1      47.234   4.251  15.932  0.00  0.00    +0.000 C 
ENDBRANCH  20  24
BRANCH  21  26
ATOM     26  O   UNL     1      49.473   6.529  14.428  0.00  0.00    +0.000 OA
ATOM     27  C   UNL     1      49.665   7.112  15.712  0.00  0.00    +0.000 C 
ENDBRANCH  21  26
ENDBRANCH  15  18
ENDBRANCH   1  15
TORSDOF 7
ENDMDL
MODEL 3
REMARK VINA RESULT:    -6.598      1.854      2.630
REMARK INTER + INTRA:         -10.287
REMARK INTER:                  -9.258
REMARK INTRA:                  -1.029
REMARK UNBOUND:                -0.989
REMARK  Name = 
REMARK  10 active torsions:
REMARK  status: ('A' for Active; 'I' for Inactive)
REMARK    1  A    between atoms: C_1  and  O_2
REMARK    2  A    between atoms: O_2  and  C_3
REMARK    3  A    between atoms: C_5  and  O_6
REMARK    4  A    between atoms: O_6  and  C_7
REMARK    5  A    between atoms: C_7  and  C_8
REMARK    6  A    between atoms: C_13  and  C_14
REMARK    7  A    between atoms: C_22  and  O_23
REMARK    8  A    between atoms: O_23  and  C_24
REMARK    9  A    between atoms: C_25  and  O_26
REMARK   10  A    between atoms: O_26  and  C_27
REMARK                            x       y       z     vdW  Elec       q    Type
REMARK                         _______ _______ _______ _____ _____    ______ ____
ROOT
ATOM      1  C   UNL     1      45.888   7.952  11.973  0.00  0.00    +0.000 C 
ENDROOT
BRANCH   1   2
ATOM      2  C   UNL     1      45.113   6.747  11.515  0.00  0.00    +0.000 A 
ATOM      3  C   UNL     1      43.770   6.593  11.863  0.00  0.00    +0.000 A 
ATOM      4  C   UNL     1      43.055   5.511  11.374  0.00  0.00    +0.000 A 
ATOM      5  F   UNL     1      41.764   5.367  11.705  0.00  0.00    +0.000 F 
ATOM      6  C   UNL     1      43.642   4.591  10.512  0.00  0.00    +0.000 A 
ATOM      7  C   UNL     1      44.978   4.739  10.102  0.00  0.00    +0.000 A 
ATOM      8  C   UNL     1      45.707   5.814  10.648  0.00  0.00    +0.000 A 
BRANCH   7   9
ATOM      9  C   UNL     1      45.582   3.858   9.085  0.00  0.00    +0.000 A 
ATOM     10  C   UNL     1      45.514   2.466   9.187  0.00  0.00    +0.000 A 
ATOM     11  C   UNL     1      46.044   1.677   8.173  0.00  0.00    +0.000 A 
ATOM     12  C   UNL     1      46.636   2.290   7.080  0.00  0.00    +0.000 A 
ATOM     13  C   UNL     1      46.664   3.674   7.045  0.00  0.00    +0.000 A 
ATOM     14  N   UNL     1      46.147   4.465   8.010  0.00  0.00    +0.000 NA
ENDBRANCH   7   9
ENDBRANCH   1   2
BRANCH   1  15
ATOM     15  O   UNL     1      47.275   7.631  12.075  0.00  0.00    +0.000 OA
BRANCH  15  18
ATOM     16  C   UNL     1      48.430   6.126  15.276  0.00  0.00    +0.000 A 
ATOM     17  C   UNL     1      47.932   6.214  13.971  0.00  0.00    +0.000 A 
ATOM     18  C   UNL     1      47.751   7.449  13.348  0.00  0.00    +0.000 A 
ATOM     19  C   UNL     1      48.053   8.617  14.043  0.00  0.00    +0.000 A 
ATOM     20  C   UNL     1      48.525   8.557  15.357  0.00  0.00    +0.000 A 
ATOM     21  C   UNL     1      48.756   7.307  15.970  0.00  0.00    +0.000 A 
BRANCH  16  23
ATOM     22  C   UNL     1      47.332   4.285  16.337  0.00  0.00    +0.000 C 
ATOM     23  O   UNL     1      48.538   4.928  15.936  0.00  0.00    +0.000 OA
ENDBRANCH  16  23
BRANCH  20  24
ATOM     24  O   UNL     1      48.828   9.685  16.085  0.00  0.00    +0.000 OA
ATOM     25  C   UNL     1      49.335  10.777  15.321  0.00  0.00    +0.000 C 
ENDBRANCH  20  24
BRANCH  21  26
ATOM     26  O   UNL     1      49.232   7.353  17.260  0.00  0.00    +0.000 OA
ATOM     27  C   UNL     1      48.249   7.347  18.290  0.00  0.00    +0.000 C 
ENDBRANCH  21  26
ENDBRANCH  15  18
ENDBRANCH   1  15
TORSDOF 7
ENDMDL
MODEL 4
REMARK VINA RESULT:    -6.560      1.840      3.437
REMARK INTER + INTRA:         -10.233
REMARK INTER:                  -9.225
REMARK INTRA:                  -1.007
REMARK UNBOUND:                -0.989
REMARK  Name = 
REMARK  10 active torsions:
REMARK  status: ('A' for Active; 'I' for Inactive)
REMARK    1  A    between atoms: C_1  and  O_2
REMARK    2  A    between atoms: O_2  and  C_3
REMARK    3  A    between atoms: C_5  and  O_6
REMARK    4  A    between atoms: O_6  and  C_7
REMARK    5  A    between atoms: C_7  and  C_8
REMARK    6  A    between atoms: C_13  and  C_14
REMARK    7  A    between atoms: C_22  and  O_23
REMARK    8  A    between atoms: O_23  and  C_24
REMARK    9  A    between atoms: C_25  and  O_26
REMARK   10  A    between atoms: O_26  and  C_27
REMARK                            x       y       z     vdW  Elec       q    Type
REMARK                         _______ _______ _______ _____ _____    ______ ____
ROOT
ATOM      1  C   UNL     1      45.920   7.913  12.026  0.00  0.00    +0.000 C 
ENDROOT
BRANCH   1   2
ATOM      2  C   UNL     1      45.116   6.735  11.548  0.00  0.00    +0.000 A 
ATOM      3  C   UNL     1      43.763   6.622  11.876  0.00  0.00    +0.000 A 
ATOM      4  C   UNL     1      43.022   5.565  11.369  0.00  0.00    +0.000 A 
ATOM      5  F   UNL     1      41.723   5.461  11.680  0.00  0.00    +0.000 F 
ATOM      6  C   UNL     1      43.593   4.633  10.510  0.00  0.00    +0.000 A 
ATOM      7  C   UNL     1      44.939   4.741  10.122  0.00  0.00    +0.000 A 
ATOM      8  C   UNL     1      45.693   5.789  10.685  0.00  0.00    +0.000 A 
BRANCH   7   9
ATOM      9  C   UNL     1      45.531   3.847   9.108  0.00  0.00    +0.000 A 
ATOM     10  C   UNL     1      45.423   2.458   9.203  0.00  0.00    +0.000 A 
ATOM     11  C   UNL     1      45.944   1.658   8.193  0.00  0.00    +0.000 A 
ATOM     12  C   UNL     1      46.565   2.258   7.109  0.00  0.00    +0.000 A 
ATOM     13  C   UNL     1      46.632   3.641   7.081  0.00  0.00    +0.000 A 
ATOM     14  N   UNL     1      46.125   4.443   8.042  0.00  0.00    +0.000 NA
ENDBRANCH   7   9
ENDBRANCH   1   2
BRANCH   1  15
ATOM     15  O   UNL     1      47.302   7.562  12.101  0.00  0.00    +0.000 OA
BRANCH  15  18
ATOM     16  C   UNL     1      48.944   8.544  15.292  0.00  0.00    +0.000 A 
ATOM     17  C   UNL     1      48.417   8.649  14.000  0.00  0.00    +0.000 A 
ATOM     18  C   UNL     1      47.845   7.549  13.359  0.00  0.00    +0.000 A 
ATOM     19  C   UNL     1      47.816   6.318  14.009  0.00  0.00    +0.000 A 
ATOM     20  C   UNL     1      48.363   6.180  15.288  0.00  0.00    +0.000 A 
ATOM     21  C   UNL     1      48.895   7.303  15.956  0.00  0.00    +0.000 A 
BRANCH  16  23
ATOM     22  C   UNL     1      48.781  10.528  16.617  0.00  0.00    +0.000 C 
ATOM     23  O   UNL     1      49.583   9.590  15.906  0.00  0.00    +0.000 OA
ENDBRANCH  16  23
BRANCH  20  24
ATOM     24  O   UNL     1      48.364   4.981  15.964  0.00  0.00    +0.000 OA
ATOM     25  C   UNL     1      47.257   4.129  15.683  0.00  0.00    +0.000 C 
ENDBRANCH  20  24
BRANCH  21  26
ATOM     26  O   UNL     1      49.397   7.066  17.215  0.00  0.00    +0.000 OA
ATOM     27  C   UNL     1      48.489   7.249  18.295  0.00  0.00    +0.000 C 
ENDBRANCH  21  26
ENDBRANCH  15  18
ENDBRANCH   1  15
TORSDOF 7
ENDMDL
MODEL 5
REMARK VINA RESULT:    -6.331      3.135      4.940
REMARK INTER + INTRA:          -9.910
REMARK INTER:                  -8.864
REMARK INTRA:                  -1.046
REMARK UNBOUND:                -0.989
REMARK  Name = 
REMARK  10 active torsions:
REMARK  status: ('A' for Active; 'I' for Inactive)
REMARK    1  A    between atoms: C_1  and  O_2
REMARK    2  A    between atoms: O_2  and  C_3
REMARK    3  A    between atoms: C_5  and  O_6
REMARK    4  A    between atoms: O_6  and  C_7
REMARK    5  A    between atoms: C_7  and  C_8
REMARK    6  A    between atoms: C_13  and  C_14
REMARK    7  A    between atoms: C_22  and  O_23
REMARK    8  A    between atoms: O_23  and  C_24
REMARK    9  A    between atoms: C_25  and  O_26
REMARK   10  A    between atoms: O_26  and  C_27
REMARK                            x       y       z     vdW  Elec       q    Type
REMARK                         _______ _______ _______ _____ _____    ______ ____
ROOT
ATOM      1  C   UNL     1      46.140   7.370  12.588  0.00  0.00    +0.000 C 
ENDROOT
BRANCH   1   2
ATOM      2  C   UNL     1      45.239   6.373  11.915  0.00  0.00    +0.000 A 
ATOM      3  C   UNL     1      43.864   6.383  12.158  0.00  0.00    +0.000 A 
ATOM      4  C   UNL     1      43.041   5.500  11.476  0.00  0.00    +0.000 A 
ATOM      5  F   UNL     1      41.721   5.515  11.707  0.00  0.00    +0.000 F 
ATOM      6  C   UNL     1      43.555   4.625  10.525  0.00  0.00    +0.000 A 
ATOM      7  C   UNL     1      44.927   4.618  10.221  0.00  0.00    +0.000 A 
ATOM      8  C   UNL     1      45.758   5.484  10.958  0.00  0.00    +0.000 A 
BRANCH   7   9
ATOM      9  C   UNL     1      45.476   3.800   9.123  0.00  0.00    +0.000 A 
ATOM     10  C   UNL     1      46.079   4.381   8.006  0.00  0.00    +0.000 A 
ATOM     11  C   UNL     1      46.636   3.568   7.026  0.00  0.00    +0.000 A 
ATOM     12  C   UNL     1      46.577   2.192   7.176  0.00  0.00    +0.000 A 
ATOM     13  C   UNL     1      45.967   1.686   8.312  0.00  0.00    +0.000 A 
ATOM     14  N   UNL     1      45.428   2.452   9.285  0.00  0.00    +0.000 NA
ENDBRANCH   7   9
ENDBRANCH   1   2
BRANCH   1  15
ATOM     15  O   UNL     1      45.389   8.518  12.983  0.00  0.00    +0.000 OA
BRANCH  15  18
ATOM     16  C   UNL     1      44.541  11.233  10.584  0.00  0.00    +0.000 A 
ATOM     17  C   UNL     1      44.379  10.127  11.426  0.00  0.00    +0.000 A 
ATOM     18  C   UNL     1      45.456   9.593  12.134  0.00  0.00    +0.000 A 
ATOM     19  C   UNL     1      46.720  10.158  11.986  0.00  0.00    +0.000 A 
ATOM     20  C   UNL     1      46.913  11.245  11.129  0.00  0.00    +0.000 A 
ATOM     21  C   UNL     1      45.815  11.816  10.452  0.00  0.00    +0.000 A 
BRANCH  16  23
ATOM     22  C   UNL     1      43.011  10.887   8.778  0.00  0.00    +0.000 C 
ATOM     23  O   UNL     1      43.514  11.722   9.816  0.00  0.00    +0.000 OA
ENDBRANCH  16  23
BRANCH  20  24
ATOM     24  O   UNL     1      48.145  11.829  10.945  0.00  0.00    +0.000 OA
ATOM     25  C   UNL     1      49.260  10.968  11.164  0.00  0.00    +0.000 C 
ENDBRANCH  20  24
BRANCH  21  26
ATOM     26  O   UNL     1      46.107  12.890   9.641  0.00  0.00    +0.000 OA
ATOM     27  C   UNL     1      46.363  12.589   8.274  0.00  0.00    +0.000 C 
ENDBRANCH  21  26
ENDBRANCH  15  18
ENDBRANCH   1  15
TORSDOF 7
ENDMDL
MODEL 6
REMARK VINA RESULT:    -6.233      2.888      5.378
REMARK INTER + INTRA:          -9.772
REMARK INTER:                  -8.642
REMARK INTRA:                  -1.131
REMARK UNBOUND:                -0.989
REMARK  Name = 
REMARK  10 active torsions:
REMARK  status: ('A' for Active; 'I' for Inactive)
REMARK    1  A    between atoms: C_1  and  O_2
REMARK    2  A    between atoms: O_2  and  C_3
REMARK    3  A    between atoms: C_5  and  O_6
REMARK    4  A    between atoms: O_6  and  C_7
REMARK    5  A    between atoms: C_7  and  C_8
REMARK    6  A    between atoms: C_13  and  C_14
REMARK    7  A    between atoms: C_22  and  O_23
REMARK    8  A    between atoms: O_23  and  C_24
REMARK    9  A    between atoms: C_25  and  O_26
REMARK   10  A    between atoms: O_26  and  C_27
REMARK                            x       y       z     vdW  Elec       q    Type
REMARK                         _______ _______ _______ _____ _____    ______ ____
ROOT
ATOM      1  C   UNL     1      48.843   7.698  13.664  0.00  0.00    +0.000 C 
ENDROOT
BRANCH   1   2
ATOM      2  C   UNL     1      47.459   7.663  13.077  0.00  0.00    +0.000 A 
ATOM      3  C   UNL     1      46.632   8.787  13.145  0.00  0.00    +0.000 A 
ATOM      4  C   UNL     1      45.386   8.757  12.539  0.00  0.00    +0.000 A 
ATOM      5  F   UNL     1      44.596   9.838  12.600  0.00  0.00    +0.000 F 
ATOM      6  C   UNL     1      44.956   7.640  11.831  0.00  0.00    +0.000 A 
ATOM      7  C   UNL     1      45.779   6.508  11.703  0.00  0.00    +0.000 A 
ATOM      8  C   UNL     1      47.021   6.533  12.368  0.00  0.00    +0.000 A 
BRANCH   7   9
ATOM      9  C   UNL     1      45.404   5.367  10.847  0.00  0.00    +0.000 A 
ATOM     10  C   UNL     1      45.684   5.353   9.479  0.00  0.00    +0.000 A 
ATOM     11  C   UNL     1      45.367   4.230   8.724  0.00  0.00    +0.000 A 
ATOM     12  C   UNL     1      44.772   3.144   9.347  0.00  0.00    +0.000 A 
ATOM     13  C   UNL     1      44.528   3.227  10.708  0.00  0.00    +0.000 A 
ATOM     14  N   UNL     1      44.836   4.300  11.467  0.00  0.00    +0.000 NA
ENDBRANCH   7   9
ENDBRANCH   1   2
BRANCH   1  15
ATOM     15  O   UNL     1      49.137   6.452  14.296  0.00  0.00    +0.000 OA
BRANCH  15  18
ATOM     16  C   UNL     1      48.837   7.106  17.947  0.00  0.00    +0.000 A 
ATOM     17  C   UNL     1      49.222   7.269  16.611  0.00  0.00    +0.000 A 
ATOM     18  C   UNL     1      48.814   6.369  15.626  0.00  0.00    +0.000 A 
ATOM     19  C   UNL     1      48.025   5.277  15.980  0.00  0.00    +0.000 A 
ATOM     20  C   UNL     1      47.652   5.076  17.313  0.00  0.00    +0.000 A 
ATOM     21  C   UNL     1      48.023   6.013  18.300  0.00  0.00    +0.000 A 
BRANCH  16  23
ATOM     22  C   UNL     1      48.813   9.271  18.962  0.00  0.00    +0.000 C 
ATOM     23  O   UNL     1      49.294   7.931  18.943  0.00  0.00    +0.000 OA
ENDBRANCH  16  23
BRANCH  20  24
ATOM     24  O   UNL     1      46.882   4.008  17.710  0.00  0.00    +0.000 OA
ATOM     25  C   UNL     1      47.478   2.728  17.513  0.00  0.00    +0.000 C 
ENDBRANCH  20  24
BRANCH  21  26
ATOM     26  O   UNL     1      47.597   5.733  19.579  0.00  0.00    +0.000 OA
ATOM     27  C   UNL     1      48.521   5.037  20.407  0.00  0.00    +0.000 C 
ENDBRANCH  21  26
ENDBRANCH  15  18
ENDBRANCH   1  15
TORSDOF 7
ENDMDL
MODEL 7
REMARK VINA RESULT:    -6.144      2.861      4.933
REMARK INTER + INTRA:          -9.647
REMARK INTER:                  -8.450
REMARK INTRA:                  -1.198
REMARK UNBOUND:                -0.989
REMARK  Name = 
REMARK  10 active torsions:
REMARK  status: ('A' for Active; 'I' for Inactive)
REMARK    1  A    between atoms: C_1  and  O_2
REMARK    2  A    between atoms: O_2  and  C_3
REMARK    3  A    between atoms: C_5  and  O_6
REMARK    4  A    between atoms: O_6  and  C_7
REMARK    5  A    between atoms: C_7  and  C_8
REMARK    6  A    between atoms: C_13  and  C_14
REMARK    7  A    between atoms: C_22  and  O_23
REMARK    8  A    between atoms: O_23  and  C_24
REMARK    9  A    between atoms: C_25  and  O_26
REMARK   10  A    between atoms: O_26  and  C_27
REMARK                            x       y       z     vdW  Elec       q    Type
REMARK                         _______ _______ _______ _____ _____    ______ ____
ROOT
ATOM      1  C   UNL     1      48.871   7.735  13.594  0.00  0.00    +0.000 C 
ENDROOT
BRANCH   1   2
ATOM      2  C   UNL     1      47.482   7.692  13.018  0.00  0.00    +0.000 A 
ATOM      3  C   UNL     1      46.650   8.811  13.092  0.00  0.00    +0.000 A 
ATOM      4  C   UNL     1      45.399   8.775  12.496  0.00  0.00    +0.000 A 
ATOM      5  F   UNL     1      44.604   9.851  12.563  0.00  0.00    +0.000 F 
ATOM      6  C   UNL     1      44.969   7.655  11.792  0.00  0.00    +0.000 A 
ATOM      7  C   UNL     1      45.798   6.528  11.657  0.00  0.00    +0.000 A 
ATOM      8  C   UNL     1      47.044   6.559  12.312  0.00  0.00    +0.000 A 
BRANCH   7   9
ATOM      9  C   UNL     1      45.422   5.385  10.805  0.00  0.00    +0.000 A 
ATOM     10  C   UNL     1      45.735   5.351   9.444  0.00  0.00    +0.000 A 
ATOM     11  C   UNL     1      45.415   4.226   8.693  0.00  0.00    +0.000 A 
ATOM     12  C   UNL     1      44.785   3.157   9.313  0.00  0.00    +0.000 A 
ATOM     13  C   UNL     1      44.509   3.260  10.666  0.00  0.00    +0.000 A 
ATOM     14  N   UNL     1      44.819   4.336  11.422  0.00  0.00    +0.000 NA
ENDBRANCH   7   9
ENDBRANCH   1   2
BRANCH   1  15
ATOM     15  O   UNL     1      49.204   6.467  14.158  0.00  0.00    +0.000 OA
BRANCH  15  18
ATOM     16  C   UNL     1      47.628   5.030  17.208  0.00  0.00    +0.000 A 
ATOM     17  C   UNL     1      48.018   5.164  15.870  0.00  0.00    +0.000 A 
ATOM     18  C   UNL     1      48.774   6.256  15.443  0.00  0.00    +0.000 A 
ATOM     19  C   UNL     1      49.131   7.242  16.359  0.00  0.00    +0.000 A 
ATOM     20  C   UNL     1      48.728   7.146  17.695  0.00  0.00    +0.000 A 
ATOM     21  C   UNL     1      48.007   6.017  18.137  0.00  0.00    +0.000 A 
BRANCH  16  23
ATOM     22  C   UNL     1      47.312   2.679  17.510  0.00  0.00    +0.000 C 
ATOM     23  O   UNL     1      46.817   4.008  17.631  0.00  0.00    +0.000 OA
ENDBRANCH  16  23
BRANCH  20  24
ATOM     24  O   UNL     1      49.050   8.100  18.633  0.00  0.00    +0.000 OA
ATOM     25  C   UNL     1      50.280   8.782  18.402  0.00  0.00    +0.000 C 
ENDBRANCH  20  24
BRANCH  21  26
ATOM     26  O   UNL     1      47.669   6.010  19.471  0.00  0.00    +0.000 OA
ATOM     27  C   UNL     1      48.479   5.203  20.318  0.00  0.00    +0.000 C 
ENDBRANCH  21  26
ENDBRANCH  15  18
ENDBRANCH   1  15
TORSDOF 7
ENDMDL
MODEL 8
REMARK VINA RESULT:    -6.116      4.554      8.423
REMARK INTER + INTRA:          -9.608
REMARK INTER:                  -8.723
REMARK INTRA:                  -0.885
REMARK UNBOUND:                -0.989
REMARK  Name = 
REMARK  10 active torsions:
REMARK  status: ('A' for Active; 'I' for Inactive)
REMARK    1  A    between atoms: C_1  and  O_2
REMARK    2  A    between atoms: O_2  and  C_3
REMARK    3  A    between atoms: C_5  and  O_6
REMARK    4  A    between atoms: O_6  and  C_7
REMARK    5  A    between atoms: C_7  and  C_8
REMARK    6  A    between atoms: C_13  and  C_14
REMARK    7  A    between atoms: C_22  and  O_23
REMARK    8  A    between atoms: O_23  and  C_24
REMARK    9  A    between atoms: C_25  and  O_26
REMARK   10  A    between atoms: O_26  and  C_27
REMARK                            x       y       z     vdW  Elec       q    Type
REMARK                         _______ _______ _______ _____ _____    ______ ____
ROOT
ATOM      1  C   UNL     1      47.149   3.491  16.072  0.00  0.00    +0.000 C 
ENDROOT
BRANCH   1   2
ATOM      2  C   UNL     1      48.314   3.937  16.911  0.00  0.00    +0.000 A 
ATOM      3  C   UNL     1      48.173   4.990  17.818  0.00  0.00    +0.000 A 
ATOM      4  C   UNL     1      49.240   5.342  18.630  0.00  0.00    +0.000 A 
ATOM      5  F   UNL     1      49.101   6.349  19.503  0.00  0.00    +0.000 F 
ATOM      6  C   UNL     1      50.441   4.641  18.586  0.00  0.00    +0.000 A 
ATOM      7  C   UNL     1      50.604   3.547  17.719  0.00  0.00    +0.000 A 
ATOM      8  C   UNL     1      49.530   3.234  16.862  0.00  0.00    +0.000 A 
BRANCH   7   9
ATOM      9  C   UNL     1      51.814   2.705  17.748  0.00  0.00    +0.000 A 
ATOM     10  C   UNL     1      51.761   1.335  17.481  0.00  0.00    +0.000 A 
ATOM     11  C   UNL     1      52.937   0.594  17.462  0.00  0.00    +0.000 A 
ATOM     12  C   UNL     1      54.142   1.231  17.712  0.00  0.00    +0.000 A 
ATOM     13  C   UNL     1      54.118   2.592  17.966  0.00  0.00    +0.000 A 
ATOM     14  N   UNL     1      52.993   3.339  17.980  0.00  0.00    +0.000 NA
ENDBRANCH   7   9
ENDBRANCH   1   2
BRANCH   1  15
ATOM     15  O   UNL     1      47.543   3.387  14.704  0.00  0.00    +0.000 OA
BRANCH  15  18
ATOM     16  C   UNL     1      45.015   3.679  11.990  0.00  0.00    +0.000 A 
ATOM     17  C   UNL     1      45.915   3.095  12.889  0.00  0.00    +0.000 A 
ATOM     18  C   UNL     1      46.647   3.872  13.788  0.00  0.00    +0.000 A 
ATOM     19  C   UNL     1      46.494   5.256  13.778  0.00  0.00    +0.000 A 
ATOM     20  C   UNL     1      45.624   5.865  12.869  0.00  0.00    +0.000 A 
ATOM     21  C   UNL     1      44.846   5.076  11.996  0.00  0.00    +0.000 A 
BRANCH  16  23
ATOM     22  C   UNL     1      44.984   2.757   9.783  0.00  0.00    +0.000 C 
ATOM     23  O   UNL     1      44.348   2.942  11.044  0.00  0.00    +0.000 OA
ENDBRANCH  16  23
BRANCH  20  24
ATOM     24  O   UNL     1      45.448   7.229  12.818  0.00  0.00    +0.000 OA
ATOM     25  C   UNL     1      46.648   7.988  12.692  0.00  0.00    +0.000 C 
ENDBRANCH  20  24
BRANCH  21  26
ATOM     26  O   UNL     1      44.011   5.770  11.149  0.00  0.00    +0.000 OA
ATOM     27  C   UNL     1      42.626   5.734  11.471  0.00  0.00    +0.000 C 
ENDBRANCH  21  26
ENDBRANCH  15  18
ENDBRANCH   1  15
TORSDOF 7
ENDMDL
MODEL 9
REMARK VINA RESULT:    -6.116      4.028      8.708
REMARK INTER + INTRA:          -9.607
REMARK INTER:                  -8.771
REMARK INTRA:                  -0.836
REMARK UNBOUND:                -0.989
REMARK  Name = 
REMARK  10 active torsions:
REMARK  status: ('A' for Active; 'I' for Inactive)
REMARK    1  A    between atoms: C_1  and  O_2
REMARK    2  A    between atoms: O_2  and  C_3
REMARK    3  A    between atoms: C_5  and  O_6
REMARK    4  A    between atoms: O_6  and  C_7
REMARK    5  A    between atoms: C_7  and  C_8
REMARK    6  A    between atoms: C_13  and  C_14
REMARK    7  A    between atoms: C_22  and  O_23
REMARK    8  A    between atoms: O_23  and  C_24
REMARK    9  A    between atoms: C_25  and  O_26
REMARK   10  A    between atoms: O_26  and  C_27
REMARK                            x       y       z     vdW  Elec       q    Type
REMARK                         _______ _______ _______ _____ _____    ______ ____
ROOT
ATOM      1  C   UNL     1      47.302   3.561  15.863  0.00  0.00    +0.000 C 
ENDROOT
BRANCH   1   2
ATOM      2  C   UNL     1      48.610   3.458  16.599  0.00  0.00    +0.000 A 
ATOM      3  C   UNL     1      49.288   2.240  16.672  0.00  0.00    +0.000 A 
ATOM      4  C   UNL     1      50.525   2.181  17.297  0.00  0.00    +0.000 A 
ATOM      5  F   UNL     1      51.177   1.013  17.362  0.00  0.00    +0.000 F 
ATOM      6  C   UNL     1      51.121   3.323  17.822  0.00  0.00    +0.000 A 
ATOM      7  C   UNL     1      50.489   4.574  17.725  0.00  0.00    +0.000 A 
ATOM      8  C   UNL     1      49.210   4.610  17.135  0.00  0.00    +0.000 A 
BRANCH   7   9
ATOM      9  C   UNL     1      51.158   5.818  18.150  0.00  0.00    +0.000 A 
ATOM     10  C   UNL     1      52.442   6.148  17.710  0.00  0.00    +0.000 A 
ATOM     11  C   UNL     1      53.007   7.359  18.089  0.00  0.00    +0.000 A 
ATOM     12  C   UNL     1      52.284   8.217  18.903  0.00  0.00    +0.000 A 
ATOM     13  C   UNL     1      51.016   7.825  19.298  0.00  0.00    +0.000 A 
ATOM     14  N   UNL     1      50.438   6.660  18.936  0.00  0.00    +0.000 NA
ENDBRANCH   7   9
ENDBRANCH   1   2
BRANCH   1  15
ATOM     15  O   UNL     1      47.507   3.327  14.470  0.00  0.00    +0.000 OA
BRANCH  15  18
ATOM     16  C   UNL     1      44.822   3.708  11.922  0.00  0.00    +0.000 A 
ATOM     17  C   UNL     1      45.783   3.096  12.736  0.00  0.00    +0.000 A 
ATOM     18  C   UNL     1      46.550   3.840  13.633  0.00  0.00    +0.000 A 
ATOM     19  C   UNL     1      46.371   5.218  13.708  0.00  0.00    +0.000 A 
ATOM     20  C   UNL     1      45.438   5.857  12.885  0.00  0.00    +0.000 A 
ATOM     21  C   UNL     1      44.627   5.099  12.014  0.00  0.00    +0.000 A 
BRANCH  16  23
ATOM     22  C   UNL     1      44.785   2.682   9.762  0.00  0.00    +0.000 C 
ATOM     23  O   UNL     1      44.116   3.009  10.976  0.00  0.00    +0.000 OA
ENDBRANCH  16  23
BRANCH  20  24
ATOM     24  O   UNL     1      45.234   7.217  12.919  0.00  0.00    +0.000 OA
ATOM     25  C   UNL     1      46.385   8.008  12.634  0.00  0.00    +0.000 C 
ENDBRANCH  20  24
BRANCH  21  26
ATOM     26  O   UNL     1      43.732   5.818  11.256  0.00  0.00    +0.000 OA
ATOM     27  C   UNL     1      42.371   5.755  11.668  0.00  0.00    +0.000 C 
ENDBRANCH  21  26
ENDBRANCH  15  18
ENDBRANCH   1  15
TORSDOF 7
ENDMDL
