MODEL 1
REMARK VINA RESULT:    -7.815      0.000      0.000
REMARK INTER + INTRA:         -12.877
REMARK INTER:                 -11.928
REMARK INTRA:                  -0.950
REMARK UNBOUND:                -0.950
REMARK  Name = 
REMARK  11 active torsions:
REMARK  status: ('A' for Active; 'I' for Inactive)
REMARK    1  A    between atoms: C_1  and  C_2
REMARK    2  A    between atoms: C_2  and  C_3
REMARK    3  A    between atoms: C_3  and  N_4
REMARK    4  A    between atoms: C_3  and  C_22
REMARK    5  A    between atoms: N_4  and  C_5
REMARK    6  A    between atoms: C_5  and  C_6
REMARK    7  A    between atoms: C_9  and  C_10
REMARK    8  A    between atoms: C_10  and  N_11
REMARK    9  A    between atoms: N_11  and  C_12
REMARK   10  A    between atoms: N_11  and  C_13
REMARK   11  A    between atoms: C_13  and  C_14
REMARK                            x       y       z     vdW  Elec       q    Type
REMARK                         _______ _______ _______ _____ _____    ______ ____
ROOT
ATOM      1  C   UNL     1      48.606   6.718  15.088  0.00  0.00    +0.000 C 
ENDROOT
BRANCH   1   2
ATOM      2  C   UNL     1      47.594   6.337  14.036  0.00  0.00    +0.000 A 
ATOM      3  C   UNL     1      46.911   5.118  14.125  0.00  0.00    +0.000 A 
ATOM      4  C   UNL     1      45.917   4.802  13.206  0.00  0.00    +0.000 A 
ATOM      5  C   UNL     1      45.570   5.711  12.196  0.00  0.00    +0.000 A 
ATOM      6  C   UNL     1      46.280   6.912  12.079  0.00  0.00    +0.000 A 
ATOM      7  C   UNL     1      47.283   7.223  12.994  0.00  0.00    +0.000 A 
BRANCH   5   8
ATOM      8  C   UNL     1      44.412   5.412  11.273  0.00  0.00    +0.000 C 
BRANCH   8   9
ATOM      9  N   UNL     1      44.505   4.061  10.676  0.00  0.00    +0.000 NA
ATOM     10  C   UNL     1      43.498   3.156  11.242  0.00  0.00    +0.000 C 
BRANCH   9  11
ATOM     11  C   UNL     1      44.342   4.130   9.211  0.00  0.00    +0.000 C 
BRANCH  11  12
ATOM     12  C   UNL     1      45.335   3.274   8.457  0.00  0.00    +0.000 A 
ATOM     13  C   UNL     1      45.462   1.918   8.746  0.00  0.00    +0.000 A 
ATOM     14  N   UNL     1      46.392   1.126   8.164  0.00  0.00    +0.000 NA
ATOM     15  C   UNL     1      47.207   1.746   7.283  0.00  0.00    +0.000 A 
ATOM     16  C   UNL     1      47.087   3.090   6.983  0.00  0.00    +0.000 A 
ATOM     17  N   UNL     1      46.153   3.883   7.555  0.00  0.00    +0.000 NA
ENDBRANCH  11  12
ENDBRANCH   9  11
ENDBRANCH   8   9
ENDBRANCH   5   8
ENDBRANCH   1   2
BRANCH   1  18
ATOM     18  N   UNL     1      49.073   5.545  15.820  0.00  0.00    +0.000 NA
ATOM     19  H   UNL     1      50.016   5.322  15.503  0.00  0.00    +0.000 HD
BRANCH  18  20
ATOM     20  C   UNL     1      49.085   5.677  17.282  0.00  0.00    +0.000 C 
BRANCH  20  21
ATOM     21  C   UNL     1      50.321   4.996  17.850  0.00  0.00    +0.000 A 
ATOM     22  C   UNL     1      51.249   5.614  18.673  0.00  0.00    +0.000 A 
ATOM     23  S   UNL     1      52.608   4.649  19.024  0.00  0.00    +0.000 S 
ATOM     24  C   UNL     1      51.955   3.324  18.179  0.00  0.00    +0.000 A 
ATOM     25  N   UNL     1      52.633   2.147  18.108  0.00  0.00    +0.000 NA
ATOM     26  C   UNL     1      51.993   1.203  17.506  0.00  0.00    +0.000 A 
ATOM     27  N   UNL     1      50.740   1.331  16.962  0.00  0.00    +0.000 N 
ATOM     28  C   UNL     1      50.034   2.522  16.961  0.00  0.00    +0.000 A 
ATOM     29  O   UNL     1      48.938   2.596  16.416  0.00  0.00    +0.000 OA
ATOM     30  C   UNL     1      50.714   3.617  17.641  0.00  0.00    +0.000 A 
ATOM     31  H   UNL     1      50.288   0.546  16.520  0.00  0.00    +0.000 HD
ENDBRANCH  20  21
BRANCH  20  33
ATOM     32  C   UNL     1      47.248   6.079  19.060  0.00  0.00    +0.000 C 
ATOM     33  C   UNL     1      47.730   5.234  17.891  0.00  0.00    +0.000 C 
ENDBRANCH  20  33
ENDBRANCH  18  20
ENDBRANCH   1  18
TORSDOF 9
ENDMDL
MODEL 2
REMARK VINA RESULT:    -7.227      2.160      2.807
REMARK INTER + INTRA:         -11.979
REMARK INTER:                 -10.742
REMARK INTRA:                  -1.237
REMARK UNBOUND:                -0.950
REMARK  Name = 
REMARK  11 active torsions:
REMARK  status: ('A' for Active; 'I' for Inactive)
REMARK    1  A    between atoms: C_1  and  C_2
REMARK    2  A    between atoms: C_2  and  C_3
REMARK    3  A    between atoms: C_3  and  N_4
REMARK    4  A    between atoms: C_3  and  C_22
REMARK    5  A    between atoms: N_4  and  C_5
REMARK    6  A    between atoms: C_5  and  C_6
REMARK    7  A    between atoms: C_9  and  C_10
REMARK    8  A    between atoms: C_10  and  N_11
REMARK    9  A    between atoms: N_11  and  C_12
REMARK   10  A    between atoms: N_11  and  C_13
REMARK   11  A    between atoms: C_13  and  C_14
REMARK                            x       y       z     vdW  Elec       q    Type
REMARK                         _______ _______ _______ _____ _____    ______ ____
ROOT
ATOM      1  C   UNL     1      48.619   8.783  13.720  0.00  0.00    +0.000 C 
ENDROOT
BRANCH   1   2
ATOM      2  C   UNL     1      47.490   8.121  12.969  0.00  0.00    +0.000 A 
ATOM      3  C   UNL     1      47.763   7.133  12.015  0.00  0.00    +0.000 A 
ATOM      4  C   UNL     1      46.724   6.460  11.383  0.00  0.00    +0.000 A 
ATOM      5  C   UNL     1      45.391   6.747  11.713  0.00  0.00    +0.000 A 
ATOM      6  C   UNL     1      45.113   7.763  12.635  0.00  0.00    +0.000 A 
ATOM      7  C   UNL     1      46.157   8.443  13.260  0.00  0.00    +0.000 A 
BRANCH   5   8
ATOM      8  C   UNL     1      44.271   5.932  11.108  0.00  0.00    +0.000 C 
BRANCH   8   9
ATOM      9  N   UNL     1      44.653   4.518  10.904  0.00  0.00    +0.000 NA
ATOM     10  C   UNL     1      44.206   3.676  12.019  0.00  0.00    +0.000 C 
BRANCH   9  11
ATOM     11  C   UNL     1      44.088   4.007   9.639  0.00  0.00    +0.000 C 
BRANCH  11  12
ATOM     12  C   UNL     1      45.113   3.334   8.754  0.00  0.00    +0.000 A 
ATOM     13  C   UNL     1      45.376   1.973   8.886  0.00  0.00    +0.000 A 
ATOM     14  N   UNL     1      46.343   1.339   8.181  0.00  0.00    +0.000 NA
ATOM     15  C   UNL     1      47.052   2.124   7.342  0.00  0.00    +0.000 A 
ATOM     16  C   UNL     1      46.795   3.474   7.197  0.00  0.00    +0.000 A 
ATOM     17  N   UNL     1      45.825   4.110   7.892  0.00  0.00    +0.000 NA
ENDBRANCH  11  12
ENDBRANCH   9  11
ENDBRANCH   8   9
ENDBRANCH   5   8
ENDBRANCH   1   2
BRANCH   1  18
ATOM     18  N   UNL     1      48.762   8.221  15.060  0.00  0.00    +0.000 NA
ATOM     19  H   UNL     1      47.876   7.792  15.325  0.00  0.00    +0.000 HD
BRANCH  18  20
ATOM     20  C   UNL     1      49.833   7.230  15.217  0.00  0.00    +0.000 C 
BRANCH  20  21
ATOM     21  C   UNL     1      49.615   6.435  16.495  0.00  0.00    +0.000 A 
ATOM     22  C   UNL     1      50.263   6.683  17.694  0.00  0.00    +0.000 A 
ATOM     23  S   UNL     1      49.934   5.531  18.906  0.00  0.00    +0.000 S 
ATOM     24  C   UNL     1      48.823   4.716  17.908  0.00  0.00    +0.000 A 
ATOM     25  N   UNL     1      48.160   3.619  18.362  0.00  0.00    +0.000 NA
ATOM     26  C   UNL     1      47.292   3.145  17.534  0.00  0.00    +0.000 A 
ATOM     27  N   UNL     1      47.033   3.662  16.291  0.00  0.00    +0.000 N 
ATOM     28  C   UNL     1      47.719   4.743  15.763  0.00  0.00    +0.000 A 
ATOM     29  O   UNL     1      47.483   5.135  14.625  0.00  0.00    +0.000 OA
ATOM     30  C   UNL     1      48.704   5.320  16.668  0.00  0.00    +0.000 A 
ATOM     31  H   UNL     1      46.326   3.252  15.699  0.00  0.00    +0.000 HD
ENDBRANCH  20  21
BRANCH  20  33
ATOM     32  C   UNL     1      51.313   9.325  15.563  0.00  0.00    +0.000 C 
ATOM     33  C   UNL     1      51.228   7.891  15.064  0.00  0.00    +0.000 C 
ENDBRANCH  20  33
ENDBRANCH  18  20
ENDBRANCH   1  18
TORSDOF 9
ENDMDL
MODEL 3
REMARK VINA RESULT:    -7.152      1.518      1.899
REMARK INTER + INTRA:         -11.864
REMARK INTER:                 -10.882
REMARK INTRA:                  -0.982
REMARK UNBOUND:                -0.950
REMARK  Name = 
REMARK  11 active torsions:
REMARK  status: ('A' for Active; 'I' for Inactive)
REMARK    1  A    between atoms: C_1  and  C_2
REMARK    2  A    between atoms: C_2  and  C_3
REMARK    3  A    between atoms: C_3  and  N_4
REMARK    4  A    between atoms: C_3  and  C_22
REMARK    5  A    between atoms: N_4  and  C_5
REMARK    6  A    between atoms: C_5  and  C_6
REMARK    7  A    between atoms: C_9  and  C_10
REMARK    8  A    between atoms: C_10  and  N_11
REMARK    9  A    between atoms: N_11  and  C_12
REMARK   10  A    between atoms: N_11  and  C_13
REMARK   11  A    between atoms: C_13  and  C_14
REMARK                            x       y       z     vdW  Elec       q    Type
REMARK                         _______ _______ _______ _____ _____    ______ ____
ROOT
ATOM      1  C   UNL     1      48.839   6.992  14.879  0.00  0.00    +0.000 C 
ENDROOT
BRANCH   1   2
ATOM      2  C   UNL     1      47.843   6.606  13.813  0.00  0.00    +0.000 A 
ATOM      3  C   UNL     1      47.036   5.474  13.981  0.00  0.00    +0.000 A 
ATOM      4  C   UNL     1      46.058   5.164  13.042  0.00  0.00    +0.000 A 
ATOM      5  C   UNL     1      45.853   5.995  11.932  0.00  0.00    +0.000 A 
ATOM      6  C   UNL     1      46.686   7.104  11.739  0.00  0.00    +0.000 A 
ATOM      7  C   UNL     1      47.672   7.408  12.675  0.00  0.00    +0.000 A 
BRANCH   5   8
ATOM      8  C   UNL     1      44.714   5.717  10.979  0.00  0.00    +0.000 C 
BRANCH   8   9
ATOM      9  N   UNL     1      44.661   4.296  10.568  0.00  0.00    +0.000 NA
ATOM     10  C   UNL     1      43.631   3.563  11.311  0.00  0.00    +0.000 C 
BRANCH   9  11
ATOM     11  C   UNL     1      44.400   4.187   9.119  0.00  0.00    +0.000 C 
BRANCH  11  12
ATOM     12  C   UNL     1      45.384   3.292   8.399  0.00  0.00    +0.000 A 
ATOM     13  C   UNL     1      45.483   1.943   8.726  0.00  0.00    +0.000 A 
ATOM     14  N   UNL     1      46.405   1.119   8.176  0.00  0.00    +0.000 NA
ATOM     15  C   UNL     1      47.240   1.700   7.287  0.00  0.00    +0.000 A 
ATOM     16  C   UNL     1      47.147   3.037   6.949  0.00  0.00    +0.000 A 
ATOM     17  N   UNL     1      46.222   3.862   7.490  0.00  0.00    +0.000 NA
ENDBRANCH  11  12
ENDBRANCH   9  11
ENDBRANCH   8   9
ENDBRANCH   5   8
ENDBRANCH   1   2
BRANCH   1  18
ATOM     18  N   UNL     1      48.169   7.320  16.134  0.00  0.00    +0.000 NA
ATOM     19  H   UNL     1      47.216   6.958  16.093  0.00  0.00    +0.000 HD
BRANCH  18  20
ATOM     20  C   UNL     1      48.817   6.808  17.347  0.00  0.00    +0.000 C 
BRANCH  20  21
ATOM     21  C   UNL     1      48.818   5.288  17.328  0.00  0.00    +0.000 A 
ATOM     22  C   UNL     1      47.681   4.503  17.222  0.00  0.00    +0.000 A 
ATOM     23  S   UNL     1      47.978   2.834  17.386  0.00  0.00    +0.000 S 
ATOM     24  C   UNL     1      49.657   3.087  17.494  0.00  0.00    +0.000 A 
ATOM     25  N   UNL     1      50.507   2.034  17.635  0.00  0.00    +0.000 NA
ATOM     26  C   UNL     1      51.756   2.358  17.625  0.00  0.00    +0.000 A 
ATOM     27  N   UNL     1      52.231   3.638  17.497  0.00  0.00    +0.000 N 
ATOM     28  C   UNL     1      51.405   4.746  17.406  0.00  0.00    +0.000 A 
ATOM     29  O   UNL     1      51.882   5.874  17.343  0.00  0.00    +0.000 OA
ATOM     30  C   UNL     1      49.983   4.429  17.401  0.00  0.00    +0.000 A 
ATOM     31  H   UNL     1      53.223   3.820  17.479  0.00  0.00    +0.000 HD
ENDBRANCH  20  21
BRANCH  20  33
ATOM     32  C   UNL     1      48.820   6.988  19.929  0.00  0.00    +0.000 C 
ATOM     33  C   UNL     1      48.218   7.467  18.617  0.00  0.00    +0.000 C 
ENDBRANCH  20  33
ENDBRANCH  18  20
ENDBRANCH   1  18
TORSDOF 9
ENDMDL
MODEL 4
REMARK VINA RESULT:    -7.013      2.518      3.422
REMARK INTER + INTRA:         -11.653
REMARK INTER:                 -10.728
REMARK INTRA:                  -0.924
REMARK UNBOUND:                -0.950
REMARK  Name = 
REMARK  11 active torsions:
REMARK  status: ('A' for Active; 'I' for Inactive)
REMARK    1  A    between atoms: C_1  and  C_2
REMARK    2  A    between atoms: C_2  and  C_3
REMARK    3  A    between atoms: C_3  and  N_4
REMARK    4  A    between atoms: C_3  and  C_22
REMARK    5  A    between atoms: N_4  and  C_5
REMARK    6  A    between atoms: C_5  and  C_6
REMARK    7  A    between atoms: C_9  and  C_10
REMARK    8  A    between atoms: C_10  and  N_11
REMARK    9  A    between atoms: N_11  and  C_12
REMARK   10  A    between atoms: N_11  and  C_13
REMARK   11  A    between atoms: C_13  and  C_14
REMARK                            x       y       z     vdW  Elec       q    Type
REMARK                         _______ _______ _______ _____ _____    ______ ____
ROOT
ATOM      1  C   UNL     1      48.976   6.882  14.530  0.00  0.00    +0.000 C 
ENDROOT
BRANCH   1   2
ATOM      2  C   UNL     1      47.878   6.433  13.597  0.00  0.00    +0.000 A 
ATOM      3  C   UNL     1      47.006   5.407  13.979  0.00  0.00    +0.000 A 
ATOM      4  C   UNL     1      45.941   5.049  13.160  0.00  0.00    +0.000 A 
ATOM      5  C   UNL     1      45.714   5.730  11.955  0.00  0.00    +0.000 A 
ATOM      6  C   UNL     1      46.609   6.727  11.550  0.00  0.00    +0.000 A 
ATOM      7  C   UNL     1      47.682   7.078  12.367  0.00  0.00    +0.000 A 
BRANCH   5   8
ATOM      8  C   UNL     1      44.490   5.415  11.127  0.00  0.00    +0.000 C 
BRANCH   8   9
ATOM      9  N   UNL     1      44.447   3.997  10.707  0.00  0.00    +0.000 NA
ATOM     10  C   UNL     1      43.451   3.242  11.474  0.00  0.00    +0.000 C 
BRANCH   9  11
ATOM     11  C   UNL     1      44.146   3.894   9.265  0.00  0.00    +0.000 C 
BRANCH  11  12
ATOM     12  C   UNL     1      45.215   3.167   8.480  0.00  0.00    +0.000 A 
ATOM     13  C   UNL     1      45.458   1.814   8.702  0.00  0.00    +0.000 A 
ATOM     14  N   UNL     1      46.458   1.137   8.092  0.00  0.00    +0.000 NA
ATOM     15  C   UNL     1      47.223   1.870   7.254  0.00  0.00    +0.000 A 
ATOM     16  C   UNL     1      46.987   3.212   7.021  0.00  0.00    +0.000 A 
ATOM     17  N   UNL     1      45.983   3.890   7.621  0.00  0.00    +0.000 NA
ENDBRANCH  11  12
ENDBRANCH   9  11
ENDBRANCH   8   9
ENDBRANCH   5   8
ENDBRANCH   1   2
BRANCH   1  18
ATOM     18  N   UNL     1      48.434   7.310  15.816  0.00  0.00    +0.000 NA
ATOM     19  H   UNL     1      47.458   7.017  15.867  0.00  0.00    +0.000 HD
BRANCH  18  20
ATOM     20  C   UNL     1      49.142   6.806  16.998  0.00  0.00    +0.000 C 
BRANCH  20  21
ATOM     21  C   UNL     1      48.473   7.327  18.260  0.00  0.00    +0.000 A 
ATOM     22  C   UNL     1      48.031   8.629  18.434  0.00  0.00    +0.000 A 
ATOM     23  S   UNL     1      47.466   8.961  20.006  0.00  0.00    +0.000 S 
ATOM     24  C   UNL     1      47.687   7.344  20.487  0.00  0.00    +0.000 A 
ATOM     25  N   UNL     1      47.370   6.948  21.750  0.00  0.00    +0.000 NA
ATOM     26  C   UNL     1      47.512   5.683  21.958  0.00  0.00    +0.000 A 
ATOM     27  N   UNL     1      47.949   4.780  21.023  0.00  0.00    +0.000 N 
ATOM     28  C   UNL     1      48.335   5.143  19.744  0.00  0.00    +0.000 A 
ATOM     29  O   UNL     1      48.766   4.302  18.962  0.00  0.00    +0.000 OA
ATOM     30  C   UNL     1      48.181   6.563  19.457  0.00  0.00    +0.000 A 
ATOM     31  H   UNL     1      48.020   3.799  21.248  0.00  0.00    +0.000 HD
ENDBRANCH  20  21
BRANCH  20  33
ATOM     32  C   UNL     1      51.531   5.816  16.900  0.00  0.00    +0.000 C 
ATOM     33  C   UNL     1      50.666   7.067  16.886  0.00  0.00    +0.000 C 
ENDBRANCH  20  33
ENDBRANCH  18  20
ENDBRANCH   1  18
TORSDOF 9
ENDMDL
MODEL 5
REMARK VINA RESULT:    -6.888      1.996      2.805
REMARK INTER + INTRA:         -11.462
REMARK INTER:                 -10.441
REMARK INTRA:                  -1.021
REMARK UNBOUND:                -0.950
REMARK  Name = 
REMARK  11 active torsions:
REMARK  status: ('A' for Active; 'I' for Inactive)
REMARK    1  A    between atoms: C_1  and  C_2
REMARK    2  A    between atoms: C_2  and  C_3
REMARK    3  A    between atoms: C_3  and  N_4
REMARK    4  A    between atoms: C_3  and  C_22
REMARK    5  A    between atoms: N_4  and  C_5
REMARK    6  A    between atoms: C_5  and  C_6
REMARK    7  A    between atoms: C_9  and  C_10
REMARK    8  A    between atoms: C_10  and  N_11
REMARK    9  A    between atoms: N_11  and  C_12
REMARK   10  A    between atoms: N_11  and  C_13
REMARK   11  A    between atoms: C_13  and  C_14
REMARK                            x       y       z     vdW  Elec       q    Type
REMARK                         _______ _______ _______ _____ _____    ______ ____
ROOT
ATOM      1  C   UNL     1      49.182   6.934  13.996  0.00  0.00    +0.000 C 
ENDROOT
BRANCH   1   2
ATOM      2  C   UNL     1      47.852   6.629  13.351  0.00  0.00    +0.000 A 
ATOM      3  C   UNL     1      47.285   7.535  12.446  0.00  0.00    +0.000 A 
ATOM      4  C   UNL     1      46.104   7.220  11.784  0.00  0.00    +0.000 A 
ATOM      5  C   UNL     1      45.481   5.981  11.998  0.00  0.00    +0.000 A 
ATOM      6  C   UNL     1      46.023   5.091  12.933  0.00  0.00    +0.000 A 
ATOM      7  C   UNL     1      47.201   5.413  13.603  0.00  0.00    +0.000 A 
BRANCH   5   8
ATOM      8  C   UNL     1      44.263   5.598  11.190  0.00  0.00    +0.000 C 
BRANCH   8   9
ATOM      9  N   UNL     1      44.327   4.202  10.706  0.00  0.00    +0.000 NA
ATOM     10  C   UNL     1      43.341   3.354  11.384  0.00  0.00    +0.000 C 
BRANCH   9  11
ATOM     11  C   UNL     1      44.108   4.149   9.247  0.00  0.00    +0.000 C 
BRANCH  11  12
ATOM     12  C   UNL     1      45.132   3.309   8.517  0.00  0.00    +0.000 A 
ATOM     13  C   UNL     1      45.310   1.968   8.845  0.00  0.00    +0.000 A 
ATOM     14  N   UNL     1      46.270   1.195   8.285  0.00  0.00    +0.000 NA
ATOM     15  C   UNL     1      47.061   1.820   7.386  0.00  0.00    +0.000 A 
ATOM     16  C   UNL     1      46.889   3.149   7.047  0.00  0.00    +0.000 A 
ATOM     17  N   UNL     1      45.926   3.922   7.597  0.00  0.00    +0.000 NA
ENDBRANCH  11  12
ENDBRANCH   9  11
ENDBRANCH   8   9
ENDBRANCH   5   8
ENDBRANCH   1   2
BRANCH   1  18
ATOM     18  N   UNL     1      49.252   6.384  15.347  0.00  0.00    +0.000 NA
ATOM     19  H   UNL     1      49.205   5.368  15.282  0.00  0.00    +0.000 HD
BRANCH  18  20
ATOM     20  C   UNL     1      50.445   6.754  16.117  0.00  0.00    +0.000 C 
BRANCH  20  21
ATOM     21  C   UNL     1      50.081   6.911  17.585  0.00  0.00    +0.000 A 
ATOM     22  C   UNL     1      50.139   8.106  18.285  0.00  0.00    +0.000 A 
ATOM     23  S   UNL     1      49.825   7.943  19.951  0.00  0.00    +0.000 S 
ATOM     24  C   UNL     1      49.488   6.284  19.783  0.00  0.00    +0.000 A 
ATOM     25  N   UNL     1      49.130   5.538  20.863  0.00  0.00    +0.000 NA
ATOM     26  C   UNL     1      48.828   4.315  20.584  0.00  0.00    +0.000 A 
ATOM     27  N   UNL     1      48.860   3.769  19.327  0.00  0.00    +0.000 N 
ATOM     28  C   UNL     1      49.270   4.472  18.206  0.00  0.00    +0.000 A 
ATOM     29  O   UNL     1      49.328   3.921  17.112  0.00  0.00    +0.000 OA
ATOM     30  C   UNL     1      49.611   5.864  18.470  0.00  0.00    +0.000 A 
ATOM     31  H   UNL     1      48.593   2.808  19.175  0.00  0.00    +0.000 HD
ENDBRANCH  20  21
BRANCH  20  33
ATOM     32  C   UNL     1      52.649   7.741  15.187  0.00  0.00    +0.000 C 
ATOM     33  C   UNL     1      51.171   7.962  15.469  0.00  0.00    +0.000 C 
ENDBRANCH  20  33
ENDBRANCH  18  20
ENDBRANCH   1  18
TORSDOF 9
ENDMDL
MODEL 6
REMARK VINA RESULT:    -6.685      2.724      3.756
REMARK INTER + INTRA:         -11.152
REMARK INTER:                  -9.411
REMARK INTRA:                  -1.741
REMARK UNBOUND:                -0.950
REMARK  Name = 
REMARK  11 active torsions:
REMARK  status: ('A' for Active; 'I' for Inactive)
REMARK    1  A    between atoms: C_1  and  C_2
REMARK    2  A    between atoms: C_2  and  C_3
REMARK    3  A    between atoms: C_3  and  N_4
REMARK    4  A    between atoms: C_3  and  C_22
REMARK    5  A    between atoms: N_4  and  C_5
REMARK    6  A    between atoms: C_5  and  C_6
REMARK    7  A    between atoms: C_9  and  C_10
REMARK    8  A    between atoms: C_10  and  N_11
REMARK    9  A    between atoms: N_11  and  C_12
REMARK   10  A    between atoms: N_11  and  C_13
REMARK   11  A    between atoms: C_13  and  C_14
REMARK                            x       y       z     vdW  Elec       q    Type
REMARK                         _______ _______ _______ _____ _____    ______ ____
ROOT
ATOM      1  C   UNL     1      49.602   7.664  17.749  0.00  0.00    +0.000 C 
ENDROOT
BRANCH   1   2
ATOM      2  C   UNL     1      48.924   7.742  16.403  0.00  0.00    +0.000 A 
ATOM      3  C   UNL     1      48.380   8.953  15.959  0.00  0.00    +0.000 A 
ATOM      4  C   UNL     1      47.832   9.051  14.685  0.00  0.00    +0.000 A 
ATOM      5  C   UNL     1      47.841   7.945  13.822  0.00  0.00    +0.000 A 
ATOM      6  C   UNL     1      48.346   6.722  14.279  0.00  0.00    +0.000 A 
ATOM      7  C   UNL     1      48.886   6.623  15.559  0.00  0.00    +0.000 A 
BRANCH   5   8
ATOM      8  C   UNL     1      47.350   8.090  12.401  0.00  0.00    +0.000 C 
BRANCH   8   9
ATOM      9  N   UNL     1      45.986   7.545  12.220  0.00  0.00    +0.000 NA
ATOM     10  C   UNL     1      45.055   8.577  11.755  0.00  0.00    +0.000 C 
BRANCH   9  11
ATOM     11  C   UNL     1      46.001   6.421  11.262  0.00  0.00    +0.000 C 
BRANCH  11  12
ATOM     12  C   UNL     1      45.071   5.293  11.649  0.00  0.00    +0.000 A 
ATOM     13  C   UNL     1      45.522   4.247  12.450  0.00  0.00    +0.000 A 
ATOM     14  N   UNL     1      44.759   3.172  12.753  0.00  0.00    +0.000 NA
ATOM     15  C   UNL     1      43.521   3.172  12.212  0.00  0.00    +0.000 A 
ATOM     16  C   UNL     1      43.060   4.207  11.422  0.00  0.00    +0.000 A 
ATOM     17  N   UNL     1      43.815   5.289  11.123  0.00  0.00    +0.000 NA
ENDBRANCH  11  12
ENDBRANCH   9  11
ENDBRANCH   8   9
ENDBRANCH   5   8
ENDBRANCH   1   2
BRANCH   1  18
ATOM     18  N   UNL     1      48.748   7.005  18.733  0.00  0.00    +0.000 NA
ATOM     19  H   UNL     1      48.031   6.479  18.234  0.00  0.00    +0.000 HD
BRANCH  18  20
ATOM     20  C   UNL     1      49.437   6.103  19.662  0.00  0.00    +0.000 C 
BRANCH  20  21
ATOM     21  C   UNL     1      49.968   4.894  18.908  0.00  0.00    +0.000 A 
ATOM     22  C   UNL     1      51.279   4.448  18.964  0.00  0.00    +0.000 A 
ATOM     23  S   UNL     1      51.617   3.168  17.892  0.00  0.00    +0.000 S 
ATOM     24  C   UNL     1      49.994   3.086  17.389  0.00  0.00    +0.000 A 
ATOM     25  N   UNL     1      49.600   2.165  16.469  0.00  0.00    +0.000 NA
ATOM     26  C   UNL     1      48.331   2.159  16.235  0.00  0.00    +0.000 A 
ATOM     27  N   UNL     1      47.423   2.996  16.832  0.00  0.00    +0.000 N 
ATOM     28  C   UNL     1      47.782   3.984  17.732  0.00  0.00    +0.000 A 
ATOM     29  O   UNL     1      46.934   4.739  18.199  0.00  0.00    +0.000 OA
ATOM     30  C   UNL     1      49.206   4.022  18.037  0.00  0.00    +0.000 A 
ATOM     31  H   UNL     1      46.439   2.926  16.617  0.00  0.00    +0.000 HD
ENDBRANCH  20  21
BRANCH  20  33
ATOM     32  C   UNL     1      47.380   6.743  21.097  0.00  0.00    +0.000 C 
ATOM     33  C   UNL     1      48.550   5.792  20.895  0.00  0.00    +0.000 C 
ENDBRANCH  20  33
ENDBRANCH  18  20
ENDBRANCH   1  18
TORSDOF 9
ENDMDL
MODEL 7
REMARK VINA RESULT:    -6.073      2.259      3.659
REMARK INTER + INTRA:         -10.218
REMARK INTER:                  -9.578
REMARK INTRA:                  -0.640
REMARK UNBOUND:                -0.950
REMARK  Name = 
REMARK  11 active torsions:
REMARK  status: ('A' for Active; 'I' for Inactive)
REMARK    1  A    between atoms: C_1  and  C_2
REMARK    2  A    between atoms: C_2  and  C_3
REMARK    3  A    between atoms: C_3  and  N_4
REMARK    4  A    between atoms: C_3  and  C_22
REMARK    5  A    between atoms: N_4  and  C_5
REMARK    6  A    between atoms: C_5  and  C_6
REMARK    7  A    between atoms: C_9  and  C_10
REMARK    8  A    between atoms: C_10  and  N_11
REMARK    9  A    between atoms: N_11  and  C_12
REMARK   10  A    between atoms: N_11  and  C_13
REMARK   11  A    between atoms: C_13  and  C_14
REMARK                            x       y       z     vdW  Elec       q    Type
REMARK                         _______ _______ _______ _____ _____    ______ ____
ROOT
ATOM      1  C   UNL     1      48.915   4.468  18.021  0.00  0.00    +0.000 C 
ENDROOT
BRANCH   1   2
ATOM      2  C   UNL     1      48.298   4.838  16.695  0.00  0.00    +0.000 A 
ATOM      3  C   UNL     1      48.524   6.105  16.143  0.00  0.00    +0.000 A 
ATOM      4  C   UNL     1      48.030   6.420  14.882  0.00  0.00    +0.000 A 
ATOM      5  C   UNL     1      47.320   5.464  14.141  0.00  0.00    +0.000 A 
ATOM      6  C   UNL     1      47.056   4.212  14.707  0.00  0.00    +0.000 A 
ATOM      7  C   UNL     1      47.544   3.901  15.975  0.00  0.00    +0.000 A 
BRANCH   5   8
ATOM      8  C   UNL     1      46.886   5.774  12.727  0.00  0.00    +0.000 C 
BRANCH   8   9
ATOM      9  N   UNL     1      46.086   7.016  12.645  0.00  0.00    +0.000 NA
ATOM     10  C   UNL     1      46.884   8.133  12.130  0.00  0.00    +0.000 C 
BRANCH   9  11
ATOM     11  C   UNL     1      44.903   6.814  11.786  0.00  0.00    +0.000 C 
BRANCH  11  12
ATOM     12  C   UNL     1      44.350   5.407  11.849  0.00  0.00    +0.000 A 
ATOM     13  C   UNL     1      43.833   4.903  13.039  0.00  0.00    +0.000 A 
ATOM     14  N   UNL     1      43.407   3.626  13.173  0.00  0.00    +0.000 NA
ATOM     15  C   UNL     1      43.528   2.859  12.068  0.00  0.00    +0.000 A 
ATOM     16  C   UNL     1      44.033   3.350  10.879  0.00  0.00    +0.000 A 
ATOM     17  N   UNL     1      44.452   4.628  10.738  0.00  0.00    +0.000 NA
ENDBRANCH  11  12
ENDBRANCH   9  11
ENDBRANCH   8   9
ENDBRANCH   5   8
ENDBRANCH   1   2
BRANCH   1  18
ATOM     18  N   UNL     1      50.132   5.235  18.270  0.00  0.00    +0.000 NA
ATOM     19  H   UNL     1      50.412   5.087  19.239  0.00  0.00    +0.000 HD
BRANCH  18  20
ATOM     20  C   UNL     1      51.267   4.918  17.396  0.00  0.00    +0.000 C 
BRANCH  20  21
ATOM     21  C   UNL     1      52.265   4.049  18.144  0.00  0.00    +0.000 A 
ATOM     22  C   UNL     1      53.188   4.525  19.062  0.00  0.00    +0.000 A 
ATOM     23  S   UNL     1      54.278   3.341  19.620  0.00  0.00    +0.000 S 
ATOM     24  C   UNL     1      53.488   2.118  18.740  0.00  0.00    +0.000 A 
ATOM     25  N   UNL     1      53.926   0.831  18.796  0.00  0.00    +0.000 NA
ATOM     26  C   UNL     1      53.192  -0.006  18.145  0.00  0.00    +0.000 A 
ATOM     27  N   UNL     1      52.066   0.326  17.437  0.00  0.00    +0.000 N 
ATOM     28  C   UNL     1      51.612   1.628  17.305  0.00  0.00    +0.000 A 
ATOM     29  O   UNL     1      50.627   1.877  16.618  0.00  0.00    +0.000 OA
ATOM     30  C   UNL     1      52.404   2.610  18.033  0.00  0.00    +0.000 A 
ATOM     31  H   UNL     1      51.527  -0.383  16.964  0.00  0.00    +0.000 HD
ENDBRANCH  20  21
BRANCH  20  33
ATOM     32  C   UNL     1      51.533   7.491  17.494  0.00  0.00    +0.000 C 
ATOM     33  C   UNL     1      51.845   6.203  16.748  0.00  0.00    +0.000 C 
ENDBRANCH  20  33
ENDBRANCH  18  20
ENDBRANCH   1  18
TORSDOF 9
ENDMDL
MODEL 8
REMARK VINA RESULT:    -5.907      3.789      9.691
REMARK INTER + INTRA:          -9.965
REMARK INTER:                  -8.519
REMARK INTRA:                  -1.446
REMARK UNBOUND:                -0.950
REMARK  Name = 
REMARK  11 active torsions:
REMARK  status: ('A' for Active; 'I' for Inactive)
REMARK    1  A    between atoms: C_1  and  C_2
REMARK    2  A    between atoms: C_2  and  C_3
REMARK    3  A    between atoms: C_3  and  N_4
REMARK    4  A    between atoms: C_3  and  C_22
REMARK    5  A    between atoms: N_4  and  C_5
REMARK    6  A    between atoms: C_5  and  C_6
REMARK    7  A    between atoms: C_9  and  C_10
REMARK    8  A    between atoms: C_10  and  N_11
REMARK    9  A    between atoms: N_11  and  C_12
REMARK   10  A    between atoms: N_11  and  C_13
REMARK   11  A    between atoms: C_13  and  C_14
REMARK                            x       y       z     vdW  Elec       q    Type
REMARK                         _______ _______ _______ _____ _____    ______ ____
ROOT
ATOM      1  C   UNL     1      47.384   4.949  13.425  0.00  0.00    +0.000 C 
ENDROOT
BRANCH   1   2
ATOM      2  C   UNL     1      47.661   5.249  14.878  0.00  0.00    +0.000 A 
ATOM      3  C   UNL     1      47.194   4.385  15.876  0.00  0.00    +0.000 A 
ATOM      4  C   UNL     1      47.521   4.611  17.209  0.00  0.00    +0.000 A 
ATOM      5  C   UNL     1      48.341   5.692  17.564  0.00  0.00    +0.000 A 
ATOM      6  C   UNL     1      48.773   6.582  16.573  0.00  0.00    +0.000 A 
ATOM      7  C   UNL     1      48.437   6.359  15.239  0.00  0.00    +0.000 A 
BRANCH   5   8
ATOM      8  C   UNL     1      48.786   5.865  18.997  0.00  0.00    +0.000 C 
BRANCH   8   9
ATOM      9  N   UNL     1      47.908   6.787  19.750  0.00  0.00    +0.000 NA
ATOM     10  C   UNL     1      47.362   6.146  20.951  0.00  0.00    +0.000 C 
BRANCH   9  11
ATOM     11  C   UNL     1      48.646   8.008  20.132  0.00  0.00    +0.000 C 
BRANCH  11  12
ATOM     12  C   UNL     1      48.003   9.280  19.624  0.00  0.00    +0.000 A 
ATOM     13  C   UNL     1      48.491   9.912  18.484  0.00  0.00    +0.000 A 
ATOM     14  N   UNL     1      48.010  11.095  18.037  0.00  0.00    +0.000 NA
ATOM     15  C   UNL     1      47.022  11.635  18.784  0.00  0.00    +0.000 A 
ATOM     16  C   UNL     1      46.525  11.013  19.913  0.00  0.00    +0.000 A 
ATOM     17  N   UNL     1      46.996   9.826  20.359  0.00  0.00    +0.000 NA
ENDBRANCH  11  12
ENDBRANCH   9  11
ENDBRANCH   8   9
ENDBRANCH   5   8
ENDBRANCH   1   2
BRANCH   1  18
ATOM     18  N   UNL     1      46.796   6.102  12.750  0.00  0.00    +0.000 NA
ATOM     19  H   UNL     1      47.061   6.068  11.766  0.00  0.00    +0.000 HD
BRANCH  18  20
ATOM     20  C   UNL     1      45.336   6.211  12.844  0.00  0.00    +0.000 C 
BRANCH  20  21
ATOM     21  C   UNL     1      44.687   4.999  12.194  0.00  0.00    +0.000 A 
ATOM     22  C   UNL     1      43.778   4.164  12.824  0.00  0.00    +0.000 A 
ATOM     23  S   UNL     1      43.342   2.800  11.901  0.00  0.00    +0.000 S 
ATOM     24  C   UNL     1      44.267   3.332  10.576  0.00  0.00    +0.000 A 
ATOM     25  N   UNL     1      44.311   2.605   9.427  0.00  0.00    +0.000 NA
ATOM     26  C   UNL     1      44.985   3.159   8.476  0.00  0.00    +0.000 A 
ATOM     27  N   UNL     1      45.624   4.368   8.572  0.00  0.00    +0.000 N 
ATOM     28  C   UNL     1      45.653   5.118   9.736  0.00  0.00    +0.000 A 
ATOM     29  O   UNL     1      46.282   6.170   9.783  0.00  0.00    +0.000 OA
ATOM     30  C   UNL     1      44.896   4.537  10.837  0.00  0.00    +0.000 A 
ATOM     31  H   UNL     1      46.119   4.754   7.782  0.00  0.00    +0.000 HD
ENDBRANCH  20  21
BRANCH  20  33
ATOM     32  C   UNL     1      45.627   8.783  12.871  0.00  0.00    +0.000 C 
ATOM     33  C   UNL     1      44.848   7.592  12.334  0.00  0.00    +0.000 C 
ENDBRANCH  20  33
ENDBRANCH  18  20
ENDBRANCH   1  18
TORSDOF 9
ENDMDL
MODEL 9
REMARK VINA RESULT:    -5.906      1.992      2.748
REMARK INTER + INTRA:          -9.964
REMARK INTER:                  -9.288
REMARK INTRA:                  -0.676
REMARK UNBOUND:                -0.950
REMARK  Name = 
REMARK  11 active torsions:
REMARK  status: ('A' for Active; 'I' for Inactive)
REMARK    1  A    between atoms: C_1  and  C_2
REMARK    2  A    between atoms: C_2  and  C_3
REMARK    3  A    between atoms: C_3  and  N_4
REMARK    4  A    between atoms: C_3  and  C_22
REMARK    5  A    between atoms: N_4  and  C_5
REMARK    6  A    between atoms: C_5  and  C_6
REMARK    7  A    between atoms: C_9  and  C_10
REMARK    8  A    between atoms: C_10  and  N_11
REMARK    9  A    between atoms: N_11  and  C_12
REMARK   10  A    between atoms: N_11  and  C_13
REMARK   11  A    between atoms: C_13  and  C_14
REMARK                            x       y       z     vdW  Elec       q    Type
REMARK                         _______ _______ _______ _____ _____    ______ ____
ROOT
ATOM      1  C   UNL     1      48.400   6.124  14.992  0.00  0.00    +0.000 C 
ENDROOT
BRANCH   1   2
ATOM      2  C   UNL     1      47.353   5.906  13.928  0.00  0.00    +0.000 A 
ATOM      3  C   UNL     1      47.190   6.841  12.899  0.00  0.00    +0.000 A 
ATOM      4  C   UNL     1      46.287   6.602  11.869  0.00  0.00    +0.000 A 
ATOM      5  C   UNL     1      45.548   5.410  11.837  0.00  0.00    +0.000 A 
ATOM      6  C   UNL     1      45.678   4.493  12.886  0.00  0.00    +0.000 A 
ATOM      7  C   UNL     1      46.576   4.738  13.923  0.00  0.00    +0.000 A 
BRANCH   5   8
ATOM      8  C   UNL     1      44.656   5.105  10.656  0.00  0.00    +0.000 C 
BRANCH   8   9
ATOM      9  N   UNL     1      44.726   3.683  10.253  0.00  0.00    +0.000 NA
ATOM     10  C   UNL     1      43.684   2.888  10.912  0.00  0.00    +0.000 C 
BRANCH   9  11
ATOM     11  C   UNL     1      44.598   3.554   8.788  0.00  0.00    +0.000 C 
BRANCH  11  12
ATOM     12  C   UNL     1      45.742   2.797   8.151  0.00  0.00    +0.000 A 
ATOM     13  C   UNL     1      46.621   3.443   7.285  0.00  0.00    +0.000 A 
ATOM     14  N   UNL     1      47.607   2.796   6.622  0.00  0.00    +0.000 NA
ATOM     15  C   UNL     1      47.677   1.466   6.847  0.00  0.00    +0.000 A 
ATOM     16  C   UNL     1      46.815   0.816   7.710  0.00  0.00    +0.000 A 
ATOM     17  N   UNL     1      45.834   1.459   8.382  0.00  0.00    +0.000 NA
ENDBRANCH  11  12
ENDBRANCH   9  11
ENDBRANCH   8   9
ENDBRANCH   5   8
ENDBRANCH   1   2
BRANCH   1  18
ATOM     18  N   UNL     1      48.170   7.375  15.710  0.00  0.00    +0.000 NA
ATOM     19  H   UNL     1      47.343   7.262  16.295  0.00  0.00    +0.000 HD
BRANCH  18  20
ATOM     20  C   UNL     1      49.284   7.834  16.548  0.00  0.00    +0.000 C 
BRANCH  20  21
ATOM     21  C   UNL     1      49.509   6.852  17.687  0.00  0.00    +0.000 A 
ATOM     22  C   UNL     1      48.578   6.569  18.674  0.00  0.00    +0.000 A 
ATOM     23  S   UNL     1      49.168   5.550  19.905  0.00  0.00    +0.000 S 
ATOM     24  C   UNL     1      50.658   5.357  19.108  0.00  0.00    +0.000 A 
ATOM     25  N   UNL     1      51.632   4.572  19.643  0.00  0.00    +0.000 NA
ATOM     26  C   UNL     1      52.680   4.450  18.901  0.00  0.00    +0.000 A 
ATOM     27  N   UNL     1      52.847   5.049  17.678  0.00  0.00    +0.000 N 
ATOM     28  C   UNL     1      51.909   5.900  17.118  0.00  0.00    +0.000 A 
ATOM     29  O   UNL     1      52.130   6.449  16.044  0.00  0.00    +0.000 OA
ATOM     30  C   UNL     1      50.701   6.060  17.916  0.00  0.00    +0.000 A 
ATOM     31  H   UNL     1      53.687   4.897  17.140  0.00  0.00    +0.000 HD
ENDBRANCH  20  21
BRANCH  20  33
ATOM     32  C   UNL     1      50.011  10.300  16.253  0.00  0.00    +0.000 C 
ATOM     33  C   UNL     1      49.094   9.316  16.962  0.00  0.00    +0.000 C 
ENDBRANCH  20  33
ENDBRANCH  18  20
ENDBRANCH   1  18
TORSDOF 9
ENDMDL
