MODEL 1
REMARK VINA RESULT:    -7.336      0.000      0.000
REMARK INTER + INTRA:          -9.639
REMARK INTER:                  -9.051
REMARK INTRA:                  -0.588
REMARK UNBOUND:                -0.588
REMARK  Name = 
REMARK  4 active torsions:
REMARK  status: ('A' for Active; 'I' for Inactive)
REMARK    1  A    between atoms: C_4  and  O_5
REMARK    2  A    between atoms: O_5  and  C_6
REMARK    3  A    between atoms: C_6  and  C_7
REMARK    4  A    between atoms: C_11  and  N_12
REMARK                            x       y       z     vdW  Elec       q    Type
REMARK                         _______ _______ _______ _____ _____    ______ ____
ROOT
ATOM      1  C   UNL     1      44.219   3.340  10.523  0.00  0.00    +0.000 A 
ATOM      2  C   UNL     1      43.591   2.828  11.661  0.00  0.00    +0.000 A 
ATOM      3  C   UNL     1      43.527   3.591  12.823  0.00  0.00    +0.000 A 
ATOM      4  C   UNL     1      44.092   4.869  12.853  0.00  0.00    +0.000 A 
ATOM      5  C   UNL     1      44.733   5.417  11.734  0.00  0.00    +0.000 A 
ATOM      6  C   UNL     1      44.758   4.639  10.566  0.00  0.00    +0.000 A 
ENDROOT
BRANCH   5   7
ATOM      7  N   UNL     1      45.395   6.627  11.836  0.00  0.00    +0.000 N 
ATOM      8  C   UNL     1      46.861   6.683  11.808  0.00  0.00    +0.000 C 
ATOM      9  C   UNL     1      47.335   7.875  12.673  0.00  0.00    +0.000 C 
ATOM     10  N   UNL     1      46.756   9.173  12.258  0.00  0.00    +0.000 NA
ATOM     11  C   UNL     1      45.277   9.057  12.253  0.00  0.00    +0.000 C 
ATOM     12  C   UNL     1      44.732   7.871  11.417  0.00  0.00    +0.000 C 
ATOM     13  H   UNL     1      47.059   9.358  11.303  0.00  0.00    +0.000 HD
ENDBRANCH   5   7
BRANCH   1  14
ATOM     14  C   UNL     1      44.356   2.496   9.279  0.00  0.00    +0.000 C 
BRANCH  14  15
ATOM     15  O   UNL     1      45.672   1.954   9.202  0.00  0.00    +0.000 OA
BRANCH  15  19
ATOM     16  C   UNL     1      47.389   2.315   5.419  0.00  0.00    +0.000 A 
ATOM     17  C   UNL     1      47.566   1.121   6.114  0.00  0.00    +0.000 A 
ATOM     18  C   UNL     1      47.010   0.957   7.385  0.00  0.00    +0.000 A 
ATOM     19  C   UNL     1      46.272   1.990   7.971  0.00  0.00    +0.000 A 
ATOM     20  C   UNL     1      46.101   3.185   7.267  0.00  0.00    +0.000 A 
ATOM     21  C   UNL     1      46.658   3.348   5.996  0.00  0.00    +0.000 A 
ENDBRANCH  15  19
ENDBRANCH  14  15
ENDBRANCH   1  14
TORSDOF 4
ENDMDL
MODEL 2
REMARK VINA RESULT:    -7.255      1.166      1.953
REMARK INTER + INTRA:          -9.539
REMARK INTER:                  -8.963
REMARK INTRA:                  -0.576
REMARK UNBOUND:                -0.588
REMARK  Name = 
REMARK  4 active torsions:
REMARK  status: ('A' for Active; 'I' for Inactive)
REMARK    1  A    between atoms: C_4  and  O_5
REMARK    2  A    between atoms: O_5  and  C_6
REMARK    3  A    between atoms: C_6  and  C_7
REMARK    4  A    between atoms: C_11  and  N_12
REMARK                            x       y       z     vdW  Elec       q    Type
REMARK                         _______ _______ _______ _____ _____    ______ ____
ROOT
ATOM      1  C   UNL     1      44.372   4.203  10.156  0.00  0.00    +0.000 A 
ATOM      2  C   UNL     1      43.597   3.461  11.051  0.00  0.00    +0.000 A 
ATOM      3  C   UNL     1      43.672   3.718  12.416  0.00  0.00    +0.000 A 
ATOM      4  C   UNL     1      44.524   4.717  12.894  0.00  0.00    +0.000 A 
ATOM      5  C   UNL     1      45.319   5.482  12.030  0.00  0.00    +0.000 A 
ATOM      6  C   UNL     1      45.203   5.222  10.656  0.00  0.00    +0.000 A 
ENDROOT
BRANCH   5   7
ATOM      7  N   UNL     1      46.247   6.370  12.544  0.00  0.00    +0.000 N 
ATOM      8  C   UNL     1      45.861   7.746  12.879  0.00  0.00    +0.000 C 
ATOM      9  C   UNL     1      47.078   8.676  12.663  0.00  0.00    +0.000 C 
ATOM     10  N   UNL     1      48.275   8.269  13.433  0.00  0.00    +0.000 NA
ATOM     11  C   UNL     1      48.600   6.860  13.102  0.00  0.00    +0.000 C 
ATOM     12  C   UNL     1      47.419   5.874  13.280  0.00  0.00    +0.000 C 
ATOM     13  H   UNL     1      48.039   8.312  14.423  0.00  0.00    +0.000 HD
ENDBRANCH   5   7
BRANCH   1  14
ATOM     14  C   UNL     1      44.352   3.888   8.680  0.00  0.00    +0.000 C 
BRANCH  14  15
ATOM     15  O   UNL     1      45.599   4.245   8.090  0.00  0.00    +0.000 OA
BRANCH  15  19
ATOM     16  C   UNL     1      47.472   1.127   6.052  0.00  0.00    +0.000 A 
ATOM     17  C   UNL     1      47.315   2.344   5.395  0.00  0.00    +0.000 A 
ATOM     18  C   UNL     1      46.691   3.417   6.040  0.00  0.00    +0.000 A 
ATOM     19  C   UNL     1      46.219   3.275   7.347  0.00  0.00    +0.000 A 
ATOM     20  C   UNL     1      46.379   2.049   7.998  0.00  0.00    +0.000 A 
ATOM     21  C   UNL     1      47.003   0.977   7.353  0.00  0.00    +0.000 A 
ENDBRANCH  15  19
ENDBRANCH  14  15
ENDBRANCH   1  14
TORSDOF 4
ENDMDL
MODEL 3
REMARK VINA RESULT:    -7.221      1.432      2.133
REMARK INTER + INTRA:          -9.497
REMARK INTER:                  -8.732
REMARK INTRA:                  -0.766
REMARK UNBOUND:                -0.588
REMARK  Name = 
REMARK  4 active torsions:
REMARK  status: ('A' for Active; 'I' for Inactive)
REMARK    1  A    between atoms: C_4  and  O_5
REMARK    2  A    between atoms: O_5  and  C_6
REMARK    3  A    between atoms: C_6  and  C_7
REMARK    4  A    between atoms: C_11  and  N_12
REMARK                            x       y       z     vdW  Elec       q    Type
REMARK                         _______ _______ _______ _____ _____    ______ ____
ROOT
ATOM      1  C   UNL     1      44.945   3.881  11.915  0.00  0.00    +0.000 A 
ATOM      2  C   UNL     1      45.810   3.214  12.787  0.00  0.00    +0.000 A 
ATOM      3  C   UNL     1      46.720   3.936  13.552  0.00  0.00    +0.000 A 
ATOM      4  C   UNL     1      46.771   5.329  13.449  0.00  0.00    +0.000 A 
ATOM      5  C   UNL     1      45.922   6.035  12.586  0.00  0.00    +0.000 A 
ATOM      6  C   UNL     1      44.995   5.285  11.847  0.00  0.00    +0.000 A 
ENDROOT
BRANCH   5   7
ATOM      7  N   UNL     1      46.087   7.397  12.411  0.00  0.00    +0.000 N 
ATOM      8  C   UNL     1      47.428   7.988  12.347  0.00  0.00    +0.000 C 
ATOM      9  C   UNL     1      47.374   9.422  12.923  0.00  0.00    +0.000 C 
ATOM     10  N   UNL     1      46.388  10.294  12.245  0.00  0.00    +0.000 NA
ATOM     11  C   UNL     1      45.059   9.638  12.290  0.00  0.00    +0.000 C 
ATOM     12  C   UNL     1      45.043   8.189  11.742  0.00  0.00    +0.000 C 
ATOM     13  H   UNL     1      46.665  10.375  11.267  0.00  0.00    +0.000 HD
ENDBRANCH   5   7
BRANCH   1  14
ATOM     14  C   UNL     1      44.002   3.104  11.029  0.00  0.00    +0.000 C 
BRANCH  14  15
ATOM     15  O   UNL     1      43.990   3.669   9.720  0.00  0.00    +0.000 OA
BRANCH  15  19
ATOM     16  C   UNL     1      46.990   2.163   7.246  0.00  0.00    +0.000 A 
ATOM     17  C   UNL     1      46.712   3.526   7.192  0.00  0.00    +0.000 A 
ATOM     18  C   UNL     1      45.714   4.074   8.002  0.00  0.00    +0.000 A 
ATOM     19  C   UNL     1      44.985   3.258   8.873  0.00  0.00    +0.000 A 
ATOM     20  C   UNL     1      45.270   1.891   8.919  0.00  0.00    +0.000 A 
ATOM     21  C   UNL     1      46.268   1.344   8.108  0.00  0.00    +0.000 A 
ENDBRANCH  15  19
ENDBRANCH  14  15
ENDBRANCH   1  14
TORSDOF 4
ENDMDL
MODEL 4
REMARK VINA RESULT:    -7.099      2.057      2.801
REMARK INTER + INTRA:          -9.347
REMARK INTER:                  -8.749
REMARK INTRA:                  -0.598
REMARK UNBOUND:                -0.588
REMARK  Name = 
REMARK  4 active torsions:
REMARK  status: ('A' for Active; 'I' for Inactive)
REMARK    1  A    between atoms: C_4  and  O_5
REMARK    2  A    between atoms: O_5  and  C_6
REMARK    3  A    between atoms: C_6  and  C_7
REMARK    4  A    between atoms: C_11  and  N_12
REMARK                            x       y       z     vdW  Elec       q    Type
REMARK                         _______ _______ _______ _____ _____    ______ ____
ROOT
ATOM      1  C   UNL     1      44.325   4.177  10.679  0.00  0.00    +0.000 A 
ATOM      2  C   UNL     1      43.432   5.251  10.682  0.00  0.00    +0.000 A 
ATOM      3  C   UNL     1      43.621   6.311  11.563  0.00  0.00    +0.000 A 
ATOM      4  C   UNL     1      44.703   6.302  12.448  0.00  0.00    +0.000 A 
ATOM      5  C   UNL     1      45.620   5.243  12.477  0.00  0.00    +0.000 A 
ATOM      6  C   UNL     1      45.423   4.200  11.558  0.00  0.00    +0.000 A 
ENDROOT
BRANCH   5   7
ATOM      7  N   UNL     1      46.602   5.201  13.450  0.00  0.00    +0.000 N 
ATOM      8  C   UNL     1      46.904   3.952  14.157  0.00  0.00    +0.000 C 
ATOM      9  C   UNL     1      47.373   4.287  15.592  0.00  0.00    +0.000 C 
ATOM     10  N   UNL     1      48.535   5.203  15.635  0.00  0.00    +0.000 NA
ATOM     11  C   UNL     1      48.205   6.429  14.869  0.00  0.00    +0.000 C 
ATOM     12  C   UNL     1      47.711   6.166  13.424  0.00  0.00    +0.000 C 
ATOM     13  H   UNL     1      49.314   4.741  15.166  0.00  0.00    +0.000 HD
ENDBRANCH   5   7
BRANCH   1  14
ATOM     14  C   UNL     1      44.092   2.990   9.777  0.00  0.00    +0.000 C 
BRANCH  14  15
ATOM     15  O   UNL     1      45.308   2.266   9.603  0.00  0.00    +0.000 OA
BRANCH  15  19
ATOM     16  C   UNL     1      47.132   2.186   5.854  0.00  0.00    +0.000 A 
ATOM     17  C   UNL     1      46.496   3.358   6.254  0.00  0.00    +0.000 A 
ATOM     18  C   UNL     1      45.870   3.430   7.501  0.00  0.00    +0.000 A 
ATOM     19  C   UNL     1      45.876   2.325   8.357  0.00  0.00    +0.000 A 
ATOM     20  C   UNL     1      46.515   1.152   7.947  0.00  0.00    +0.000 A 
ATOM     21  C   UNL     1      47.141   1.082   6.699  0.00  0.00    +0.000 A 
ENDBRANCH  15  19
ENDBRANCH  14  15
ENDBRANCH   1  14
TORSDOF 4
ENDMDL
MODEL 5
REMARK VINA RESULT:    -6.986      2.773      3.725
REMARK INTER + INTRA:          -9.207
REMARK INTER:                  -8.496
REMARK INTRA:                  -0.711
REMARK UNBOUND:                -0.588
REMARK  Name = 
REMARK  4 active torsions:
REMARK  status: ('A' for Active; 'I' for Inactive)
REMARK    1  A    between atoms: C_4  and  O_5
REMARK    2  A    between atoms: O_5  and  C_6
REMARK    3  A    between atoms: C_6  and  C_7
REMARK    4  A    between atoms: C_11  and  N_12
REMARK                            x       y       z     vdW  Elec       q    Type
REMARK                         _______ _______ _______ _____ _____    ______ ____
ROOT
ATOM      1  C   UNL     1      45.032   4.882  11.723  0.00  0.00    +0.000 A 
ATOM      2  C   UNL     1      45.082   6.173  11.191  0.00  0.00    +0.000 A 
ATOM      3  C   UNL     1      45.894   7.137  11.780  0.00  0.00    +0.000 A 
ATOM      4  C   UNL     1      46.657   6.817  12.906  0.00  0.00    +0.000 A 
ATOM      5  C   UNL     1      46.633   5.534  13.471  0.00  0.00    +0.000 A 
ATOM      6  C   UNL     1      45.829   4.573  12.840  0.00  0.00    +0.000 A 
ENDROOT
BRANCH   5   7
ATOM      7  N   UNL     1      47.297   5.286  14.659  0.00  0.00    +0.000 N 
ATOM      8  C   UNL     1      47.264   3.953  15.271  0.00  0.00    +0.000 C 
ATOM      9  C   UNL     1      47.347   4.104  16.808  0.00  0.00    +0.000 C 
ATOM     10  N   UNL     1      48.537   4.857  17.264  0.00  0.00    +0.000 NA
ATOM     11  C   UNL     1      48.557   6.176  16.585  0.00  0.00    +0.000 C 
ATOM     12  C   UNL     1      48.460   6.100  15.041  0.00  0.00    +0.000 C 
ATOM     13  H   UNL     1      49.365   4.340  16.969  0.00  0.00    +0.000 HD
ENDBRANCH   5   7
BRANCH   1  14
ATOM     14  C   UNL     1      44.104   3.847  11.134  0.00  0.00    +0.000 C 
BRANCH  14  15
ATOM     15  O   UNL     1      44.013   4.023   9.723  0.00  0.00    +0.000 OA
BRANCH  15  19
ATOM     16  C   UNL     1      46.890   2.232   7.294  0.00  0.00    +0.000 A 
ATOM     17  C   UNL     1      46.180   1.426   8.179  0.00  0.00    +0.000 A 
ATOM     18  C   UNL     1      45.207   1.984   9.014  0.00  0.00    +0.000 A 
ATOM     19  C   UNL     1      44.941   3.355   8.967  0.00  0.00    +0.000 A 
ATOM     20  C   UNL     1      45.660   4.157   8.077  0.00  0.00    +0.000 A 
ATOM     21  C   UNL     1      46.633   3.598   7.243  0.00  0.00    +0.000 A 
ENDBRANCH  15  19
ENDBRANCH  14  15
ENDBRANCH   1  14
TORSDOF 4
ENDMDL
MODEL 6
REMARK VINA RESULT:    -6.571      1.784      3.072
REMARK INTER + INTRA:          -8.695
REMARK INTER:                  -7.925
REMARK INTRA:                  -0.770
REMARK UNBOUND:                -0.588
REMARK  Name = 
REMARK  4 active torsions:
REMARK  status: ('A' for Active; 'I' for Inactive)
REMARK    1  A    between atoms: C_4  and  O_5
REMARK    2  A    between atoms: O_5  and  C_6
REMARK    3  A    between atoms: C_6  and  C_7
REMARK    4  A    between atoms: C_11  and  N_12
REMARK                            x       y       z     vdW  Elec       q    Type
REMARK                         _______ _______ _______ _____ _____    ______ ____
ROOT
ATOM      1  C   UNL     1      44.735   5.252  11.897  0.00  0.00    +0.000 A 
ATOM      2  C   UNL     1      45.972   5.008  12.499  0.00  0.00    +0.000 A 
ATOM      3  C   UNL     1      46.814   6.069  12.816  0.00  0.00    +0.000 A 
ATOM      4  C   UNL     1      46.424   7.380  12.531  0.00  0.00    +0.000 A 
ATOM      5  C   UNL     1      45.193   7.667  11.926  0.00  0.00    +0.000 A 
ATOM      6  C   UNL     1      44.351   6.581  11.643  0.00  0.00    +0.000 A 
ENDROOT
BRANCH   5   7
ATOM      7  N   UNL     1      44.894   8.961  11.539  0.00  0.00    +0.000 N 
ATOM      8  C   UNL     1      43.609   9.275  10.903  0.00  0.00    +0.000 C 
ATOM      9  C   UNL     1      43.810  10.452   9.920  0.00  0.00    +0.000 C 
ATOM     10  N   UNL     1      44.386  11.660  10.554  0.00  0.00    +0.000 NA
ATOM     11  C   UNL     1      45.656  11.288  11.224  0.00  0.00    +0.000 C 
ATOM     12  C   UNL     1      45.532  10.102  12.213  0.00  0.00    +0.000 C 
ATOM     13  H   UNL     1      43.735  11.977  11.270  0.00  0.00    +0.000 HD
ENDBRANCH   5   7
BRANCH   1  14
ATOM     14  C   UNL     1      43.844   4.105  11.485  0.00  0.00    +0.000 C 
BRANCH  14  15
ATOM     15  O   UNL     1      43.629   4.139  10.077  0.00  0.00    +0.000 OA
BRANCH  15  19
ATOM     16  C   UNL     1      46.528   2.432   7.612  0.00  0.00    +0.000 A 
ATOM     17  C   UNL     1      45.792   1.593   8.445  0.00  0.00    +0.000 A 
ATOM     18  C   UNL     1      44.812   2.123   9.289  0.00  0.00    +0.000 A 
ATOM     19  C   UNL     1      44.562   3.498   9.305  0.00  0.00    +0.000 A 
ATOM     20  C   UNL     1      45.307   4.332   8.467  0.00  0.00    +0.000 A 
ATOM     21  C   UNL     1      46.287   3.802   7.623  0.00  0.00    +0.000 A 
ENDBRANCH  15  19
ENDBRANCH  14  15
ENDBRANCH   1  14
TORSDOF 4
ENDMDL
MODEL 7
REMARK VINA RESULT:    -6.397      1.808      2.664
REMARK INTER + INTRA:          -8.480
REMARK INTER:                  -7.765
REMARK INTRA:                  -0.715
REMARK UNBOUND:                -0.588
REMARK  Name = 
REMARK  4 active torsions:
REMARK  status: ('A' for Active; 'I' for Inactive)
REMARK    1  A    between atoms: C_4  and  O_5
REMARK    2  A    between atoms: O_5  and  C_6
REMARK    3  A    between atoms: C_6  and  C_7
REMARK    4  A    between atoms: C_11  and  N_12
REMARK                            x       y       z     vdW  Elec       q    Type
REMARK                         _______ _______ _______ _____ _____    ______ ____
ROOT
ATOM      1  C   UNL     1      45.349   4.789  12.258  0.00  0.00    +0.000 A 
ATOM      2  C   UNL     1      45.907   4.070  13.318  0.00  0.00    +0.000 A 
ATOM      3  C   UNL     1      46.951   4.617  14.057  0.00  0.00    +0.000 A 
ATOM      4  C   UNL     1      47.444   5.885  13.739  0.00  0.00    +0.000 A 
ATOM      5  C   UNL     1      46.914   6.637  12.683  0.00  0.00    +0.000 A 
ATOM      6  C   UNL     1      45.842   6.075  11.972  0.00  0.00    +0.000 A 
ENDROOT
BRANCH   5   7
ATOM      7  N   UNL     1      47.509   7.830  12.312  0.00  0.00    +0.000 N 
ATOM      8  C   UNL     1      48.719   7.836  11.483  0.00  0.00    +0.000 C 
ATOM      9  C   UNL     1      49.575   9.071  11.853  0.00  0.00    +0.000 C 
ATOM     10  N   UNL     1      48.847  10.354  11.722  0.00  0.00    +0.000 NA
ATOM     11  C   UNL     1      47.608  10.286  12.535  0.00  0.00    +0.000 C 
ATOM     12  C   UNL     1      46.710   9.061  12.228  0.00  0.00    +0.000 C 
ATOM     13  H   UNL     1      48.575  10.460  10.745  0.00  0.00    +0.000 HD
ENDBRANCH   5   7
BRANCH   1  14
ATOM     14  C   UNL     1      44.264   4.178  11.406  0.00  0.00    +0.000 C 
BRANCH  14  15
ATOM     15  O   UNL     1      44.410   4.606  10.054  0.00  0.00    +0.000 OA
BRANCH  15  19
ATOM     16  C   UNL     1      46.584   2.265   7.374  0.00  0.00    +0.000 A 
ATOM     17  C   UNL     1      45.878   1.624   8.389  0.00  0.00    +0.000 A 
ATOM     18  C   UNL     1      45.137   2.369   9.311  0.00  0.00    +0.000 A 
ATOM     19  C   UNL     1      45.100   3.763   9.222  0.00  0.00    +0.000 A 
ATOM     20  C   UNL     1      45.813   4.398   8.201  0.00  0.00    +0.000 A 
ATOM     21  C   UNL     1      46.553   3.652   7.280  0.00  0.00    +0.000 A 
ENDBRANCH  15  19
ENDBRANCH  14  15
ENDBRANCH   1  14
TORSDOF 4
ENDMDL
MODEL 8
REMARK VINA RESULT:    -6.385      3.819      5.169
REMARK INTER + INTRA:          -8.466
REMARK INTER:                  -7.879
REMARK INTRA:                  -0.587
REMARK UNBOUND:                -0.588
REMARK  Name = 
REMARK  4 active torsions:
REMARK  status: ('A' for Active; 'I' for Inactive)
REMARK    1  A    between atoms: C_4  and  O_5
REMARK    2  A    between atoms: O_5  and  C_6
REMARK    3  A    between atoms: C_6  and  C_7
REMARK    4  A    between atoms: C_11  and  N_12
REMARK                            x       y       z     vdW  Elec       q    Type
REMARK                         _______ _______ _______ _____ _____    ______ ____
ROOT
ATOM      1  C   UNL     1      45.886   5.105  13.094  0.00  0.00    +0.000 A 
ATOM      2  C   UNL     1      46.460   6.251  12.537  0.00  0.00    +0.000 A 
ATOM      3  C   UNL     1      47.548   6.857  13.159  0.00  0.00    +0.000 A 
ATOM      4  C   UNL     1      48.065   6.321  14.342  0.00  0.00    +0.000 A 
ATOM      5  C   UNL     1      47.517   5.175  14.932  0.00  0.00    +0.000 A 
ATOM      6  C   UNL     1      46.439   4.567  14.270  0.00  0.00    +0.000 A 
ENDROOT
BRANCH   5   7
ATOM      7  N   UNL     1      47.967   4.748  16.169  0.00  0.00    +0.000 N 
ATOM      8  C   UNL     1      48.890   5.573  16.956  0.00  0.00    +0.000 C 
ATOM      9  C   UNL     1      49.800   4.647  17.796  0.00  0.00    +0.000 C 
ATOM     10  N   UNL     1      49.051   3.721  18.675  0.00  0.00    +0.000 NA
ATOM     11  C   UNL     1      48.097   2.943  17.847  0.00  0.00    +0.000 C 
ATOM     12  C   UNL     1      47.163   3.809  16.965  0.00  0.00    +0.000 C 
ATOM     13  H   UNL     1      48.510   4.283  19.331  0.00  0.00    +0.000 HD
ENDBRANCH   5   7
BRANCH   1  14
ATOM     14  C   UNL     1      44.664   4.479  12.467  0.00  0.00    +0.000 C 
BRANCH  14  15
ATOM     15  O   UNL     1      44.422   5.061  11.189  0.00  0.00    +0.000 OA
BRANCH  15  19
ATOM     16  C   UNL     1      45.623   2.656   8.001  0.00  0.00    +0.000 A 
ATOM     17  C   UNL     1      46.009   3.994   8.001  0.00  0.00    +0.000 A 
ATOM     18  C   UNL     1      45.627   4.837   9.048  0.00  0.00    +0.000 A 
ATOM     19  C   UNL     1      44.854   4.345  10.104  0.00  0.00    +0.000 A 
ATOM     20  C   UNL     1      44.470   3.001  10.095  0.00  0.00    +0.000 A 
ATOM     21  C   UNL     1      44.852   2.159   9.047  0.00  0.00    +0.000 A 
ENDBRANCH  15  19
ENDBRANCH  14  15
ENDBRANCH   1  14
TORSDOF 4
ENDMDL
MODEL 9
REMARK VINA RESULT:    -6.269      2.550      6.422
REMARK INTER + INTRA:          -8.323
REMARK INTER:                  -7.668
REMARK INTRA:                  -0.654
REMARK UNBOUND:                -0.588
REMARK  Name = 
REMARK  4 active torsions:
REMARK  status: ('A' for Active; 'I' for Inactive)
REMARK    1  A    between atoms: C_4  and  O_5
REMARK    2  A    between atoms: O_5  and  C_6
REMARK    3  A    between atoms: C_6  and  C_7
REMARK    4  A    between atoms: C_11  and  N_12
REMARK                            x       y       z     vdW  Elec       q    Type
REMARK                         _______ _______ _______ _____ _____    ______ ____
ROOT
ATOM      1  C   UNL     1      44.432   5.018  11.973  0.00  0.00    +0.000 A 
ATOM      2  C   UNL     1      43.522   4.144  12.573  0.00  0.00    +0.000 A 
ATOM      3  C   UNL     1      43.294   2.889  12.019  0.00  0.00    +0.000 A 
ATOM      4  C   UNL     1      43.973   2.501  10.861  0.00  0.00    +0.000 A 
ATOM      5  C   UNL     1      44.893   3.349  10.228  0.00  0.00    +0.000 A 
ATOM      6  C   UNL     1      45.125   4.598  10.824  0.00  0.00    +0.000 A 
ENDROOT
BRANCH   5   7
ATOM      7  N   UNL     1      45.449   2.987   9.014  0.00  0.00    +0.000 N 
ATOM      8  C   UNL     1      45.545   1.576   8.624  0.00  0.00    +0.000 C 
ATOM      9  C   UNL     1      46.796   1.384   7.736  0.00  0.00    +0.000 C 
ATOM     10  N   UNL     1      46.811   2.257   6.540  0.00  0.00    +0.000 NA
ATOM     11  C   UNL     1      46.663   3.667   6.976  0.00  0.00    +0.000 C 
ATOM     12  C   UNL     1      45.436   3.929   7.885  0.00  0.00    +0.000 C 
ATOM     13  H   UNL     1      46.001   2.019   5.970  0.00  0.00    +0.000 HD
ENDBRANCH   5   7
BRANCH   1  14
ATOM     14  C   UNL     1      44.636   6.409  12.525  0.00  0.00    +0.000 C 
BRANCH  14  15
ATOM     15  O   UNL     1      45.916   6.501  13.144  0.00  0.00    +0.000 OA
BRANCH  15  19
ATOM     16  C   UNL     1      48.649   9.285  11.670  0.00  0.00    +0.000 A 
ATOM     17  C   UNL     1      47.404   9.743  12.093  0.00  0.00    +0.000 A 
ATOM     18  C   UNL     1      46.456   8.845  12.593  0.00  0.00    +0.000 A 
ATOM     19  C   UNL     1      46.750   7.480  12.671  0.00  0.00    +0.000 A 
ATOM     20  C   UNL     1      48.002   7.030  12.242  0.00  0.00    +0.000 A 
ATOM     21  C   UNL     1      48.949   7.929  11.743  0.00  0.00    +0.000 A 
ENDBRANCH  15  19
ENDBRANCH  14  15
ENDBRANCH   1  14
TORSDOF 4
ENDMDL
