MODEL 1
REMARK VINA RESULT:    -6.820      0.000      0.000
REMARK INTER + INTRA:          -9.572
REMARK INTER:                  -9.013
REMARK INTRA:                  -0.558
REMARK UNBOUND:                -0.558
REMARK  Name = 
REMARK  6 active torsions:
REMARK  status: ('A' for Active; 'I' for Inactive)
REMARK    1  A    between atoms: N_1  and  C_2
REMARK    2  A    between atoms: C_2  and  C_3
REMARK    3  A    between atoms: C_6  and  C_7
REMARK    4  A    between atoms: C_7  and  C_8
REMARK    5  A    between atoms: C_8  and  O_9
REMARK    6  A    between atoms: O_9  and  C_10
REMARK                            x       y       z     vdW  Elec       q    Type
REMARK                         _______ _______ _______ _____ _____    ______ ____
ROOT
ATOM      1  C   UNL     1      46.692   2.294   7.536  0.00  0.00    +0.000 A 
ATOM      2  C   UNL     1      45.913   1.618   8.478  0.00  0.00    +0.000 A 
ATOM      3  C   UNL     1      44.948   2.308   9.211  0.00  0.00    +0.000 A 
ATOM      4  C   UNL     1      44.782   3.671   8.988  0.00  0.00    +0.000 A 
ATOM      5  N   UNL     1      45.527   4.353   8.085  0.00  0.00    +0.000 NA
ATOM      6  C   UNL     1      46.451   3.654   7.383  0.00  0.00    +0.000 A 
ENDROOT
BRANCH   1   7
ATOM      7  C   UNL     1      47.771   1.598   6.757  0.00  0.00    +0.000 C 
BRANCH   7   8
ATOM      8  N   UNL     1      48.628   2.540   6.043  0.00  0.00    +0.000 NA
ATOM      9  H   UNL     1      49.592   2.397   6.330  0.00  0.00    +0.000 HD
ATOM     10  H   UNL     1      48.382   3.489   6.322  0.00  0.00    +0.000 HD
ENDBRANCH   7   8
ENDBRANCH   1   7
BRANCH   4  11
ATOM     11  C   UNL     1      43.817   4.475   9.822  0.00  0.00    +0.000 C 
BRANCH  11  12
ATOM     12  C   UNL     1      43.544   3.752  11.139  0.00  0.00    +0.000 C 
BRANCH  12  13
ATOM     13  O   UNL     1      43.454   4.696  12.213  0.00  0.00    +0.000 OA
BRANCH  13  14
ATOM     14  C   UNL     1      44.648   5.258  12.589  0.00  0.00    +0.000 A 
ATOM     15  C   UNL     1      44.941   6.624  12.539  0.00  0.00    +0.000 A 
ATOM     16  C   UNL     1      46.193   7.095  12.946  0.00  0.00    +0.000 A 
ATOM     17  C   UNL     1      47.152   6.200  13.412  0.00  0.00    +0.000 A 
ATOM     18 CL   UNL     1      48.697   6.786  13.898  0.00  0.00    +0.000 Cl
ATOM     19  C   UNL     1      46.865   4.840  13.488  0.00  0.00    +0.000 A 
ATOM     20  C   UNL     1      45.610   4.372  13.085  0.00  0.00    +0.000 A 
ENDBRANCH  13  14
ENDBRANCH  12  13
ENDBRANCH  11  12
ENDBRANCH   4  11
TORSDOF 6
ENDMDL
MODEL 2
REMARK VINA RESULT:    -6.795      3.180      5.955
REMARK INTER + INTRA:          -9.538
REMARK INTER:                  -8.959
REMARK INTRA:                  -0.579
REMARK UNBOUND:                -0.558
REMARK  Name = 
REMARK  6 active torsions:
REMARK  status: ('A' for Active; 'I' for Inactive)
REMARK    1  A    between atoms: N_1  and  C_2
REMARK    2  A    between atoms: C_2  and  C_3
REMARK    3  A    between atoms: C_6  and  C_7
REMARK    4  A    between atoms: C_7  and  C_8
REMARK    5  A    between atoms: C_8  and  O_9
REMARK    6  A    between atoms: O_9  and  C_10
REMARK                            x       y       z     vdW  Elec       q    Type
REMARK                         _______ _______ _______ _____ _____    ______ ____
ROOT
ATOM      1  C   UNL     1      46.978   6.064  13.466  0.00  0.00    +0.000 A 
ATOM      2  C   UNL     1      46.018   6.718  12.690  0.00  0.00    +0.000 A 
ATOM      3  C   UNL     1      44.805   6.094  12.406  0.00  0.00    +0.000 A 
ATOM      4  C   UNL     1      44.574   4.815  12.904  0.00  0.00    +0.000 A 
ATOM      5  N   UNL     1      45.489   4.155  13.655  0.00  0.00    +0.000 NA
ATOM      6  C   UNL     1      46.655   4.790  13.920  0.00  0.00    +0.000 A 
ENDROOT
BRANCH   1   7
ATOM      7  C   UNL     1      48.315   6.683  13.759  0.00  0.00    +0.000 C 
BRANCH   7   8
ATOM      8  N   UNL     1      49.273   6.456  12.681  0.00  0.00    +0.000 NA
ATOM      9  H   UNL     1      50.125   6.063  13.069  0.00  0.00    +0.000 HD
ATOM     10  H   UNL     1      49.531   7.354  12.272  0.00  0.00    +0.000 HD
ENDBRANCH   7   8
ENDBRANCH   1   7
BRANCH   4  11
ATOM     11  C   UNL     1      43.316   4.065  12.545  0.00  0.00    +0.000 C 
BRANCH  11  12
ATOM     12  C   UNL     1      43.623   3.028  11.466  0.00  0.00    +0.000 C 
BRANCH  12  13
ATOM     13  O   UNL     1      43.596   3.640  10.171  0.00  0.00    +0.000 OA
BRANCH  13  14
ATOM     14  C   UNL     1      44.597   3.240   9.322  0.00  0.00    +0.000 A 
ATOM     15  C   UNL     1      45.012   1.917   9.140  0.00  0.00    +0.000 A 
ATOM     16  C   UNL     1      46.046   1.615   8.249  0.00  0.00    +0.000 A 
ATOM     17  C   UNL     1      46.663   2.636   7.531  0.00  0.00    +0.000 A 
ATOM     18 CL   UNL     1      47.946   2.259   6.447  0.00  0.00    +0.000 Cl
ATOM     19  C   UNL     1      46.245   3.955   7.687  0.00  0.00    +0.000 A 
ATOM     20  C   UNL     1      45.206   4.253   8.576  0.00  0.00    +0.000 A 
ENDBRANCH  13  14
ENDBRANCH  12  13
ENDBRANCH  11  12
ENDBRANCH   4  11
TORSDOF 6
ENDMDL
MODEL 3
REMARK VINA RESULT:    -6.330      1.257      2.064
REMARK INTER + INTRA:          -8.923
REMARK INTER:                  -8.105
REMARK INTRA:                  -0.818
REMARK UNBOUND:                -0.558
REMARK  Name = 
REMARK  6 active torsions:
REMARK  status: ('A' for Active; 'I' for Inactive)
REMARK    1  A    between atoms: N_1  and  C_2
REMARK    2  A    between atoms: C_2  and  C_3
REMARK    3  A    between atoms: C_6  and  C_7
REMARK    4  A    between atoms: C_7  and  C_8
REMARK    5  A    between atoms: C_8  and  O_9
REMARK    6  A    between atoms: O_9  and  C_10
REMARK                            x       y       z     vdW  Elec       q    Type
REMARK                         _______ _______ _______ _____ _____    ______ ____
ROOT
ATOM      1  C   UNL     1      45.711   2.803   8.406  0.00  0.00    +0.000 A 
ATOM      2  C   UNL     1      45.690   4.181   8.632  0.00  0.00    +0.000 A 
ATOM      3  C   UNL     1      44.819   4.721   9.578  0.00  0.00    +0.000 A 
ATOM      4  C   UNL     1      43.978   3.865  10.283  0.00  0.00    +0.000 A 
ATOM      5  N   UNL     1      43.974   2.525  10.080  0.00  0.00    +0.000 NA
ATOM      6  C   UNL     1      44.836   2.030   9.160  0.00  0.00    +0.000 A 
ENDROOT
BRANCH   1   7
ATOM      7  C   UNL     1      46.602   2.186   7.366  0.00  0.00    +0.000 C 
BRANCH   7   8
ATOM      8  N   UNL     1      47.541   3.152   6.803  0.00  0.00    +0.000 NA
ATOM      9  H   UNL     1      47.026   3.844   6.267  0.00  0.00    +0.000 HD
ATOM     10  H   UNL     1      48.153   2.673   6.143  0.00  0.00    +0.000 HD
ENDBRANCH   7   8
ENDBRANCH   1   7
BRANCH   4  11
ATOM     11  C   UNL     1      42.956   4.412  11.247  0.00  0.00    +0.000 C 
BRANCH  11  12
ATOM     12  C   UNL     1      43.426   4.185  12.682  0.00  0.00    +0.000 C 
BRANCH  12  13
ATOM     13  O   UNL     1      43.788   5.432  13.287  0.00  0.00    +0.000 OA
BRANCH  13  14
ATOM     14  C   UNL     1      45.101   5.795  13.122  0.00  0.00    +0.000 A 
ATOM     15  C   UNL     1      46.200   5.018  13.498  0.00  0.00    +0.000 A 
ATOM     16  C   UNL     1      47.502   5.483  13.285  0.00  0.00    +0.000 A 
ATOM     17  C   UNL     1      47.706   6.723  12.688  0.00  0.00    +0.000 A 
ATOM     18 CL   UNL     1      49.311   7.295  12.443  0.00  0.00    +0.000 Cl
ATOM     19  C   UNL     1      46.620   7.497  12.289  0.00  0.00    +0.000 A 
ATOM     20  C   UNL     1      45.319   7.027  12.498  0.00  0.00    +0.000 A 
ENDBRANCH  13  14
ENDBRANCH  12  13
ENDBRANCH  11  12
ENDBRANCH   4  11
TORSDOF 6
ENDMDL
MODEL 4
REMARK VINA RESULT:    -6.236      3.165      5.966
REMARK INTER + INTRA:          -8.800
REMARK INTER:                  -8.183
REMARK INTRA:                  -0.617
REMARK UNBOUND:                -0.558
REMARK  Name = 
REMARK  6 active torsions:
REMARK  status: ('A' for Active; 'I' for Inactive)
REMARK    1  A    between atoms: N_1  and  C_2
REMARK    2  A    between atoms: C_2  and  C_3
REMARK    3  A    between atoms: C_6  and  C_7
REMARK    4  A    between atoms: C_7  and  C_8
REMARK    5  A    between atoms: C_8  and  O_9
REMARK    6  A    between atoms: O_9  and  C_10
REMARK                            x       y       z     vdW  Elec       q    Type
REMARK                         _______ _______ _______ _____ _____    ______ ____
ROOT
ATOM      1  C   UNL     1      46.181   7.388  12.213  0.00  0.00    +0.000 A 
ATOM      2  C   UNL     1      46.522   6.229  12.914  0.00  0.00    +0.000 A 
ATOM      3  C   UNL     1      45.659   5.134  12.917  0.00  0.00    +0.000 A 
ATOM      4  C   UNL     1      44.461   5.221  12.216  0.00  0.00    +0.000 A 
ATOM      5  N   UNL     1      44.101   6.334  11.532  0.00  0.00    +0.000 NA
ATOM      6  C   UNL     1      44.964   7.379  11.542  0.00  0.00    +0.000 A 
ENDROOT
BRANCH   1   7
ATOM      7  C   UNL     1      47.061   8.605  12.221  0.00  0.00    +0.000 C 
BRANCH   7   8
ATOM      8  N   UNL     1      46.698   9.539  13.282  0.00  0.00    +0.000 NA
ATOM      9  H   UNL     1      47.541   9.959  13.660  0.00  0.00    +0.000 HD
ATOM     10  H   UNL     1      46.266   9.021  14.048  0.00  0.00    +0.000 HD
ENDBRANCH   7   8
ENDBRANCH   1   7
BRANCH   4  11
ATOM     11  C   UNL     1      43.456   4.098  12.267  0.00  0.00    +0.000 C 
BRANCH  11  12
ATOM     12  C   UNL     1      43.967   2.909  11.456  0.00  0.00    +0.000 C 
BRANCH  12  13
ATOM     13  O   UNL     1      43.602   3.057  10.079  0.00  0.00    +0.000 OA
BRANCH  13  14
ATOM     14  C   UNL     1      44.650   3.006   9.194  0.00  0.00    +0.000 A 
ATOM     15  C   UNL     1      45.217   4.114   8.560  0.00  0.00    +0.000 A 
ATOM     16  C   UNL     1      46.285   3.953   7.671  0.00  0.00    +0.000 A 
ATOM     17  C   UNL     1      46.793   2.681   7.423  0.00  0.00    +0.000 A 
ATOM     18 CL   UNL     1      48.099   2.489   6.317  0.00  0.00    +0.000 Cl
ATOM     19  C   UNL     1      46.252   1.571   8.065  0.00  0.00    +0.000 A 
ATOM     20  C   UNL     1      45.187   1.737   8.957  0.00  0.00    +0.000 A 
ENDBRANCH  13  14
ENDBRANCH  12  13
ENDBRANCH  11  12
ENDBRANCH   4  11
TORSDOF 6
ENDMDL
MODEL 5
REMARK VINA RESULT:    -5.684      3.679      6.838
REMARK INTER + INTRA:          -8.069
REMARK INTER:                  -7.667
REMARK INTRA:                  -0.402
REMARK UNBOUND:                -0.558
REMARK  Name = 
REMARK  6 active torsions:
REMARK  status: ('A' for Active; 'I' for Inactive)
REMARK    1  A    between atoms: N_1  and  C_2
REMARK    2  A    between atoms: C_2  and  C_3
REMARK    3  A    between atoms: C_6  and  C_7
REMARK    4  A    between atoms: C_7  and  C_8
REMARK    5  A    between atoms: C_8  and  O_9
REMARK    6  A    between atoms: O_9  and  C_10
REMARK                            x       y       z     vdW  Elec       q    Type
REMARK                         _______ _______ _______ _____ _____    ______ ____
ROOT
ATOM      1  C   UNL     1      46.800   5.887  13.086  0.00  0.00    +0.000 A 
ATOM      2  C   UNL     1      46.339   6.750  12.089  0.00  0.00    +0.000 A 
ATOM      3  C   UNL     1      45.389   6.310  11.168  0.00  0.00    +0.000 A 
ATOM      4  C   UNL     1      44.917   5.005  11.262  0.00  0.00    +0.000 A 
ATOM      5  N   UNL     1      45.350   4.145  12.215  0.00  0.00    +0.000 NA
ATOM      6  C   UNL     1      46.268   4.604  13.099  0.00  0.00    +0.000 A 
ENDROOT
BRANCH   1   7
ATOM      7  C   UNL     1      47.855   6.307  14.069  0.00  0.00    +0.000 C 
BRANCH   7   8
ATOM      8  N   UNL     1      47.847   5.480  15.271  0.00  0.00    +0.000 NA
ATOM      9  H   UNL     1      48.610   5.764  15.877  0.00  0.00    +0.000 HD
ATOM     10  H   UNL     1      48.034   4.512  15.009  0.00  0.00    +0.000 HD
ENDBRANCH   7   8
ENDBRANCH   1   7
BRANCH   4  11
ATOM     11  C   UNL     1      43.959   4.457  10.234  0.00  0.00    +0.000 C 
BRANCH  11  12
ATOM     12  C   UNL     1      44.602   3.279   9.504  0.00  0.00    +0.000 C 
BRANCH  12  13
ATOM     13  O   UNL     1      45.787   3.707   8.821  0.00  0.00    +0.000 OA
BRANCH  13  14
ATOM     14  C   UNL     1      46.214   2.867   7.825  0.00  0.00    +0.000 A 
ATOM     15  C   UNL     1      46.494   1.508   7.988  0.00  0.00    +0.000 A 
ATOM     16  C   UNL     1      46.928   0.738   6.904  0.00  0.00    +0.000 A 
ATOM     17  C   UNL     1      47.074   1.326   5.651  0.00  0.00    +0.000 A 
ATOM     18 CL   UNL     1      47.622   0.375   4.325  0.00  0.00    +0.000 Cl
ATOM     19  C   UNL     1      46.778   2.674   5.470  0.00  0.00    +0.000 A 
ATOM     20  C   UNL     1      46.339   3.440   6.555  0.00  0.00    +0.000 A 
ENDBRANCH  13  14
ENDBRANCH  12  13
ENDBRANCH  11  12
ENDBRANCH   4  11
TORSDOF 6
ENDMDL
MODEL 6
REMARK VINA RESULT:    -5.666      4.666      7.563
REMARK INTER + INTRA:          -8.046
REMARK INTER:                  -7.655
REMARK INTRA:                  -0.391
REMARK UNBOUND:                -0.558
REMARK  Name = 
REMARK  6 active torsions:
REMARK  status: ('A' for Active; 'I' for Inactive)
REMARK    1  A    between atoms: N_1  and  C_2
REMARK    2  A    between atoms: C_2  and  C_3
REMARK    3  A    between atoms: C_6  and  C_7
REMARK    4  A    between atoms: C_7  and  C_8
REMARK    5  A    between atoms: C_8  and  O_9
REMARK    6  A    between atoms: O_9  and  C_10
REMARK                            x       y       z     vdW  Elec       q    Type
REMARK                         _______ _______ _______ _____ _____    ______ ____
ROOT
ATOM      1  C   UNL     1      48.153   4.647  17.802  0.00  0.00    +0.000 A 
ATOM      2  C   UNL     1      48.557   5.629  16.894  0.00  0.00    +0.000 A 
ATOM      3  C   UNL     1      48.113   5.585  15.574  0.00  0.00    +0.000 A 
ATOM      4  C   UNL     1      47.269   4.551  15.182  0.00  0.00    +0.000 A 
ATOM      5  N   UNL     1      46.866   3.582  16.040  0.00  0.00    +0.000 NA
ATOM      6  C   UNL     1      47.308   3.656  17.318  0.00  0.00    +0.000 A 
ENDROOT
BRANCH   1   7
ATOM      7  C   UNL     1      48.644   4.633  19.221  0.00  0.00    +0.000 C 
BRANCH   7   8
ATOM      8  N   UNL     1      48.417   3.344  19.869  0.00  0.00    +0.000 NA
ATOM      9  H   UNL     1      48.128   3.500  20.829  0.00  0.00    +0.000 HD
ATOM     10  H   UNL     1      49.299   2.834  19.912  0.00  0.00    +0.000 HD
ENDBRANCH   7   8
ENDBRANCH   1   7
BRANCH   4  11
ATOM     11  C   UNL     1      46.839   4.410  13.744  0.00  0.00    +0.000 C 
BRANCH  11  12
ATOM     12  C   UNL     1      45.687   5.370  13.453  0.00  0.00    +0.000 C 
BRANCH  12  13
ATOM     13  O   UNL     1      44.643   4.690  12.747  0.00  0.00    +0.000 OA
BRANCH  13  14
ATOM     14  C   UNL     1      44.897   4.462  11.418  0.00  0.00    +0.000 A 
ATOM     15  C   UNL     1      45.425   5.405  10.531  0.00  0.00    +0.000 A 
ATOM     16  C   UNL     1      45.645   5.071   9.191  0.00  0.00    +0.000 A 
ATOM     17  C   UNL     1      45.344   3.790   8.737  0.00  0.00    +0.000 A 
ATOM     18 CL   UNL     1      45.604   3.391   7.083  0.00  0.00    +0.000 Cl
ATOM     19  C   UNL     1      44.838   2.835   9.615  0.00  0.00    +0.000 A 
ATOM     20  C   UNL     1      44.625   3.171  10.957  0.00  0.00    +0.000 A 
ENDBRANCH  13  14
ENDBRANCH  12  13
ENDBRANCH  11  12
ENDBRANCH   4  11
TORSDOF 6
ENDMDL
MODEL 7
REMARK VINA RESULT:    -5.361      4.442      6.482
REMARK INTER + INTRA:          -7.643
REMARK INTER:                  -7.237
REMARK INTRA:                  -0.406
REMARK UNBOUND:                -0.558
REMARK  Name = 
REMARK  6 active torsions:
REMARK  status: ('A' for Active; 'I' for Inactive)
REMARK    1  A    between atoms: N_1  and  C_2
REMARK    2  A    between atoms: C_2  and  C_3
REMARK    3  A    between atoms: C_6  and  C_7
REMARK    4  A    between atoms: C_7  and  C_8
REMARK    5  A    between atoms: C_8  and  O_9
REMARK    6  A    between atoms: O_9  and  C_10
REMARK                            x       y       z     vdW  Elec       q    Type
REMARK                         _______ _______ _______ _____ _____    ______ ____
ROOT
ATOM      1  C   UNL     1      44.294   5.297  11.813  0.00  0.00    +0.000 A 
ATOM      2  C   UNL     1      45.460   6.049  11.976  0.00  0.00    +0.000 A 
ATOM      3  C   UNL     1      46.492   5.571  12.782  0.00  0.00    +0.000 A 
ATOM      4  C   UNL     1      46.337   4.344  13.417  0.00  0.00    +0.000 A 
ATOM      5  N   UNL     1      45.214   3.596  13.282  0.00  0.00    +0.000 NA
ATOM      6  C   UNL     1      44.232   4.082  12.486  0.00  0.00    +0.000 A 
ENDROOT
BRANCH   1   7
ATOM      7  C   UNL     1      43.140   5.794  10.990  0.00  0.00    +0.000 C 
BRANCH   7   8
ATOM      8  N   UNL     1      42.012   6.210  11.818  0.00  0.00    +0.000 NA
ATOM      9  H   UNL     1      41.287   5.501  11.773  0.00  0.00    +0.000 HD
ATOM     10  H   UNL     1      41.609   7.061  11.427  0.00  0.00    +0.000 HD
ENDBRANCH   7   8
ENDBRANCH   1   7
BRANCH   4  11
ATOM     11  C   UNL     1      47.386   3.832  14.371  0.00  0.00    +0.000 C 
BRANCH  11  12
ATOM     12  C   UNL     1      47.025   4.231  15.800  0.00  0.00    +0.000 C 
BRANCH  12  13
ATOM     13  O   UNL     1      47.368   3.178  16.709  0.00  0.00    +0.000 OA
BRANCH  13  14
ATOM     14  C   UNL     1      48.704   3.084  17.007  0.00  0.00    +0.000 A 
ATOM     15  C   UNL     1      49.479   1.931  16.856  0.00  0.00    +0.000 A 
ATOM     16  C   UNL     1      50.836   1.940  17.191  0.00  0.00    +0.000 A 
ATOM     17  C   UNL     1      51.423   3.108  17.672  0.00  0.00    +0.000 A 
ATOM     18 CL   UNL     1      53.091   3.108  18.097  0.00  0.00    +0.000 Cl
ATOM     19  C   UNL     1      50.667   4.269  17.807  0.00  0.00    +0.000 A 
ATOM     20  C   UNL     1      49.310   4.257  17.465  0.00  0.00    +0.000 A 
ENDBRANCH  13  14
ENDBRANCH  12  13
ENDBRANCH  11  12
ENDBRANCH   4  11
TORSDOF 6
ENDMDL
MODEL 8
REMARK VINA RESULT:    -5.296      5.408      7.757
REMARK INTER + INTRA:          -7.557
REMARK INTER:                  -7.212
REMARK INTRA:                  -0.345
REMARK UNBOUND:                -0.558
REMARK  Name = 
REMARK  6 active torsions:
REMARK  status: ('A' for Active; 'I' for Inactive)
REMARK    1  A    between atoms: N_1  and  C_2
REMARK    2  A    between atoms: C_2  and  C_3
REMARK    3  A    between atoms: C_6  and  C_7
REMARK    4  A    between atoms: C_7  and  C_8
REMARK    5  A    between atoms: C_8  and  O_9
REMARK    6  A    between atoms: O_9  and  C_10
REMARK                            x       y       z     vdW  Elec       q    Type
REMARK                         _______ _______ _______ _____ _____    ______ ____
ROOT
ATOM      1  C   UNL     1      51.120   2.581  17.526  0.00  0.00    +0.000 A 
ATOM      2  C   UNL     1      50.957   3.925  17.871  0.00  0.00    +0.000 A 
ATOM      3  C   UNL     1      49.767   4.585  17.567  0.00  0.00    +0.000 A 
ATOM      4  C   UNL     1      48.757   3.885  16.916  0.00  0.00    +0.000 A 
ATOM      5  N   UNL     1      48.890   2.582  16.565  0.00  0.00    +0.000 NA
ATOM      6  C   UNL     1      50.054   1.966  16.880  0.00  0.00    +0.000 A 
ENDROOT
BRANCH   1   7
ATOM      7  C   UNL     1      52.401   1.845  17.795  0.00  0.00    +0.000 C 
BRANCH   7   8
ATOM      8  N   UNL     1      52.375   0.484  17.268  0.00  0.00    +0.000 NA
ATOM      9  H   UNL     1      52.538  -0.171  18.027  0.00  0.00    +0.000 HD
ATOM     10  H   UNL     1      53.149   0.366  16.615  0.00  0.00    +0.000 HD
ENDBRANCH   7   8
ENDBRANCH   1   7
BRANCH   4  11
ATOM     11  C   UNL     1      47.492   4.582  16.485  0.00  0.00    +0.000 C 
BRANCH  11  12
ATOM     12  C   UNL     1      47.163   4.210  15.041  0.00  0.00    +0.000 C 
BRANCH  12  13
ATOM     13  O   UNL     1      46.998   5.394  14.251  0.00  0.00    +0.000 OA
BRANCH  13  14
ATOM     14  C   UNL     1      46.375   5.201  13.044  0.00  0.00    +0.000 A 
ATOM     15  C   UNL     1      46.407   6.100  11.974  0.00  0.00    +0.000 A 
ATOM     16  C   UNL     1      45.736   5.807  10.783  0.00  0.00    +0.000 A 
ATOM     17  C   UNL     1      45.038   4.609  10.657  0.00  0.00    +0.000 A 
ATOM     18 CL   UNL     1      44.201   4.263   9.192  0.00  0.00    +0.000 Cl
ATOM     19  C   UNL     1      45.016   3.696  11.707  0.00  0.00    +0.000 A 
ATOM     20  C   UNL     1      45.694   3.989  12.896  0.00  0.00    +0.000 A 
ENDBRANCH  13  14
ENDBRANCH  12  13
ENDBRANCH  11  12
ENDBRANCH   4  11
TORSDOF 6
ENDMDL
MODEL 9
REMARK VINA RESULT:    -5.269      4.217      5.791
REMARK INTER + INTRA:          -7.521
REMARK INTER:                  -7.064
REMARK INTRA:                  -0.457
REMARK UNBOUND:                -0.558
REMARK  Name = 
REMARK  6 active torsions:
REMARK  status: ('A' for Active; 'I' for Inactive)
REMARK    1  A    between atoms: N_1  and  C_2
REMARK    2  A    between atoms: C_2  and  C_3
REMARK    3  A    between atoms: C_6  and  C_7
REMARK    4  A    between atoms: C_7  and  C_8
REMARK    5  A    between atoms: C_8  and  O_9
REMARK    6  A    between atoms: O_9  and  C_10
REMARK                            x       y       z     vdW  Elec       q    Type
REMARK                         _______ _______ _______ _____ _____    ______ ____
ROOT
ATOM      1  C   UNL     1      44.985   4.535  11.192  0.00  0.00    +0.000 A 
ATOM      2  C   UNL     1      45.657   5.735  11.431  0.00  0.00    +0.000 A 
ATOM      3  C   UNL     1      46.421   5.891  12.587  0.00  0.00    +0.000 A 
ATOM      4  C   UNL     1      46.495   4.837  13.491  0.00  0.00    +0.000 A 
ATOM      5  N   UNL     1      45.849   3.663  13.288  0.00  0.00    +0.000 NA
ATOM      6  C   UNL     1      45.121   3.538  12.152  0.00  0.00    +0.000 A 
ENDROOT
BRANCH   1   7
ATOM      7  C   UNL     1      44.116   4.341   9.982  0.00  0.00    +0.000 C 
BRANCH   7   8
ATOM      8  N   UNL     1      44.803   4.711   8.748  0.00  0.00    +0.000 NA
ATOM      9  H   UNL     1      44.202   5.321   8.203  0.00  0.00    +0.000 HD
ATOM     10  H   UNL     1      44.949   3.872   8.186  0.00  0.00    +0.000 HD
ENDBRANCH   7   8
ENDBRANCH   1   7
BRANCH   4  11
ATOM     11  C   UNL     1      47.232   4.993  14.797  0.00  0.00    +0.000 C 
BRANCH  11  12
ATOM     12  C   UNL     1      47.321   3.643  15.504  0.00  0.00    +0.000 C 
BRANCH  12  13
ATOM     13  O   UNL     1      46.647   3.701  16.767  0.00  0.00    +0.000 OA
BRANCH  13  14
ATOM     14  C   UNL     1      47.360   4.300  17.776  0.00  0.00    +0.000 A 
ATOM     15  C   UNL     1      46.920   5.393  18.527  0.00  0.00    +0.000 A 
ATOM     16  C   UNL     1      47.727   5.931  19.535  0.00  0.00    +0.000 A 
ATOM     17  C   UNL     1      48.973   5.370  19.798  0.00  0.00    +0.000 A 
ATOM     18 CL   UNL     1      49.967   6.047  21.031  0.00  0.00    +0.000 Cl
ATOM     19  C   UNL     1      49.414   4.267  19.072  0.00  0.00    +0.000 A 
ATOM     20  C   UNL     1      48.602   3.728  18.068  0.00  0.00    +0.000 A 
ENDBRANCH  13  14
ENDBRANCH  12  13
ENDBRANCH  11  12
ENDBRANCH   4  11
TORSDOF 6
ENDMDL
