MODEL 1
REMARK VINA RESULT:    -8.453      0.000      0.000
REMARK INTER + INTRA:         -10.667
REMARK INTER:                 -10.430
REMARK INTRA:                  -0.237
REMARK UNBOUND:                -0.237
REMARK  Name = 
REMARK  4 active torsions:
REMARK  status: ('A' for Active; 'I' for Inactive)
REMARK    1  A    between atoms: C_2  and  C_4
REMARK    2  A    between atoms: C_8  and  C_9
REMARK    3  A    between atoms: C_9  and  N_10
REMARK    4  A    between atoms: C_15  and  C_16
REMARK                            x       y       z     vdW  Elec       q    Type
REMARK                         _______ _______ _______ _____ _____    ______ ____
ROOT
ATOM      1  N   UNL     1      45.015   2.804  12.114  0.00  0.00    +0.000 N 
ATOM      2  C   UNL     1      45.719   3.890  12.617  0.00  0.00    +0.000 A 
ATOM      3  N   UNL     1      45.726   5.047  11.944  0.00  0.00    +0.000 NA
ATOM      4  C   UNL     1      46.364   6.079  12.517  0.00  0.00    +0.000 A 
ATOM      5  C   UNL     1      46.979   6.001  13.740  0.00  0.00    +0.000 A 
ATOM      6  C   UNL     1      46.944   4.768  14.363  0.00  0.00    +0.000 A 
ATOM      7  N   UNL     1      46.340   3.705  13.786  0.00  0.00    +0.000 NA
ATOM      8  H   UNL     1      45.707   2.126  11.810  0.00  0.00    +0.000 HD
ENDROOT
BRANCH   6   9
ATOM      9  C   UNL     1      47.544   4.531  15.693  0.00  0.00    +0.000 A 
ATOM     10  C   UNL     1      48.324   5.520  16.324  0.00  0.00    +0.000 A 
ATOM     11  C   UNL     1      48.897   5.303  17.582  0.00  0.00    +0.000 A 
ATOM     12  C   UNL     1      48.703   4.092  18.238  0.00  0.00    +0.000 A 
ATOM     13  C   UNL     1      47.937   3.097  17.638  0.00  0.00    +0.000 A 
ATOM     14  C   UNL     1      47.366   3.316  16.381  0.00  0.00    +0.000 A 
ENDBRANCH   6   9
BRANCH   1  15
ATOM     15  C   UNL     1      44.031   3.142  11.109  0.00  0.00    +0.000 C 
BRANCH  15  20
ATOM     16  C   UNL     1      46.093   2.082   8.085  0.00  0.00    +0.000 A 
ATOM     17  C   UNL     1      45.956   3.230   7.321  0.00  0.00    +0.000 A 
ATOM     18  N   UNL     1      45.202   4.294   7.694  0.00  0.00    +0.000 NA
ATOM     19  C   UNL     1      44.581   4.208   8.894  0.00  0.00    +0.000 A 
ATOM     20  C   UNL     1      44.675   3.107   9.750  0.00  0.00    +0.000 A 
ATOM     21  C   UNL     1      45.456   2.023   9.326  0.00  0.00    +0.000 A 
BRANCH  16  23
ATOM     22  N   UNL     1      47.985   1.331   6.761  0.00  0.00    +0.000 N 
ATOM     23  C   UNL     1      46.937   0.984   7.569  0.00  0.00    +0.000 C 
ATOM     24  O   UNL     1      46.729  -0.183   7.873  0.00  0.00    +0.000 OA
ATOM     25  H   UNL     1      48.620   0.577   6.518  0.00  0.00    +0.000 HD
ATOM     26  H   UNL     1      48.348   2.274   6.717  0.00  0.00    +0.000 HD
ENDBRANCH  16  23
ENDBRANCH  15  20
ENDBRANCH   1  15
TORSDOF 4
ENDMDL
MODEL 2
REMARK VINA RESULT:    -8.149      2.458      3.504
REMARK INTER + INTRA:         -10.292
REMARK INTER:                  -9.673
REMARK INTRA:                  -0.619
REMARK UNBOUND:                -0.237
REMARK  Name = 
REMARK  4 active torsions:
REMARK  status: ('A' for Active; 'I' for Inactive)
REMARK    1  A    between atoms: C_2  and  C_4
REMARK    2  A    between atoms: C_8  and  C_9
REMARK    3  A    between atoms: C_9  and  N_10
REMARK    4  A    between atoms: C_15  and  C_16
REMARK                            x       y       z     vdW  Elec       q    Type
REMARK                         _______ _______ _______ _____ _____    ______ ____
ROOT
ATOM      1  N   UNL     1      45.088   5.590   9.701  0.00  0.00    +0.000 N 
ATOM      2  C   UNL     1      45.462   5.545  11.037  0.00  0.00    +0.000 A 
ATOM      3  N   UNL     1      44.764   4.796  11.899  0.00  0.00    +0.000 NA
ATOM      4  C   UNL     1      45.217   4.737  13.160  0.00  0.00    +0.000 A 
ATOM      5  C   UNL     1      46.348   5.385  13.585  0.00  0.00    +0.000 A 
ATOM      6  C   UNL     1      47.003   6.154  12.643  0.00  0.00    +0.000 A 
ATOM      7  N   UNL     1      46.541   6.257  11.376  0.00  0.00    +0.000 NA
ATOM      8  H   UNL     1      44.711   6.518   9.537  0.00  0.00    +0.000 HD
ENDROOT
BRANCH   6   9
ATOM      9  C   UNL     1      48.245   6.895  12.943  0.00  0.00    +0.000 A 
ATOM     10  C   UNL     1      48.774   6.927  14.248  0.00  0.00    +0.000 A 
ATOM     11  C   UNL     1      49.949   7.628  14.543  0.00  0.00    +0.000 A 
ATOM     12  C   UNL     1      50.623   8.313  13.536  0.00  0.00    +0.000 A 
ATOM     13  C   UNL     1      50.124   8.299  12.238  0.00  0.00    +0.000 A 
ATOM     14  C   UNL     1      48.949   7.598  11.947  0.00  0.00    +0.000 A 
ENDBRANCH   6   9
BRANCH   1  15
ATOM     15  C   UNL     1      44.216   4.512   9.287  0.00  0.00    +0.000 C 
BRANCH  15  20
ATOM     16  C   UNL     1      46.605   2.479   7.122  0.00  0.00    +0.000 A 
ATOM     17  C   UNL     1      46.372   1.226   7.668  0.00  0.00    +0.000 A 
ATOM     18  N   UNL     1      45.540   1.007   8.717  0.00  0.00    +0.000 NA
ATOM     19  C   UNL     1      44.900   2.088   9.221  0.00  0.00    +0.000 A 
ATOM     20  C   UNL     1      45.046   3.388   8.728  0.00  0.00    +0.000 A 
ATOM     21  C   UNL     1      45.921   3.576   7.649  0.00  0.00    +0.000 A 
BRANCH  16  23
ATOM     22  N   UNL     1      48.876   2.552   6.269  0.00  0.00    +0.000 N 
ATOM     23  C   UNL     1      47.539   2.594   5.984  0.00  0.00    +0.000 C 
ATOM     24  O   UNL     1      47.140   2.692   4.832  0.00  0.00    +0.000 OA
ATOM     25  H   UNL     1      49.496   2.509   5.466  0.00  0.00    +0.000 HD
ATOM     26  H   UNL     1      49.234   2.199   7.148  0.00  0.00    +0.000 HD
ENDBRANCH  16  23
ENDBRANCH  15  20
ENDBRANCH   1  15
TORSDOF 4
ENDMDL
MODEL 3
REMARK VINA RESULT:    -8.003      3.187      7.672
REMARK INTER + INTRA:         -10.111
REMARK INTER:                  -9.708
REMARK INTRA:                  -0.403
REMARK UNBOUND:                -0.237
REMARK  Name = 
REMARK  4 active torsions:
REMARK  status: ('A' for Active; 'I' for Inactive)
REMARK    1  A    between atoms: C_2  and  C_4
REMARK    2  A    between atoms: C_8  and  C_9
REMARK    3  A    between atoms: C_9  and  N_10
REMARK    4  A    between atoms: C_15  and  C_16
REMARK                            x       y       z     vdW  Elec       q    Type
REMARK                         _______ _______ _______ _____ _____    ______ ____
ROOT
ATOM      1  N   UNL     1      45.140   2.983  12.340  0.00  0.00    +0.000 N 
ATOM      2  C   UNL     1      44.819   3.379  11.049  0.00  0.00    +0.000 A 
ATOM      3  N   UNL     1      43.916   4.347  10.855  0.00  0.00    +0.000 NA
ATOM      4  C   UNL     1      43.701   4.734   9.588  0.00  0.00    +0.000 A 
ATOM      5  C   UNL     1      44.365   4.201   8.515  0.00  0.00    +0.000 A 
ATOM      6  C   UNL     1      45.268   3.192   8.793  0.00  0.00    +0.000 A 
ATOM      7  N   UNL     1      45.471   2.761  10.059  0.00  0.00    +0.000 NA
ATOM      8  H   UNL     1      44.752   2.053  12.463  0.00  0.00    +0.000 HD
ENDROOT
BRANCH   6   9
ATOM      9  C   UNL     1      46.074   2.532   7.745  0.00  0.00    +0.000 A 
ATOM     10  C   UNL     1      46.438   3.218   6.570  0.00  0.00    +0.000 A 
ATOM     11  C   UNL     1      47.199   2.601   5.571  0.00  0.00    +0.000 A 
ATOM     12  C   UNL     1      47.617   1.283   5.727  0.00  0.00    +0.000 A 
ATOM     13  C   UNL     1      47.274   0.582   6.879  0.00  0.00    +0.000 A 
ATOM     14  C   UNL     1      46.511   1.200   7.874  0.00  0.00    +0.000 A 
ENDBRANCH   6   9
BRANCH   1  15
ATOM     15  C   UNL     1      44.760   3.928  13.367  0.00  0.00    +0.000 C 
BRANCH  15  20
ATOM     16  C   UNL     1      46.501   7.302  13.036  0.00  0.00    +0.000 A 
ATOM     17  C   UNL     1      47.778   6.921  13.419  0.00  0.00    +0.000 A 
ATOM     18  N   UNL     1      48.096   5.667  13.825  0.00  0.00    +0.000 NA
ATOM     19  C   UNL     1      47.096   4.755  13.824  0.00  0.00    +0.000 A 
ATOM     20  C   UNL     1      45.783   5.030  13.433  0.00  0.00    +0.000 A 
ATOM     21  C   UNL     1      45.490   6.339  13.027  0.00  0.00    +0.000 A 
BRANCH  16  23
ATOM     22  N   UNL     1      45.048   9.241  12.892  0.00  0.00    +0.000 N 
ATOM     23  C   UNL     1      46.274   8.701  12.619  0.00  0.00    +0.000 C 
ATOM     24  O   UNL     1      47.152   9.361  12.079  0.00  0.00    +0.000 OA
ATOM     25  H   UNL     1      44.955  10.235  12.709  0.00  0.00    +0.000 HD
ATOM     26  H   UNL     1      44.413   8.835  13.568  0.00  0.00    +0.000 HD
ENDBRANCH  16  23
ENDBRANCH  15  20
ENDBRANCH   1  15
TORSDOF 4
ENDMDL
MODEL 4
REMARK VINA RESULT:    -7.767      2.551      4.622
REMARK INTER + INTRA:          -9.820
REMARK INTER:                  -9.503
REMARK INTRA:                  -0.317
REMARK UNBOUND:                -0.237
REMARK  Name = 
REMARK  4 active torsions:
REMARK  status: ('A' for Active; 'I' for Inactive)
REMARK    1  A    between atoms: C_2  and  C_4
REMARK    2  A    between atoms: C_8  and  C_9
REMARK    3  A    between atoms: C_9  and  N_10
REMARK    4  A    between atoms: C_15  and  C_16
REMARK                            x       y       z     vdW  Elec       q    Type
REMARK                         _______ _______ _______ _____ _____    ______ ____
ROOT
ATOM      1  N   UNL     1      43.622   4.753  10.928  0.00  0.00    +0.000 N 
ATOM      2  C   UNL     1      44.588   5.438  11.651  0.00  0.00    +0.000 A 
ATOM      3  N   UNL     1      45.494   4.757  12.365  0.00  0.00    +0.000 NA
ATOM      4  C   UNL     1      46.444   5.473  12.984  0.00  0.00    +0.000 A 
ATOM      5  C   UNL     1      46.531   6.839  12.904  0.00  0.00    +0.000 A 
ATOM      6  C   UNL     1      45.550   7.472  12.166  0.00  0.00    +0.000 A 
ATOM      7  N   UNL     1      44.561   6.772  11.565  0.00  0.00    +0.000 NA
ATOM      8  H   UNL     1      42.738   4.914  11.400  0.00  0.00    +0.000 HD
ENDROOT
BRANCH   6   9
ATOM      9  C   UNL     1      45.519   8.936  11.970  0.00  0.00    +0.000 A 
ATOM     10  C   UNL     1      46.677   9.717  12.154  0.00  0.00    +0.000 A 
ATOM     11  C   UNL     1      46.657  11.105  11.973  0.00  0.00    +0.000 A 
ATOM     12  C   UNL     1      45.478  11.743  11.602  0.00  0.00    +0.000 A 
ATOM     13  C   UNL     1      44.319  10.996  11.413  0.00  0.00    +0.000 A 
ATOM     14  C   UNL     1      44.341   9.610  11.596  0.00  0.00    +0.000 A 
ENDBRANCH   6   9
BRANCH   1  15
ATOM     15  C   UNL     1      43.927   3.358  10.695  0.00  0.00    +0.000 C 
BRANCH  15  20
ATOM     16  C   UNL     1      46.219   2.010   7.965  0.00  0.00    +0.000 A 
ATOM     17  C   UNL     1      46.357   3.166   7.213  0.00  0.00    +0.000 A 
ATOM     18  N   UNL     1      45.718   4.328   7.500  0.00  0.00    +0.000 NA
ATOM     19  C   UNL     1      44.929   4.333   8.599  0.00  0.00    +0.000 A 
ATOM     20  C   UNL     1      44.743   3.230   9.437  0.00  0.00    +0.000 A 
ATOM     21  C   UNL     1      45.412   2.045   9.104  0.00  0.00    +0.000 A 
BRANCH  16  23
ATOM     22  N   UNL     1      48.035   0.984   6.723  0.00  0.00    +0.000 N 
ATOM     23  C   UNL     1      46.961   0.802   7.549  0.00  0.00    +0.000 C 
ATOM     24  O   UNL     1      46.649  -0.312   7.948  0.00  0.00    +0.000 OA
ATOM     25  H   UNL     1      48.600   0.159   6.549  0.00  0.00    +0.000 HD
ATOM     26  H   UNL     1      48.482   1.884   6.602  0.00  0.00    +0.000 HD
ENDBRANCH  16  23
ENDBRANCH  15  20
ENDBRANCH   1  15
TORSDOF 4
ENDMDL
MODEL 5
REMARK VINA RESULT:    -7.527      4.921      8.630
REMARK INTER + INTRA:          -9.525
REMARK INTER:                  -9.087
REMARK INTRA:                  -0.438
REMARK UNBOUND:                -0.237
REMARK  Name = 
REMARK  4 active torsions:
REMARK  status: ('A' for Active; 'I' for Inactive)
REMARK    1  A    between atoms: C_2  and  C_4
REMARK    2  A    between atoms: C_8  and  C_9
REMARK    3  A    between atoms: C_9  and  N_10
REMARK    4  A    between atoms: C_15  and  C_16
REMARK                            x       y       z     vdW  Elec       q    Type
REMARK                         _______ _______ _______ _____ _____    ______ ____
ROOT
ATOM      1  N   UNL     1      45.360   6.333  10.579  0.00  0.00    +0.000 N 
ATOM      2  C   UNL     1      45.066   5.001  10.323  0.00  0.00    +0.000 A 
ATOM      3  N   UNL     1      44.145   4.369  11.061  0.00  0.00    +0.000 NA
ATOM      4  C   UNL     1      43.854   3.105  10.718  0.00  0.00    +0.000 A 
ATOM      5  C   UNL     1      44.436   2.457   9.659  0.00  0.00    +0.000 A 
ATOM      6  C   UNL     1      45.391   3.169   8.958  0.00  0.00    +0.000 A 
ATOM      7  N   UNL     1      45.726   4.431   9.310  0.00  0.00    +0.000 NA
ATOM      8  H   UNL     1      46.292   6.351  10.981  0.00  0.00    +0.000 HD
ENDROOT
BRANCH   6   9
ATOM      9  C   UNL     1      46.093   2.615   7.781  0.00  0.00    +0.000 A 
ATOM     10  C   UNL     1      46.594   1.299   7.788  0.00  0.00    +0.000 A 
ATOM     11  C   UNL     1      47.261   0.766   6.679  0.00  0.00    +0.000 A 
ATOM     12  C   UNL     1      47.441   1.539   5.536  0.00  0.00    +0.000 A 
ATOM     13  C   UNL     1      46.955   2.843   5.501  0.00  0.00    +0.000 A 
ATOM     14  C   UNL     1      46.290   3.373   6.611  0.00  0.00    +0.000 A 
ENDBRANCH   6   9
BRANCH   1  15
ATOM     15  C   UNL     1      44.361   7.026  11.362  0.00  0.00    +0.000 C 
BRANCH  15  20
ATOM     16  C   UNL     1      44.481  10.834  11.263  0.00  0.00    +0.000 A 
ATOM     17  C   UNL     1      45.746  11.021  11.800  0.00  0.00    +0.000 A 
ATOM     18  N   UNL     1      46.532  10.006  12.237  0.00  0.00    +0.000 NA
ATOM     19  C   UNL     1      46.037   8.753  12.108  0.00  0.00    +0.000 A 
ATOM     20  C   UNL     1      44.786   8.457  11.558  0.00  0.00    +0.000 A 
ATOM     21  C   UNL     1      43.998   9.532  11.126  0.00  0.00    +0.000 A 
BRANCH  16  23
ATOM     22  N   UNL     1      42.976  12.668  11.780  0.00  0.00    +0.000 N 
ATOM     23  C   UNL     1      43.714  12.020  10.828  0.00  0.00    +0.000 C 
ATOM     24  O   UNL     1      43.758  12.424   9.674  0.00  0.00    +0.000 OA
ATOM     25  H   UNL     1      42.557  13.545  11.488  0.00  0.00    +0.000 HD
ATOM     26  H   UNL     1      43.132  12.537  12.771  0.00  0.00    +0.000 HD
ENDBRANCH  16  23
ENDBRANCH  15  20
ENDBRANCH   1  15
TORSDOF 4
ENDMDL
MODEL 6
REMARK VINA RESULT:    -7.410      2.523      4.703
REMARK INTER + INTRA:          -9.380
REMARK INTER:                  -8.920
REMARK INTRA:                  -0.460
REMARK UNBOUND:                -0.237
REMARK  Name = 
REMARK  4 active torsions:
REMARK  status: ('A' for Active; 'I' for Inactive)
REMARK    1  A    between atoms: C_2  and  C_4
REMARK    2  A    between atoms: C_8  and  C_9
REMARK    3  A    between atoms: C_9  and  N_10
REMARK    4  A    between atoms: C_15  and  C_16
REMARK                            x       y       z     vdW  Elec       q    Type
REMARK                         _______ _______ _______ _____ _____    ______ ____
ROOT
ATOM      1  N   UNL     1      46.587   4.286  15.461  0.00  0.00    +0.000 N 
ATOM      2  C   UNL     1      47.482   3.906  16.451  0.00  0.00    +0.000 A 
ATOM      3  N   UNL     1      48.388   2.953  16.200  0.00  0.00    +0.000 NA
ATOM      4  C   UNL     1      49.270   2.680  17.173  0.00  0.00    +0.000 A 
ATOM      5  C   UNL     1      49.290   3.335  18.377  0.00  0.00    +0.000 A 
ATOM      6  C   UNL     1      48.312   4.291  18.569  0.00  0.00    +0.000 A 
ATOM      7  N   UNL     1      47.389   4.554  17.616  0.00  0.00    +0.000 NA
ATOM      8  H   UNL     1      45.675   3.945  15.748  0.00  0.00    +0.000 HD
ENDROOT
BRANCH   6   9
ATOM      9  C   UNL     1      48.214   5.094  19.806  0.00  0.00    +0.000 A 
ATOM     10  C   UNL     1      48.802   4.652  21.007  0.00  0.00    +0.000 A 
ATOM     11  C   UNL     1      48.714   5.404  22.184  0.00  0.00    +0.000 A 
ATOM     12  C   UNL     1      48.035   6.618  22.185  0.00  0.00    +0.000 A 
ATOM     13  C   UNL     1      47.444   7.080  21.013  0.00  0.00    +0.000 A 
ATOM     14  C   UNL     1      47.533   6.326  19.839  0.00  0.00    +0.000 A 
ENDBRANCH   6   9
BRANCH   1  15
ATOM     15  C   UNL     1      46.974   3.895  14.123  0.00  0.00    +0.000 C 
BRANCH  15  20
ATOM     16  C   UNL     1      44.680   4.325  11.109  0.00  0.00    +0.000 A 
ATOM     17  C   UNL     1      44.340   5.657  11.290  0.00  0.00    +0.000 A 
ATOM     18  N   UNL     1      44.758   6.402  12.343  0.00  0.00    +0.000 NA
ATOM     19  C   UNL     1      45.569   5.790  13.238  0.00  0.00    +0.000 A 
ATOM     20  C   UNL     1      45.990   4.461  13.134  0.00  0.00    +0.000 A 
ATOM     21  C   UNL     1      45.531   3.720  12.037  0.00  0.00    +0.000 A 
BRANCH  16  23
ATOM     22  N   UNL     1      44.006   4.343   8.778  0.00  0.00    +0.000 N 
ATOM     23  C   UNL     1      44.157   3.614   9.925  0.00  0.00    +0.000 C 
ATOM     24  O   UNL     1      43.897   2.419   9.955  0.00  0.00    +0.000 OA
ATOM     25  H   UNL     1      43.762   3.811   7.948  0.00  0.00    +0.000 HD
ATOM     26  H   UNL     1      44.460   5.237   8.637  0.00  0.00    +0.000 HD
ENDBRANCH  16  23
ENDBRANCH  15  20
ENDBRANCH   1  15
TORSDOF 4
ENDMDL
MODEL 7
REMARK VINA RESULT:    -7.318      4.923      8.328
REMARK INTER + INTRA:          -9.267
REMARK INTER:                  -8.817
REMARK INTRA:                  -0.450
REMARK UNBOUND:                -0.237
REMARK  Name = 
REMARK  4 active torsions:
REMARK  status: ('A' for Active; 'I' for Inactive)
REMARK    1  A    between atoms: C_2  and  C_4
REMARK    2  A    between atoms: C_8  and  C_9
REMARK    3  A    between atoms: C_9  and  N_10
REMARK    4  A    between atoms: C_15  and  C_16
REMARK                            x       y       z     vdW  Elec       q    Type
REMARK                         _______ _______ _______ _____ _____    ______ ____
ROOT
ATOM      1  N   UNL     1      45.411   6.385  10.674  0.00  0.00    +0.000 N 
ATOM      2  C   UNL     1      45.055   5.070  10.410  0.00  0.00    +0.000 A 
ATOM      3  N   UNL     1      44.086   4.486  11.125  0.00  0.00    +0.000 NA
ATOM      4  C   UNL     1      43.739   3.239  10.776  0.00  0.00    +0.000 A 
ATOM      5  C   UNL     1      44.313   2.561   9.731  0.00  0.00    +0.000 A 
ATOM      6  C   UNL     1      45.319   3.222   9.053  0.00  0.00    +0.000 A 
ATOM      7  N   UNL     1      45.710   4.466   9.413  0.00  0.00    +0.000 NA
ATOM      8  H   UNL     1      46.333   6.356  11.097  0.00  0.00    +0.000 HD
ENDROOT
BRANCH   6   9
ATOM      9  C   UNL     1      46.019   2.632   7.893  0.00  0.00    +0.000 A 
ATOM     10  C   UNL     1      46.202   3.366   6.705  0.00  0.00    +0.000 A 
ATOM     11  C   UNL     1      46.862   2.816   5.601  0.00  0.00    +0.000 A 
ATOM     12  C   UNL     1      47.357   1.517   5.662  0.00  0.00    +0.000 A 
ATOM     13  C   UNL     1      47.192   0.769   6.823  0.00  0.00    +0.000 A 
ATOM     14  C   UNL     1      46.531   1.321   7.924  0.00  0.00    +0.000 A 
ENDBRANCH   6   9
BRANCH   1  15
ATOM     15  C   UNL     1      44.430   7.130  11.432  0.00  0.00    +0.000 C 
BRANCH  15  20
ATOM     16  C   UNL     1      46.348  10.380  11.961  0.00  0.00    +0.000 A 
ATOM     17  C   UNL     1      45.346  11.276  11.623  0.00  0.00    +0.000 A 
ATOM     18  N   UNL     1      44.118  10.899  11.188  0.00  0.00    +0.000 NA
ATOM     19  C   UNL     1      43.882   9.569  11.112  0.00  0.00    +0.000 A 
ATOM     20  C   UNL     1      44.815   8.585  11.452  0.00  0.00    +0.000 A 
ATOM     21  C   UNL     1      46.076   9.013  11.889  0.00  0.00    +0.000 A 
BRANCH  16  23
ATOM     22  N   UNL     1      48.046  10.587  13.683  0.00  0.00    +0.000 N 
ATOM     23  C   UNL     1      47.650  10.912  12.415  0.00  0.00    +0.000 C 
ATOM     24  O   UNL     1      48.359  11.588  11.683  0.00  0.00    +0.000 OA
ATOM     25  H   UNL     1      48.993  10.859  13.931  0.00  0.00    +0.000 HD
ATOM     26  H   UNL     1      47.634   9.823  14.203  0.00  0.00    +0.000 HD
ENDBRANCH  16  23
ENDBRANCH  15  20
ENDBRANCH   1  15
TORSDOF 4
ENDMDL
MODEL 8
REMARK VINA RESULT:    -7.273      3.394      5.256
REMARK INTER + INTRA:          -9.210
REMARK INTER:                  -8.745
REMARK INTRA:                  -0.465
REMARK UNBOUND:                -0.237
REMARK  Name = 
REMARK  4 active torsions:
REMARK  status: ('A' for Active; 'I' for Inactive)
REMARK    1  A    between atoms: C_2  and  C_4
REMARK    2  A    between atoms: C_8  and  C_9
REMARK    3  A    between atoms: C_9  and  N_10
REMARK    4  A    between atoms: C_15  and  C_16
REMARK                            x       y       z     vdW  Elec       q    Type
REMARK                         _______ _______ _______ _____ _____    ______ ____
ROOT
ATOM      1  N   UNL     1      46.572   4.389  15.026  0.00  0.00    +0.000 N 
ATOM      2  C   UNL     1      47.387   3.881  16.028  0.00  0.00    +0.000 A 
ATOM      3  N   UNL     1      48.167   2.822  15.779  0.00  0.00    +0.000 NA
ATOM      4  C   UNL     1      48.984   2.422  16.765  0.00  0.00    +0.000 A 
ATOM      5  C   UNL     1      49.059   3.049  17.982  0.00  0.00    +0.000 A 
ATOM      6  C   UNL     1      48.209   4.122  18.171  0.00  0.00    +0.000 A 
ATOM      7  N   UNL     1      47.351   4.517  17.203  0.00  0.00    +0.000 NA
ATOM      8  H   UNL     1      45.617   4.165  15.288  0.00  0.00    +0.000 HD
ENDROOT
BRANCH   6   9
ATOM      9  C   UNL     1      48.186   4.911  19.420  0.00  0.00    +0.000 A 
ATOM     10  C   UNL     1      48.854   4.460  20.575  0.00  0.00    +0.000 A 
ATOM     11  C   UNL     1      48.837   5.199  21.764  0.00  0.00    +0.000 A 
ATOM     12  C   UNL     1      48.152   6.409  21.822  0.00  0.00    +0.000 A 
ATOM     13  C   UNL     1      47.484   6.879  20.696  0.00  0.00    +0.000 A 
ATOM     14  C   UNL     1      47.502   6.138  19.511  0.00  0.00    +0.000 A 
ENDBRANCH   6   9
BRANCH   1  15
ATOM     15  C   UNL     1      46.936   3.972  13.690  0.00  0.00    +0.000 C 
BRANCH  15  20
ATOM     16  C   UNL     1      44.505   6.089  11.657  0.00  0.00    +0.000 A 
ATOM     17  C   UNL     1      43.765   5.069  11.081  0.00  0.00    +0.000 A 
ATOM     18  N   UNL     1      44.033   3.752  11.264  0.00  0.00    +0.000 NA
ATOM     19  C   UNL     1      45.072   3.450  12.076  0.00  0.00    +0.000 A 
ATOM     20  C   UNL     1      45.865   4.402  12.724  0.00  0.00    +0.000 A 
ATOM     21  C   UNL     1      45.563   5.753  12.504  0.00  0.00    +0.000 A 
BRANCH  16  23
ATOM     22  N   UNL     1      42.821   7.718  11.021  0.00  0.00    +0.000 N 
ATOM     23  C   UNL     1      44.121   7.489  11.378  0.00  0.00    +0.000 C 
ATOM     24  O   UNL     1      44.921   8.408  11.488  0.00  0.00    +0.000 OA
ATOM     25  H   UNL     1      42.550   8.694  10.953  0.00  0.00    +0.000 HD
ATOM     26  H   UNL     1      42.084   7.044  11.188  0.00  0.00    +0.000 HD
ENDBRANCH  16  23
ENDBRANCH  15  20
ENDBRANCH   1  15
TORSDOF 4
ENDMDL
MODEL 9
REMARK VINA RESULT:    -7.164      4.651      7.906
REMARK INTER + INTRA:          -9.076
REMARK INTER:                  -8.455
REMARK INTRA:                  -0.621
REMARK UNBOUND:                -0.237
REMARK  Name = 
REMARK  4 active torsions:
REMARK  status: ('A' for Active; 'I' for Inactive)
REMARK    1  A    between atoms: C_2  and  C_4
REMARK    2  A    between atoms: C_8  and  C_9
REMARK    3  A    between atoms: C_9  and  N_10
REMARK    4  A    between atoms: C_15  and  C_16
REMARK                            x       y       z     vdW  Elec       q    Type
REMARK                         _______ _______ _______ _____ _____    ______ ____
ROOT
ATOM      1  N   UNL     1      46.017   7.236  12.205  0.00  0.00    +0.000 N 
ATOM      2  C   UNL     1      45.190   6.215  11.757  0.00  0.00    +0.000 A 
ATOM      3  N   UNL     1      43.955   6.090  12.258  0.00  0.00    +0.000 NA
ATOM      4  C   UNL     1      43.180   5.129  11.734  0.00  0.00    +0.000 A 
ATOM      5  C   UNL     1      43.588   4.302  10.719  0.00  0.00    +0.000 A 
ATOM      6  C   UNL     1      44.882   4.479  10.268  0.00  0.00    +0.000 A 
ATOM      7  N   UNL     1      45.693   5.417  10.810  0.00  0.00    +0.000 NA
ATOM      8  H   UNL     1      46.749   6.796  12.754  0.00  0.00    +0.000 HD
ENDROOT
BRANCH   6   9
ATOM      9  C   UNL     1      45.460   3.679   9.168  0.00  0.00    +0.000 A 
ATOM     10  C   UNL     1      45.425   2.271   9.199  0.00  0.00    +0.000 A 
ATOM     11  C   UNL     1      45.971   1.505   8.163  0.00  0.00    +0.000 A 
ATOM     12  C   UNL     1      46.563   2.131   7.071  0.00  0.00    +0.000 A 
ATOM     13  C   UNL     1      46.611   3.520   7.014  0.00  0.00    +0.000 A 
ATOM     14  C   UNL     1      46.066   4.283   8.050  0.00  0.00    +0.000 A 
ENDBRANCH   6   9
BRANCH   1  15
ATOM     15  C   UNL     1      45.327   8.310  12.886  0.00  0.00    +0.000 C 
BRANCH  15  20
ATOM     16  C   UNL     1      44.035  10.620  10.144  0.00  0.00    +0.000 A 
ATOM     17  C   UNL     1      45.067  11.546  10.143  0.00  0.00    +0.000 A 
ATOM     18  N   UNL     1      46.116  11.501  11.001  0.00  0.00    +0.000 NA
ATOM     19  C   UNL     1      46.140  10.471  11.879  0.00  0.00    +0.000 A 
ATOM     20  C   UNL     1      45.164   9.473  11.945  0.00  0.00    +0.000 A 
ATOM     21  C   UNL     1      44.091   9.558  11.048  0.00  0.00    +0.000 A 
BRANCH  16  23
ATOM     22  N   UNL     1      43.276  10.716   7.840  0.00  0.00    +0.000 N 
ATOM     23  C   UNL     1      42.941  10.777   9.164  0.00  0.00    +0.000 C 
ATOM     24  O   UNL     1      41.779  10.927   9.517  0.00  0.00    +0.000 OA
ATOM     25  H   UNL     1      42.497  10.704   7.189  0.00  0.00    +0.000 HD
ATOM     26  H   UNL     1      44.153  10.324   7.518  0.00  0.00    +0.000 HD
ENDBRANCH  16  23
ENDBRANCH  15  20
ENDBRANCH   1  15
TORSDOF 4
ENDMDL
