MODEL 1
REMARK VINA RESULT:    -8.613      0.000      0.000
REMARK INTER + INTRA:         -12.641
REMARK INTER:                 -11.634
REMARK INTRA:                  -1.006
REMARK UNBOUND:                -1.006
REMARK  Name = 
REMARK  6 active torsions:
REMARK  status: ('A' for Active; 'I' for Inactive)
REMARK    1  A    between atoms: C_2  and  C_25
REMARK    2  A    between atoms: N_3  and  C_4
REMARK    3  A    between atoms: C_4  and  C_5
REMARK    4  A    between atoms: C_8  and  C_9
REMARK    5  A    between atoms: C_9  and  N_10
REMARK    6  A    between atoms: C_11  and  C_13
REMARK                            x       y       z     vdW  Elec       q    Type
REMARK                         _______ _______ _______ _____ _____    ______ ____
ROOT
ATOM      1  C   UNL     1      45.486   4.245  12.344  0.00  0.00    +0.000 A 
ATOM      2  C   UNL     1      45.729   5.548  11.912  0.00  0.00    +0.000 A 
ATOM      3  C   UNL     1      46.635   6.340  12.618  0.00  0.00    +0.000 A 
ATOM      4  C   UNL     1      47.267   5.831  13.754  0.00  0.00    +0.000 A 
ATOM      5  C   UNL     1      46.963   4.521  14.111  0.00  0.00    +0.000 A 
ATOM      6  N   UNL     1      46.083   3.729  13.448  0.00  0.00    +0.000 NA
ENDROOT
BRANCH   1   7
ATOM      7  C   UNL     1      44.527   3.360  11.577  0.00  0.00    +0.000 C 
BRANCH   7  10
ATOM      8  O   UNL     1      44.261   4.245   8.937  0.00  0.00    +0.000 OA
ATOM      9  C   UNL     1      44.982   3.280   9.167  0.00  0.00    +0.000 C 
ATOM     10  N   UNL     1      45.148   2.737  10.424  0.00  0.00    +0.000 N 
ATOM     11  H   UNL     1      45.953   2.152  10.608  0.00  0.00    +0.000 HD
BRANCH   9  12
ATOM     12  C   UNL     1      45.749   2.651   8.059  0.00  0.00    +0.000 A 
ATOM     13  C   UNL     1      46.200   1.332   8.218  0.00  0.00    +0.000 A 
ATOM     14  C   UNL     1      46.950   0.719   7.212  0.00  0.00    +0.000 A 
ATOM     15  C   UNL     1      47.258   1.431   6.059  0.00  0.00    +0.000 A 
ATOM     16  F   UNL     1      47.985   0.848   5.097  0.00  0.00    +0.000 F 
ATOM     17  C   UNL     1      46.833   2.746   5.893  0.00  0.00    +0.000 A 
ATOM     18  C   UNL     1      46.076   3.361   6.894  0.00  0.00    +0.000 A 
ENDBRANCH   9  12
ENDBRANCH   7  10
ENDBRANCH   1   7
BRANCH   4  19
ATOM     19  C   UNL     1      48.263   6.642  14.533  0.00  0.00    +0.000 C 
BRANCH  19  20
ATOM     20  N   UNL     1      48.099   6.453  15.952  0.00  0.00    +0.000 N 
ATOM     21  C   UNL     1      49.132   6.031  16.750  0.00  0.00    +0.000 C 
ATOM     22  O   UNL     1      50.262   5.840  16.309  0.00  0.00    +0.000 OA
ATOM     23  H   UNL     1      47.147   6.347  16.291  0.00  0.00    +0.000 HD
BRANCH  21  24
ATOM     24  C   UNL     1      48.829   5.886  18.180  0.00  0.00    +0.000 A 
ATOM     25  C   UNL     1      49.069   4.680  18.826  0.00  0.00    +0.000 A 
ATOM     26  S   UNL     1      48.728   4.720  20.498  0.00  0.00    +0.000 S 
ATOM     27  C   UNL     1      48.188   6.330  20.407  0.00  0.00    +0.000 A 
ATOM     28  N   UNL     1      47.728   6.980  21.511  0.00  0.00    +0.000 NA
ATOM     29  C   UNL     1      47.327   8.190  21.291  0.00  0.00    +0.000 A 
ATOM     30  N   UNL     1      47.345   8.805  20.067  0.00  0.00    +0.000 N 
ATOM     31  C   UNL     1      47.827   8.198  18.932  0.00  0.00    +0.000 A 
ATOM     32  O   UNL     1      47.865   8.795  17.860  0.00  0.00    +0.000 OA
ATOM     33  C   UNL     1      48.285   6.838  19.122  0.00  0.00    +0.000 A 
ATOM     34  H   UNL     1      47.022   9.755  19.961  0.00  0.00    +0.000 HD
ENDBRANCH  21  24
ENDBRANCH  19  20
ENDBRANCH   4  19
TORSDOF 6
ENDMDL
MODEL 2
REMARK VINA RESULT:    -8.459      2.366      2.807
REMARK INTER + INTRA:         -12.433
REMARK INTER:                 -11.412
REMARK INTRA:                  -1.022
REMARK UNBOUND:                -1.006
REMARK  Name = 
REMARK  6 active torsions:
REMARK  status: ('A' for Active; 'I' for Inactive)
REMARK    1  A    between atoms: C_2  and  C_25
REMARK    2  A    between atoms: N_3  and  C_4
REMARK    3  A    between atoms: C_4  and  C_5
REMARK    4  A    between atoms: C_8  and  C_9
REMARK    5  A    between atoms: C_9  and  N_10
REMARK    6  A    between atoms: C_11  and  C_13
REMARK                            x       y       z     vdW  Elec       q    Type
REMARK                         _______ _______ _______ _____ _____    ______ ____
ROOT
ATOM      1  C   UNL     1      45.043   6.168  11.145  0.00  0.00    +0.000 A 
ATOM      2  C   UNL     1      44.618   7.427  11.566  0.00  0.00    +0.000 A 
ATOM      3  C   UNL     1      45.427   8.160  12.435  0.00  0.00    +0.000 A 
ATOM      4  C   UNL     1      46.633   7.621  12.887  0.00  0.00    +0.000 A 
ATOM      5  C   UNL     1      46.975   6.358  12.414  0.00  0.00    +0.000 A 
ATOM      6  N   UNL     1      46.207   5.619  11.575  0.00  0.00    +0.000 NA
ENDROOT
BRANCH   1   7
ATOM      7  C   UNL     1      44.194   5.366  10.182  0.00  0.00    +0.000 C 
BRANCH   7  10
ATOM      8  O   UNL     1      44.578   2.599  10.046  0.00  0.00    +0.000 OA
ATOM      9  C   UNL     1      45.079   3.308   9.181  0.00  0.00    +0.000 C 
ATOM     10  N   UNL     1      44.988   4.684   9.178  0.00  0.00    +0.000 N 
ATOM     11  H   UNL     1      45.154   5.190   8.317  0.00  0.00    +0.000 HD
BRANCH   9  12
ATOM     12  C   UNL     1      45.813   2.683   8.048  0.00  0.00    +0.000 A 
ATOM     13  C   UNL     1      46.271   1.364   8.191  0.00  0.00    +0.000 A 
ATOM     14  C   UNL     1      46.990   0.754   7.161  0.00  0.00    +0.000 A 
ATOM     15  C   UNL     1      47.263   1.470   6.000  0.00  0.00    +0.000 A 
ATOM     16  F   UNL     1      47.961   0.889   5.016  0.00  0.00    +0.000 F 
ATOM     17  C   UNL     1      46.830   2.784   5.850  0.00  0.00    +0.000 A 
ATOM     18  C   UNL     1      46.103   3.396   6.875  0.00  0.00    +0.000 A 
ENDBRANCH   9  12
ENDBRANCH   7  10
ENDBRANCH   1   7
BRANCH   4  19
ATOM     19  C   UNL     1      47.543   8.383  13.808  0.00  0.00    +0.000 C 
BRANCH  19  20
ATOM     20  N   UNL     1      47.874   7.611  14.978  0.00  0.00    +0.000 N 
ATOM     21  C   UNL     1      49.090   6.992  15.116  0.00  0.00    +0.000 C 
ATOM     22  O   UNL     1      49.979   7.102  14.275  0.00  0.00    +0.000 OA
ATOM     23  H   UNL     1      47.096   7.289  15.546  0.00  0.00    +0.000 HD
BRANCH  21  24
ATOM     24  C   UNL     1      49.298   6.241  16.362  0.00  0.00    +0.000 A 
ATOM     25  C   UNL     1      50.278   6.639  17.262  0.00  0.00    +0.000 A 
ATOM     26  S   UNL     1      50.323   5.696  18.684  0.00  0.00    +0.000 S 
ATOM     27  C   UNL     1      49.077   4.685  18.122  0.00  0.00    +0.000 A 
ATOM     28  N   UNL     1      48.634   3.636  18.866  0.00  0.00    +0.000 NA
ATOM     29  C   UNL     1      47.702   2.937  18.304  0.00  0.00    +0.000 A 
ATOM     30  N   UNL     1      47.174   3.195  17.067  0.00  0.00    +0.000 N 
ATOM     31  C   UNL     1      47.570   4.260  16.293  0.00  0.00    +0.000 A 
ATOM     32  O   UNL     1      47.048   4.484  15.205  0.00  0.00    +0.000 OA
ATOM     33  C   UNL     1      48.619   5.072  16.874  0.00  0.00    +0.000 A 
ATOM     34  H   UNL     1      46.444   2.614  16.685  0.00  0.00    +0.000 HD
ENDBRANCH  21  24
ENDBRANCH  19  20
ENDBRANCH   4  19
TORSDOF 6
ENDMDL
MODEL 3
REMARK VINA RESULT:    -7.959      2.547      3.114
REMARK INTER + INTRA:         -11.757
REMARK INTER:                 -10.843
REMARK INTRA:                  -0.915
REMARK UNBOUND:                -1.006
REMARK  Name = 
REMARK  6 active torsions:
REMARK  status: ('A' for Active; 'I' for Inactive)
REMARK    1  A    between atoms: C_2  and  C_25
REMARK    2  A    between atoms: N_3  and  C_4
REMARK    3  A    between atoms: C_4  and  C_5
REMARK    4  A    between atoms: C_8  and  C_9
REMARK    5  A    between atoms: C_9  and  N_10
REMARK    6  A    between atoms: C_11  and  C_13
REMARK                            x       y       z     vdW  Elec       q    Type
REMARK                         _______ _______ _______ _____ _____    ______ ____
ROOT
ATOM      1  C   UNL     1      45.276   4.668  12.239  0.00  0.00    +0.000 A 
ATOM      2  C   UNL     1      45.004   5.985  11.876  0.00  0.00    +0.000 A 
ATOM      3  C   UNL     1      45.793   7.011  12.397  0.00  0.00    +0.000 A 
ATOM      4  C   UNL     1      46.826   6.711  13.287  0.00  0.00    +0.000 A 
ATOM      5  C   UNL     1      47.024   5.368  13.593  0.00  0.00    +0.000 A 
ATOM      6  N   UNL     1      46.270   4.351  13.107  0.00  0.00    +0.000 NA
ENDROOT
BRANCH   1   7
ATOM      7  C   UNL     1      44.449   3.538  11.665  0.00  0.00    +0.000 C 
BRANCH   7  10
ATOM      8  O   UNL     1      44.109   4.257   8.983  0.00  0.00    +0.000 OA
ATOM      9  C   UNL     1      44.889   3.353   9.258  0.00  0.00    +0.000 C 
ATOM     10  N   UNL     1      45.098   2.891  10.540  0.00  0.00    +0.000 N 
ATOM     11  H   UNL     1      45.939   2.367  10.747  0.00  0.00    +0.000 HD
BRANCH   9  12
ATOM     12  C   UNL     1      45.684   2.711   8.176  0.00  0.00    +0.000 A 
ATOM     13  C   UNL     1      46.111   1.386   8.353  0.00  0.00    +0.000 A 
ATOM     14  C   UNL     1      46.885   0.761   7.373  0.00  0.00    +0.000 A 
ATOM     15  C   UNL     1      47.243   1.467   6.230  0.00  0.00    +0.000 A 
ATOM     16  F   UNL     1      47.993   0.871   5.295  0.00  0.00    +0.000 F 
ATOM     17  C   UNL     1      46.842   2.787   6.049  0.00  0.00    +0.000 A 
ATOM     18  C   UNL     1      46.060   3.415   7.023  0.00  0.00    +0.000 A 
ENDBRANCH   9  12
ENDBRANCH   7  10
ENDBRANCH   1   7
BRANCH   4  19
ATOM     19  C   UNL     1      47.712   7.781  13.858  0.00  0.00    +0.000 C 
BRANCH  19  20
ATOM     20  N   UNL     1      48.921   7.224  14.411  0.00  0.00    +0.000 N 
ATOM     21  C   UNL     1      49.249   7.376  15.734  0.00  0.00    +0.000 C 
ATOM     22  O   UNL     1      48.510   7.952  16.529  0.00  0.00    +0.000 OA
ATOM     23  H   UNL     1      49.655   6.983  13.751  0.00  0.00    +0.000 HD
BRANCH  21  24
ATOM     24  C   UNL     1      50.507   6.751  16.166  0.00  0.00    +0.000 A 
ATOM     25  C   UNL     1      51.724   7.319  15.816  0.00  0.00    +0.000 A 
ATOM     26  S   UNL     1      53.073   6.500  16.468  0.00  0.00    +0.000 S 
ATOM     27  C   UNL     1      52.081   5.322  17.190  0.00  0.00    +0.000 A 
ATOM     28  N   UNL     1      52.616   4.294  17.902  0.00  0.00    +0.000 NA
ATOM     29  C   UNL     1      51.746   3.460  18.372  0.00  0.00    +0.000 A 
ATOM     30  N   UNL     1      50.392   3.563  18.193  0.00  0.00    +0.000 N 
ATOM     31  C   UNL     1      49.806   4.600  17.506  0.00  0.00    +0.000 A 
ATOM     32  O   UNL     1      48.586   4.682  17.399  0.00  0.00    +0.000 OA
ATOM     33  C   UNL     1      50.737   5.561  16.953  0.00  0.00    +0.000 A 
ATOM     34  H   UNL     1      49.764   2.881  18.590  0.00  0.00    +0.000 HD
ENDBRANCH  21  24
ENDBRANCH  19  20
ENDBRANCH   4  19
TORSDOF 6
ENDMDL
MODEL 4
REMARK VINA RESULT:    -7.277      4.576      6.234
REMARK INTER + INTRA:         -10.836
REMARK INTER:                  -9.755
REMARK INTRA:                  -1.080
REMARK UNBOUND:                -1.006
REMARK  Name = 
REMARK  6 active torsions:
REMARK  status: ('A' for Active; 'I' for Inactive)
REMARK    1  A    between atoms: C_2  and  C_25
REMARK    2  A    between atoms: N_3  and  C_4
REMARK    3  A    between atoms: C_4  and  C_5
REMARK    4  A    between atoms: C_8  and  C_9
REMARK    5  A    between atoms: C_9  and  N_10
REMARK    6  A    between atoms: C_11  and  C_13
REMARK                            x       y       z     vdW  Elec       q    Type
REMARK                         _______ _______ _______ _____ _____    ______ ____
ROOT
ATOM      1  C   UNL     1      44.946   6.022  11.452  0.00  0.00    +0.000 A 
ATOM      2  C   UNL     1      44.552   7.357  11.390  0.00  0.00    +0.000 A 
ATOM      3  C   UNL     1      45.245   8.305  12.144  0.00  0.00    +0.000 A 
ATOM      4  C   UNL     1      46.303   7.906  12.962  0.00  0.00    +0.000 A 
ATOM      5  C   UNL     1      46.626   6.552  12.961  0.00  0.00    +0.000 A 
ATOM      6  N   UNL     1      45.967   5.608  12.244  0.00  0.00    +0.000 NA
ENDROOT
BRANCH   1   7
ATOM      7  C   UNL     1      44.226   4.981  10.622  0.00  0.00    +0.000 C 
BRANCH   7  10
ATOM      8  O   UNL     1      44.067   2.314   9.794  0.00  0.00    +0.000 OA
ATOM      9  C   UNL     1      44.899   3.047   9.270  0.00  0.00    +0.000 C 
ATOM     10  N   UNL     1      45.090   4.363   9.634  0.00  0.00    +0.000 N 
ATOM     11  H   UNL     1      45.562   4.990   8.995  0.00  0.00    +0.000 HD
BRANCH   9  12
ATOM     12  C   UNL     1      45.749   2.527   8.166  0.00  0.00    +0.000 A 
ATOM     13  C   UNL     1      46.001   3.358   7.064  0.00  0.00    +0.000 A 
ATOM     14  C   UNL     1      46.769   2.894   5.994  0.00  0.00    +0.000 A 
ATOM     15  C   UNL     1      47.267   1.597   6.022  0.00  0.00    +0.000 A 
ATOM     16  F   UNL     1      47.996   1.147   4.993  0.00  0.00    +0.000 F 
ATOM     17  C   UNL     1      47.012   0.754   7.100  0.00  0.00    +0.000 A 
ATOM     18  C   UNL     1      46.250   1.217   8.177  0.00  0.00    +0.000 A 
ENDBRANCH   9  12
ENDBRANCH   7  10
ENDBRANCH   1   7
BRANCH   4  19
ATOM     19  C   UNL     1      47.088   8.895  13.776  0.00  0.00    +0.000 C 
BRANCH  19  20
ATOM     20  N   UNL     1      48.387   9.137  13.201  0.00  0.00    +0.000 N 
ATOM     21  C   UNL     1      48.591  10.111  12.257  0.00  0.00    +0.000 C 
ATOM     22  O   UNL     1      47.691  10.861  11.887  0.00  0.00    +0.000 OA
ATOM     23  H   UNL     1      49.068   8.388  13.283  0.00  0.00    +0.000 HD
BRANCH  21  24
ATOM     24  C   UNL     1      49.966  10.254  11.759  0.00  0.00    +0.000 A 
ATOM     25  C   UNL     1      50.538  11.514  11.640  0.00  0.00    +0.000 A 
ATOM     26  S   UNL     1      52.162  11.481  11.119  0.00  0.00    +0.000 S 
ATOM     27  C   UNL     1      52.141   9.786  10.974  0.00  0.00    +0.000 A 
ATOM     28  N   UNL     1      53.237   9.104  10.544  0.00  0.00    +0.000 NA
ATOM     29  C   UNL     1      53.070   7.824  10.457  0.00  0.00    +0.000 A 
ATOM     30  N   UNL     1      51.906   7.169  10.761  0.00  0.00    +0.000 N 
ATOM     31  C   UNL     1      50.785   7.813  11.226  0.00  0.00    +0.000 A 
ATOM     32  O   UNL     1      49.772   7.188  11.527  0.00  0.00    +0.000 OA
ATOM     33  C   UNL     1      50.916   9.251  11.337  0.00  0.00    +0.000 A 
ATOM     34  H   UNL     1      51.840   6.166  10.677  0.00  0.00    +0.000 HD
ENDBRANCH  21  24
ENDBRANCH  19  20
ENDBRANCH   4  19
TORSDOF 6
ENDMDL
MODEL 5
REMARK VINA RESULT:    -7.237      2.359      2.940
REMARK INTER + INTRA:         -10.782
REMARK INTER:                 -10.599
REMARK INTRA:                  -0.183
REMARK UNBOUND:                -1.006
REMARK  Name = 
REMARK  6 active torsions:
REMARK  status: ('A' for Active; 'I' for Inactive)
REMARK    1  A    between atoms: C_2  and  C_25
REMARK    2  A    between atoms: N_3  and  C_4
REMARK    3  A    between atoms: C_4  and  C_5
REMARK    4  A    between atoms: C_8  and  C_9
REMARK    5  A    between atoms: C_9  and  N_10
REMARK    6  A    between atoms: C_11  and  C_13
REMARK                            x       y       z     vdW  Elec       q    Type
REMARK                         _______ _______ _______ _____ _____    ______ ____
ROOT
ATOM      1  C   UNL     1      45.167   6.278  11.504  0.00  0.00    +0.000 A 
ATOM      2  C   UNL     1      45.029   7.663  11.581  0.00  0.00    +0.000 A 
ATOM      3  C   UNL     1      45.827   8.377  12.475  0.00  0.00    +0.000 A 
ATOM      4  C   UNL     1      46.734   7.700  13.293  0.00  0.00    +0.000 A 
ATOM      5  C   UNL     1      46.803   6.318  13.148  0.00  0.00    +0.000 A 
ATOM      6  N   UNL     1      46.036   5.596  12.293  0.00  0.00    +0.000 NA
ENDROOT
BRANCH   1   7
ATOM      7  C   UNL     1      44.330   5.487  10.523  0.00  0.00    +0.000 C 
BRANCH   7  10
ATOM      8  O   UNL     1      43.995   2.795   9.840  0.00  0.00    +0.000 OA
ATOM      9  C   UNL     1      44.862   3.446   9.268  0.00  0.00    +0.000 C 
ATOM     10  N   UNL     1      45.139   4.765   9.558  0.00  0.00    +0.000 N 
ATOM     11  H   UNL     1      45.639   5.328   8.881  0.00  0.00    +0.000 HD
BRANCH   9  12
ATOM     12  C   UNL     1      45.661   2.817   8.183  0.00  0.00    +0.000 A 
ATOM     13  C   UNL     1      46.112   1.500   8.358  0.00  0.00    +0.000 A 
ATOM     14  C   UNL     1      46.891   0.887   7.375  0.00  0.00    +0.000 A 
ATOM     15  C   UNL     1      47.229   1.597   6.229  0.00  0.00    +0.000 A 
ATOM     16  F   UNL     1      47.984   1.013   5.289  0.00  0.00    +0.000 F 
ATOM     17  C   UNL     1      46.804   2.910   6.048  0.00  0.00    +0.000 A 
ATOM     18  C   UNL     1      46.018   3.525   7.026  0.00  0.00    +0.000 A 
ENDBRANCH   9  12
ENDBRANCH   7  10
ENDBRANCH   1   7
BRANCH   4  19
ATOM     19  C   UNL     1      47.626   8.430  14.256  0.00  0.00    +0.000 C 
BRANCH  19  20
ATOM     20  N   UNL     1      48.023   7.582  15.351  0.00  0.00    +0.000 N 
ATOM     21  C   UNL     1      49.178   6.844  15.312  0.00  0.00    +0.000 C 
ATOM     22  O   UNL     1      49.960   6.902  14.366  0.00  0.00    +0.000 OA
ATOM     23  H   UNL     1      47.295   7.314  16.007  0.00  0.00    +0.000 HD
BRANCH  21  24
ATOM     24  C   UNL     1      49.466   6.026  16.498  0.00  0.00    +0.000 A 
ATOM     25  C   UNL     1      48.431   5.413  17.192  0.00  0.00    +0.000 A 
ATOM     26  S   UNL     1      48.959   4.445  18.494  0.00  0.00    +0.000 S 
ATOM     27  C   UNL     1      50.585   4.859  18.217  0.00  0.00    +0.000 A 
ATOM     28  N   UNL     1      51.578   4.374  19.010  0.00  0.00    +0.000 NA
ATOM     29  C   UNL     1      52.763   4.792  18.699  0.00  0.00    +0.000 A 
ATOM     30  N   UNL     1      53.040   5.651  17.669  0.00  0.00    +0.000 N 
ATOM     31  C   UNL     1      52.073   6.143  16.826  0.00  0.00    +0.000 A 
ATOM     32  O   UNL     1      52.362   6.880  15.888  0.00  0.00    +0.000 OA
ATOM     33  C   UNL     1      50.725   5.710  17.133  0.00  0.00    +0.000 A 
ATOM     34  H   UNL     1      53.987   5.937  17.475  0.00  0.00    +0.000 HD
ENDBRANCH  21  24
ENDBRANCH  19  20
ENDBRANCH   4  19
TORSDOF 6
ENDMDL
MODEL 6
REMARK VINA RESULT:    -7.006      3.746      5.346
REMARK INTER + INTRA:         -10.470
REMARK INTER:                  -9.635
REMARK INTRA:                  -0.835
REMARK UNBOUND:                -1.006
REMARK  Name = 
REMARK  6 active torsions:
REMARK  status: ('A' for Active; 'I' for Inactive)
REMARK    1  A    between atoms: C_2  and  C_25
REMARK    2  A    between atoms: N_3  and  C_4
REMARK    3  A    between atoms: C_4  and  C_5
REMARK    4  A    between atoms: C_8  and  C_9
REMARK    5  A    between atoms: C_9  and  N_10
REMARK    6  A    between atoms: C_11  and  C_13
REMARK                            x       y       z     vdW  Elec       q    Type
REMARK                         _______ _______ _______ _____ _____    ______ ____
ROOT
ATOM      1  C   UNL     1      45.367   5.112  11.736  0.00  0.00    +0.000 A 
ATOM      2  C   UNL     1      46.205   6.173  11.398  0.00  0.00    +0.000 A 
ATOM      3  C   UNL     1      47.181   6.583  12.306  0.00  0.00    +0.000 A 
ATOM      4  C   UNL     1      47.294   5.946  13.543  0.00  0.00    +0.000 A 
ATOM      5  C   UNL     1      46.414   4.898  13.795  0.00  0.00    +0.000 A 
ATOM      6  N   UNL     1      45.452   4.481  12.934  0.00  0.00    +0.000 NA
ENDROOT
BRANCH   1   7
ATOM      7  C   UNL     1      44.318   4.634  10.755  0.00  0.00    +0.000 C 
BRANCH   7  10
ATOM      8  O   UNL     1      45.663   5.278   8.389  0.00  0.00    +0.000 OA
ATOM      9  C   UNL     1      45.527   4.097   8.688  0.00  0.00    +0.000 C 
ATOM     10  N   UNL     1      44.844   3.670   9.807  0.00  0.00    +0.000 N 
ATOM     11  H   UNL     1      45.007   2.735  10.160  0.00  0.00    +0.000 HD
BRANCH   9  12
ATOM     12  C   UNL     1      46.136   3.044   7.832  0.00  0.00    +0.000 A 
ATOM     13  C   UNL     1      46.547   3.388   6.535  0.00  0.00    +0.000 A 
ATOM     14  C   UNL     1      47.095   2.420   5.691  0.00  0.00    +0.000 A 
ATOM     15  C   UNL     1      47.214   1.110   6.140  0.00  0.00    +0.000 A 
ATOM     16  F   UNL     1      47.731   0.178   5.329  0.00  0.00    +0.000 F 
ATOM     17  C   UNL     1      46.795   0.749   7.417  0.00  0.00    +0.000 A 
ATOM     18  C   UNL     1      46.253   1.717   8.269  0.00  0.00    +0.000 A 
ENDBRANCH   9  12
ENDBRANCH   7  10
ENDBRANCH   1   7
BRANCH   4  19
ATOM     19  C   UNL     1      48.342   6.343  14.544  0.00  0.00    +0.000 C 
BRANCH  19  20
ATOM     20  N   UNL     1      49.462   6.987  13.905  0.00  0.00    +0.000 N 
ATOM     21  C   UNL     1      50.221   7.928  14.553  0.00  0.00    +0.000 C 
ATOM     22  O   UNL     1      50.020   8.237  15.724  0.00  0.00    +0.000 OA
ATOM     23  H   UNL     1      49.488   6.953  12.890  0.00  0.00    +0.000 HD
BRANCH  21  24
ATOM     24  C   UNL     1      51.336   8.500  13.786  0.00  0.00    +0.000 A 
ATOM     25  C   UNL     1      52.645   8.307  14.207  0.00  0.00    +0.000 A 
ATOM     26  S   UNL     1      53.809   8.978  13.154  0.00  0.00    +0.000 S 
ATOM     27  C   UNL     1      52.604   9.605  12.131  0.00  0.00    +0.000 A 
ATOM     28  N   UNL     1      52.929  10.323  11.022  0.00  0.00    +0.000 NA
ATOM     29  C   UNL     1      51.913  10.759  10.351  0.00  0.00    +0.000 A 
ATOM     30  N   UNL     1      50.604  10.541  10.691  0.00  0.00    +0.000 N 
ATOM     31  C   UNL     1      50.230   9.798  11.785  0.00  0.00    +0.000 A 
ATOM     32  O   UNL     1      49.046   9.590  12.037  0.00  0.00    +0.000 OA
ATOM     33  C   UNL     1      51.331   9.290  12.575  0.00  0.00    +0.000 A 
ATOM     34  H   UNL     1      49.854  10.905  10.122  0.00  0.00    +0.000 HD
ENDBRANCH  21  24
ENDBRANCH  19  20
ENDBRANCH   4  19
TORSDOF 6
ENDMDL
MODEL 7
REMARK VINA RESULT:    -6.687      2.909      4.147
REMARK INTER + INTRA:         -10.039
REMARK INTER:                  -9.220
REMARK INTRA:                  -0.820
REMARK UNBOUND:                -1.006
REMARK  Name = 
REMARK  6 active torsions:
REMARK  status: ('A' for Active; 'I' for Inactive)
REMARK    1  A    between atoms: C_2  and  C_25
REMARK    2  A    between atoms: N_3  and  C_4
REMARK    3  A    between atoms: C_4  and  C_5
REMARK    4  A    between atoms: C_8  and  C_9
REMARK    5  A    between atoms: C_9  and  N_10
REMARK    6  A    between atoms: C_11  and  C_13
REMARK                            x       y       z     vdW  Elec       q    Type
REMARK                         _______ _______ _______ _____ _____    ______ ____
ROOT
ATOM      1  C   UNL     1      46.460   5.678  13.600  0.00  0.00    +0.000 A 
ATOM      2  C   UNL     1      46.941   6.938  13.248  0.00  0.00    +0.000 A 
ATOM      3  C   UNL     1      47.996   7.489  13.975  0.00  0.00    +0.000 A 
ATOM      4  C   UNL     1      48.540   6.789  15.054  0.00  0.00    +0.000 A 
ATOM      5  C   UNL     1      47.996   5.539  15.333  0.00  0.00    +0.000 A 
ATOM      6  N   UNL     1      46.968   4.980  14.647  0.00  0.00    +0.000 NA
ENDROOT
BRANCH   1   7
ATOM      7  C   UNL     1      45.335   5.049  12.808  0.00  0.00    +0.000 C 
BRANCH   7  10
ATOM      8  O   UNL     1      43.913   3.242  11.215  0.00  0.00    +0.000 OA
ATOM      9  C   UNL     1      44.975   3.688  10.797  0.00  0.00    +0.000 C 
ATOM     10  N   UNL     1      45.775   4.550  11.518  0.00  0.00    +0.000 N 
ATOM     11  H   UNL     1      46.467   5.106  11.033  0.00  0.00    +0.000 HD
BRANCH   9  12
ATOM     12  C   UNL     1      45.445   3.319   9.435  0.00  0.00    +0.000 A 
ATOM     13  C   UNL     1      45.771   4.347   8.536  0.00  0.00    +0.000 A 
ATOM     14  C   UNL     1      46.187   4.040   7.239  0.00  0.00    +0.000 A 
ATOM     15  C   UNL     1      46.259   2.710   6.840  0.00  0.00    +0.000 A 
ATOM     16  F   UNL     1      46.648   2.414   5.594  0.00  0.00    +0.000 F 
ATOM     17  C   UNL     1      45.922   1.681   7.715  0.00  0.00    +0.000 A 
ATOM     18  C   UNL     1      45.513   1.982   9.017  0.00  0.00    +0.000 A 
ENDBRANCH   9  12
ENDBRANCH   7  10
ENDBRANCH   1   7
BRANCH   4  19
ATOM     19  C   UNL     1      49.688   7.337  15.853  0.00  0.00    +0.000 C 
BRANCH  19  20
ATOM     20  N   UNL     1      50.597   6.293  16.252  0.00  0.00    +0.000 N 
ATOM     21  C   UNL     1      50.906   6.066  17.569  0.00  0.00    +0.000 C 
ATOM     22  O   UNL     1      50.390   6.706  18.481  0.00  0.00    +0.000 OA
ATOM     23  H   UNL     1      51.223   5.937  15.536  0.00  0.00    +0.000 HD
BRANCH  21  24
ATOM     24  C   UNL     1      51.843   4.965  17.834  0.00  0.00    +0.000 A 
ATOM     25  C   UNL     1      53.146   5.237  18.228  0.00  0.00    +0.000 A 
ATOM     26  S   UNL     1      54.065   3.838  18.564  0.00  0.00    +0.000 S 
ATOM     27  C   UNL     1      52.773   2.818  18.136  0.00  0.00    +0.000 A 
ATOM     28  N   UNL     1      52.903   1.465  18.181  0.00  0.00    +0.000 NA
ATOM     29  C   UNL     1      51.850   0.814  17.804  0.00  0.00    +0.000 A 
ATOM     30  N   UNL     1      50.683   1.396  17.386  0.00  0.00    +0.000 N 
ATOM     31  C   UNL     1      50.498   2.758  17.352  0.00  0.00    +0.000 A 
ATOM     32  O   UNL     1      49.424   3.245  17.009  0.00  0.00    +0.000 OA
ATOM     33  C   UNL     1      51.650   3.535  17.759  0.00  0.00    +0.000 A 
ATOM     34  H   UNL     1      49.894   0.833  17.108  0.00  0.00    +0.000 HD
ENDBRANCH  21  24
ENDBRANCH  19  20
ENDBRANCH   4  19
TORSDOF 6
ENDMDL
MODEL 8
REMARK VINA RESULT:    -6.281      3.385      5.335
REMARK INTER + INTRA:          -9.491
REMARK INTER:                  -8.695
REMARK INTRA:                  -0.796
REMARK UNBOUND:                -1.006
REMARK  Name = 
REMARK  6 active torsions:
REMARK  status: ('A' for Active; 'I' for Inactive)
REMARK    1  A    between atoms: C_2  and  C_25
REMARK    2  A    between atoms: N_3  and  C_4
REMARK    3  A    between atoms: C_4  and  C_5
REMARK    4  A    between atoms: C_8  and  C_9
REMARK    5  A    between atoms: C_9  and  N_10
REMARK    6  A    between atoms: C_11  and  C_13
REMARK                            x       y       z     vdW  Elec       q    Type
REMARK                         _______ _______ _______ _____ _____    ______ ____
ROOT
ATOM      1  C   UNL     1      48.466   7.864  14.132  0.00  0.00    +0.000 A 
ATOM      2  C   UNL     1      48.880   8.977  14.861  0.00  0.00    +0.000 A 
ATOM      3  C   UNL     1      49.221   8.820  16.205  0.00  0.00    +0.000 A 
ATOM      4  C   UNL     1      49.122   7.564  16.807  0.00  0.00    +0.000 A 
ATOM      5  C   UNL     1      48.698   6.511  16.002  0.00  0.00    +0.000 A 
ATOM      6  N   UNL     1      48.355   6.634  14.695  0.00  0.00    +0.000 NA
ENDROOT
BRANCH   1   7
ATOM      7  C   UNL     1      48.117   8.006  12.667  0.00  0.00    +0.000 C 
BRANCH   7  10
ATOM      8  O   UNL     1      45.377   7.573  12.313  0.00  0.00    +0.000 OA
ATOM      9  C   UNL     1      46.163   6.706  11.949  0.00  0.00    +0.000 C 
ATOM     10  N   UNL     1      47.529   6.799  12.116  0.00  0.00    +0.000 N 
ATOM     11  H   UNL     1      48.138   6.219  11.554  0.00  0.00    +0.000 HD
BRANCH   9  12
ATOM     12  C   UNL     1      45.653   5.485  11.269  0.00  0.00    +0.000 A 
ATOM     13  C   UNL     1      45.630   5.459   9.866  0.00  0.00    +0.000 A 
ATOM     14  C   UNL     1      45.129   4.343   9.193  0.00  0.00    +0.000 A 
ATOM     15  C   UNL     1      44.640   3.266   9.923  0.00  0.00    +0.000 A 
ATOM     16  F   UNL     1      44.151   2.199   9.278  0.00  0.00    +0.000 F 
ATOM     17  C   UNL     1      44.640   3.284  11.314  0.00  0.00    +0.000 A 
ATOM     18  C   UNL     1      45.148   4.396  11.993  0.00  0.00    +0.000 A 
ENDBRANCH   9  12
ENDBRANCH   7  10
ENDBRANCH   1   7
BRANCH   4  19
ATOM     19  C   UNL     1      49.495   7.346  18.246  0.00  0.00    +0.000 C 
BRANCH  19  20
ATOM     20  N   UNL     1      50.334   6.185  18.401  0.00  0.00    +0.000 N 
ATOM     21  C   UNL     1      51.647   6.183  18.005  0.00  0.00    +0.000 C 
ATOM     22  O   UNL     1      52.192   7.182  17.543  0.00  0.00    +0.000 OA
ATOM     23  H   UNL     1      49.861   5.295  18.526  0.00  0.00    +0.000 HD
BRANCH  21  24
ATOM     24  C   UNL     1      52.390   4.935  18.228  0.00  0.00    +0.000 A 
ATOM     25  C   UNL     1      53.676   4.971  18.748  0.00  0.00    +0.000 A 
ATOM     26  S   UNL     1      54.352   3.425  19.008  0.00  0.00    +0.000 S 
ATOM     27  C   UNL     1      52.974   2.654  18.377  0.00  0.00    +0.000 A 
ATOM     28  N   UNL     1      52.906   1.298  18.292  0.00  0.00    +0.000 NA
ATOM     29  C   UNL     1      51.811   0.849  17.768  0.00  0.00    +0.000 A 
ATOM     30  N   UNL     1      50.782   1.636  17.323  0.00  0.00    +0.000 N 
ATOM     31  C   UNL     1      50.796   3.007  17.416  0.00  0.00    +0.000 A 
ATOM     32  O   UNL     1      49.838   3.679  17.043  0.00  0.00    +0.000 OA
ATOM     33  C   UNL     1      52.003   3.562  17.990  0.00  0.00    +0.000 A 
ATOM     34  H   UNL     1      49.950   1.225  16.927  0.00  0.00    +0.000 HD
ENDBRANCH  21  24
ENDBRANCH  19  20
ENDBRANCH   4  19
TORSDOF 6
ENDMDL
MODEL 9
REMARK VINA RESULT:    -6.184      4.261      4.925
REMARK INTER + INTRA:          -9.359
REMARK INTER:                  -8.450
REMARK INTRA:                  -0.909
REMARK UNBOUND:                -1.006
REMARK  Name = 
REMARK  6 active torsions:
REMARK  status: ('A' for Active; 'I' for Inactive)
REMARK    1  A    between atoms: C_2  and  C_25
REMARK    2  A    between atoms: N_3  and  C_4
REMARK    3  A    between atoms: C_4  and  C_5
REMARK    4  A    between atoms: C_8  and  C_9
REMARK    5  A    between atoms: C_9  and  N_10
REMARK    6  A    between atoms: C_11  and  C_13
REMARK                            x       y       z     vdW  Elec       q    Type
REMARK                         _______ _______ _______ _____ _____    ______ ____
ROOT
ATOM      1  C   UNL     1      44.455   5.070  10.997  0.00  0.00    +0.000 A 
ATOM      2  C   UNL     1      45.189   6.119  10.447  0.00  0.00    +0.000 A 
ATOM      3  C   UNL     1      45.874   6.988  11.297  0.00  0.00    +0.000 A 
ATOM      4  C   UNL     1      45.800   6.813  12.680  0.00  0.00    +0.000 A 
ATOM      5  C   UNL     1      45.042   5.739  13.139  0.00  0.00    +0.000 A 
ATOM      6  N   UNL     1      44.361   4.882  12.338  0.00  0.00    +0.000 NA
ENDROOT
BRANCH   1   7
ATOM      7  C   UNL     1      43.726   4.100  10.093  0.00  0.00    +0.000 C 
BRANCH   7  10
ATOM      8  O   UNL     1      45.760   2.186   9.961  0.00  0.00    +0.000 OA
ATOM      9  C   UNL     1      45.444   2.783   8.938  0.00  0.00    +0.000 C 
ATOM     10  N   UNL     1      44.486   3.774   8.901  0.00  0.00    +0.000 N 
ATOM     11  H   UNL     1      44.062   4.021   8.016  0.00  0.00    +0.000 HD
BRANCH   9  12
ATOM     12  C   UNL     1      46.092   2.429   7.647  0.00  0.00    +0.000 A 
ATOM     13  C   UNL     1      46.671   1.158   7.512  0.00  0.00    +0.000 A 
ATOM     14  C   UNL     1      47.316   0.801   6.326  0.00  0.00    +0.000 A 
ATOM     15  C   UNL     1      47.393   1.721   5.286  0.00  0.00    +0.000 A 
ATOM     16  F   UNL     1      48.020   1.383   4.152  0.00  0.00    +0.000 F 
ATOM     17  C   UNL     1      46.839   2.991   5.411  0.00  0.00    +0.000 A 
ATOM     18  C   UNL     1      46.186   3.350   6.593  0.00  0.00    +0.000 A 
ENDBRANCH   9  12
ENDBRANCH   7  10
ENDBRANCH   1   7
BRANCH   4  19
ATOM     19  C   UNL     1      46.536   7.713  13.631  0.00  0.00    +0.000 C 
BRANCH  19  20
ATOM     20  N   UNL     1      47.820   8.098  13.104  0.00  0.00    +0.000 N 
ATOM     21  C   UNL     1      48.953   7.366  13.351  0.00  0.00    +0.000 C 
ATOM     22  O   UNL     1      48.927   6.319  13.993  0.00  0.00    +0.000 OA
ATOM     23  H   UNL     1      47.919   9.064  12.807  0.00  0.00    +0.000 HD
BRANCH  21  24
ATOM     24  C   UNL     1      50.195   7.868  12.747  0.00  0.00    +0.000 A 
ATOM     25  C   UNL     1      50.360   7.843  11.369  0.00  0.00    +0.000 A 
ATOM     26  S   UNL     1      51.829   8.535  10.844  0.00  0.00    +0.000 S 
ATOM     27  C   UNL     1      52.324   8.837  12.443  0.00  0.00    +0.000 A 
ATOM     28  N   UNL     1      53.529   9.412  12.709  0.00  0.00    +0.000 NA
ATOM     29  C   UNL     1      53.785   9.558  13.968  0.00  0.00    +0.000 A 
ATOM     30  N   UNL     1      52.945   9.181  14.982  0.00  0.00    +0.000 N 
ATOM     31  C   UNL     1      51.708   8.625  14.760  0.00  0.00    +0.000 A 
ATOM     32  O   UNL     1      50.964   8.336  15.693  0.00  0.00    +0.000 OA
ATOM     33  C   UNL     1      51.373   8.433  13.364  0.00  0.00    +0.000 A 
ATOM     34  H   UNL     1      53.201   9.327  15.947  0.00  0.00    +0.000 HD
ENDBRANCH  21  24
ENDBRANCH  19  20
ENDBRANCH   4  19
TORSDOF 6
ENDMDL
