MODEL 1
REMARK VINA RESULT:    -8.003      0.000      0.000
REMARK INTER + INTRA:         -11.842
REMARK INTER:                 -11.278
REMARK INTRA:                  -0.564
REMARK UNBOUND:                -0.564
REMARK  Name = 
REMARK  8 active torsions:
REMARK  status: ('A' for Active; 'I' for Inactive)
REMARK    1  A    between atoms: C_1  and  O_2
REMARK    2  A    between atoms: O_2  and  C_3
REMARK    3  A    between atoms: C_8  and  N_9
REMARK    4  A    between atoms: N_9  and  C_10
REMARK    5  A    between atoms: C_10  and  C_11
REMARK    6  A    between atoms: C_14  and  C_15
REMARK    7  A    between atoms: C_15  and  N_16
REMARK    8  A    between atoms: C_17  and  C_19
REMARK                            x       y       z     vdW  Elec       q    Type
REMARK                         _______ _______ _______ _____ _____    ______ ____
ROOT
ATOM      1  C   UNL     1      44.931   3.940  10.541  0.00  0.00    +0.000 A 
ATOM      2  C   UNL     1      45.271   3.686  11.871  0.00  0.00    +0.000 A 
ATOM      3  C   UNL     1      45.909   4.679  12.612  0.00  0.00    +0.000 A 
ATOM      4  C   UNL     1      46.171   5.919  12.025  0.00  0.00    +0.000 A 
ATOM      5  C   UNL     1      45.780   6.090  10.701  0.00  0.00    +0.000 A 
ATOM      6  N   UNL     1      45.164   5.142   9.953  0.00  0.00    +0.000 NA
ENDROOT
BRANCH   1   7
ATOM      7  C   UNL     1      44.325   2.828   9.696  0.00  0.00    +0.000 C 
BRANCH   7   8
ATOM      8  N   UNL     1      45.330   1.820   9.342  0.00  0.00    +0.000 N 
ATOM      9  H   UNL     1      44.893   0.901   9.363  0.00  0.00    +0.000 HD
BRANCH   8  15
ATOM     10  C   UNL     1      46.831   1.017   7.488  0.00  0.00    +0.000 A 
ATOM     11  C   UNL     1      47.450   1.300   6.258  0.00  0.00    +0.000 A 
ATOM     12  C   UNL     1      47.288   2.540   5.643  0.00  0.00    +0.000 A 
ATOM     13  C   UNL     1      46.484   3.503   6.240  0.00  0.00    +0.000 A 
ATOM     14  C   UNL     1      45.862   3.229   7.461  0.00  0.00    +0.000 A 
ATOM     15  C   UNL     1      46.049   2.006   8.137  0.00  0.00    +0.000 A 
BRANCH  10  17
ATOM     16  C   UNL     1      46.617  -1.343   7.217  0.00  0.00    +0.000 C 
ATOM     17  O   UNL     1      46.894  -0.231   8.057  0.00  0.00    +0.000 OA
ENDBRANCH  10  17
ENDBRANCH   8  15
ENDBRANCH   7   8
ENDBRANCH   1   7
BRANCH   4  18
ATOM     18  C   UNL     1      46.878   7.011  12.772  0.00  0.00    +0.000 C 
BRANCH  18  19
ATOM     19  N   UNL     1      47.160   6.628  14.135  0.00  0.00    +0.000 N 
ATOM     20  C   UNL     1      48.451   6.585  14.602  0.00  0.00    +0.000 C 
ATOM     21  O   UNL     1      49.402   6.921  13.902  0.00  0.00    +0.000 OA
ATOM     22  H   UNL     1      46.427   6.150  14.651  0.00  0.00    +0.000 HD
BRANCH  20  23
ATOM     23  C   UNL     1      48.640   6.167  15.997  0.00  0.00    +0.000 A 
ATOM     24  C   UNL     1      49.233   7.038  16.901  0.00  0.00    +0.000 A 
ATOM     25  S   UNL     1      49.342   6.418  18.484  0.00  0.00    +0.000 S 
ATOM     26  C   UNL     1      48.642   4.942  18.011  0.00  0.00    +0.000 A 
ATOM     27  N   UNL     1      48.468   3.929  18.906  0.00  0.00    +0.000 NA
ATOM     28  C   UNL     1      47.960   2.857  18.406  0.00  0.00    +0.000 A 
ATOM     29  N   UNL     1      47.601   2.700  17.091  0.00  0.00    +0.000 N 
ATOM     30  C   UNL     1      47.720   3.706  16.163  0.00  0.00    +0.000 A 
ATOM     31  O   UNL     1      47.337   3.559  15.006  0.00  0.00    +0.000 OA
ATOM     32  C   UNL     1      48.309   4.930  16.670  0.00  0.00    +0.000 A 
ATOM     33  H   UNL     1      47.195   1.837  16.765  0.00  0.00    +0.000 HD
ENDBRANCH  20  23
ENDBRANCH  18  19
ENDBRANCH   4  18
TORSDOF 7
ENDMDL
MODEL 2
REMARK VINA RESULT:    -7.652      3.771      8.325
REMARK INTER + INTRA:         -11.346
REMARK INTER:                 -10.245
REMARK INTRA:                  -1.101
REMARK UNBOUND:                -0.564
REMARK  Name = 
REMARK  8 active torsions:
REMARK  status: ('A' for Active; 'I' for Inactive)
REMARK    1  A    between atoms: C_1  and  O_2
REMARK    2  A    between atoms: O_2  and  C_3
REMARK    3  A    between atoms: C_8  and  N_9
REMARK    4  A    between atoms: N_9  and  C_10
REMARK    5  A    between atoms: C_10  and  C_11
REMARK    6  A    between atoms: C_14  and  C_15
REMARK    7  A    between atoms: C_15  and  N_16
REMARK    8  A    between atoms: C_17  and  C_19
REMARK                            x       y       z     vdW  Elec       q    Type
REMARK                         _______ _______ _______ _____ _____    ______ ____
ROOT
ATOM      1  C   UNL     1      50.237   6.891  15.670  0.00  0.00    +0.000 A 
ATOM      2  C   UNL     1      50.894   7.788  14.827  0.00  0.00    +0.000 A 
ATOM      3  C   UNL     1      50.276   8.187  13.643  0.00  0.00    +0.000 A 
ATOM      4  C   UNL     1      49.002   7.707  13.333  0.00  0.00    +0.000 A 
ATOM      5  C   UNL     1      48.415   6.832  14.240  0.00  0.00    +0.000 A 
ATOM      6  N   UNL     1      48.992   6.421  15.396  0.00  0.00    +0.000 NA
ENDROOT
BRANCH   1   7
ATOM      7  C   UNL     1      50.946   6.373  16.914  0.00  0.00    +0.000 C 
BRANCH   7   8
ATOM      8  N   UNL     1      50.136   5.366  17.610  0.00  0.00    +0.000 N 
ATOM      9  H   UNL     1      49.176   5.433  17.279  0.00  0.00    +0.000 HD
BRANCH   8  15
ATOM     10  C   UNL     1      49.866   2.933  17.027  0.00  0.00    +0.000 A 
ATOM     11  C   UNL     1      50.444   1.651  16.991  0.00  0.00    +0.000 A 
ATOM     12  C   UNL     1      51.737   1.435  17.465  0.00  0.00    +0.000 A 
ATOM     13  C   UNL     1      52.475   2.504  17.958  0.00  0.00    +0.000 A 
ATOM     14  C   UNL     1      51.910   3.781  17.994  0.00  0.00    +0.000 A 
ATOM     15  C   UNL     1      50.586   4.024  17.574  0.00  0.00    +0.000 A 
BRANCH  10  17
ATOM     16  C   UNL     1      47.507   3.110  17.331  0.00  0.00    +0.000 C 
ATOM     17  O   UNL     1      48.637   3.185  16.471  0.00  0.00    +0.000 OA
ENDBRANCH  10  17
ENDBRANCH   8  15
ENDBRANCH   7   8
ENDBRANCH   1   7
BRANCH   4  18
ATOM     18  C   UNL     1      48.306   8.087  12.059  0.00  0.00    +0.000 C 
BRANCH  18  19
ATOM     19  N   UNL     1      47.617   6.961  11.473  0.00  0.00    +0.000 N 
ATOM     20  C   UNL     1      46.246   6.913  11.440  0.00  0.00    +0.000 C 
ATOM     21  O   UNL     1      45.557   7.842  11.855  0.00  0.00    +0.000 OA
ATOM     22  H   UNL     1      48.149   6.109  11.326  0.00  0.00    +0.000 HD
BRANCH  20  23
ATOM     23  C   UNL     1      45.636   5.720  10.839  0.00  0.00    +0.000 A 
ATOM     24  C   UNL     1      45.774   5.489   9.478  0.00  0.00    +0.000 A 
ATOM     25  S   UNL     1      45.044   4.045   8.947  0.00  0.00    +0.000 S 
ATOM     26  C   UNL     1      44.474   3.696  10.510  0.00  0.00    +0.000 A 
ATOM     27  N   UNL     1      43.727   2.582  10.752  0.00  0.00    +0.000 NA
ATOM     28  C   UNL     1      43.332   2.459  11.971  0.00  0.00    +0.000 A 
ATOM     29  N   UNL     1      43.619   3.344  12.980  0.00  0.00    +0.000 N 
ATOM     30  C   UNL     1      44.402   4.457  12.792  0.00  0.00    +0.000 A 
ATOM     31  O   UNL     1      44.691   5.201  13.724  0.00  0.00    +0.000 OA
ATOM     32  C   UNL     1      44.854   4.655  11.429  0.00  0.00    +0.000 A 
ATOM     33  H   UNL     1      43.290   3.182  13.919  0.00  0.00    +0.000 HD
ENDBRANCH  20  23
ENDBRANCH  18  19
ENDBRANCH   4  18
TORSDOF 7
ENDMDL
MODEL 3
REMARK VINA RESULT:    -7.546      3.049      8.685
REMARK INTER + INTRA:         -11.198
REMARK INTER:                 -10.100
REMARK INTRA:                  -1.098
REMARK UNBOUND:                -0.564
REMARK  Name = 
REMARK  8 active torsions:
REMARK  status: ('A' for Active; 'I' for Inactive)
REMARK    1  A    between atoms: C_1  and  O_2
REMARK    2  A    between atoms: O_2  and  C_3
REMARK    3  A    between atoms: C_8  and  N_9
REMARK    4  A    between atoms: N_9  and  C_10
REMARK    5  A    between atoms: C_10  and  C_11
REMARK    6  A    between atoms: C_14  and  C_15
REMARK    7  A    between atoms: C_15  and  N_16
REMARK    8  A    between atoms: C_17  and  C_19
REMARK                            x       y       z     vdW  Elec       q    Type
REMARK                         _______ _______ _______ _____ _____    ______ ____
ROOT
ATOM      1  C   UNL     1      50.146   6.716  15.962  0.00  0.00    +0.000 A 
ATOM      2  C   UNL     1      50.699   7.536  14.977  0.00  0.00    +0.000 A 
ATOM      3  C   UNL     1      49.967   7.802  13.822  0.00  0.00    +0.000 A 
ATOM      4  C   UNL     1      48.684   7.269  13.678  0.00  0.00    +0.000 A 
ATOM      5  C   UNL     1      48.206   6.478  14.718  0.00  0.00    +0.000 A 
ATOM      6  N   UNL     1      48.896   6.197  15.850  0.00  0.00    +0.000 NA
ENDROOT
BRANCH   1   7
ATOM      7  C   UNL     1      50.978   6.340  17.180  0.00  0.00    +0.000 C 
BRANCH   7   8
ATOM      8  N   UNL     1      50.323   5.291  17.970  0.00  0.00    +0.000 N 
ATOM      9  H   UNL     1      49.321   5.327  17.796  0.00  0.00    +0.000 HD
BRANCH   8  15
ATOM     10  C   UNL     1      50.117   2.902  17.205  0.00  0.00    +0.000 A 
ATOM     11  C   UNL     1      50.728   1.643  17.072  0.00  0.00    +0.000 A 
ATOM     12  C   UNL     1      52.026   1.426  17.529  0.00  0.00    +0.000 A 
ATOM     13  C   UNL     1      52.737   2.474  18.101  0.00  0.00    +0.000 A 
ATOM     14  C   UNL     1      52.139   3.729  18.234  0.00  0.00    +0.000 A 
ATOM     15  C   UNL     1      50.808   3.968  17.833  0.00  0.00    +0.000 A 
BRANCH  10  17
ATOM     16  C   UNL     1      47.751   2.959  17.510  0.00  0.00    +0.000 C 
ATOM     17  O   UNL     1      48.880   3.164  16.670  0.00  0.00    +0.000 OA
ENDBRANCH  10  17
ENDBRANCH   8  15
ENDBRANCH   7   8
ENDBRANCH   1   7
BRANCH   4  18
ATOM     18  C   UNL     1      47.866   7.504  12.443  0.00  0.00    +0.000 C 
BRANCH  18  19
ATOM     19  N   UNL     1      47.129   6.324  12.059  0.00  0.00    +0.000 N 
ATOM     20  C   UNL     1      45.760   6.285  12.157  0.00  0.00    +0.000 C 
ATOM     21  O   UNL     1      45.111   7.263  12.518  0.00  0.00    +0.000 OA
ATOM     22  H   UNL     1      47.647   5.455  11.968  0.00  0.00    +0.000 HD
BRANCH  20  23
ATOM     23  C   UNL     1      45.100   5.035  11.759  0.00  0.00    +0.000 A 
ATOM     24  C   UNL     1      44.399   4.298  12.704  0.00  0.00    +0.000 A 
ATOM     25  S   UNL     1      43.660   2.899  12.075  0.00  0.00    +0.000 S 
ATOM     26  C   UNL     1      44.287   3.200  10.523  0.00  0.00    +0.000 A 
ATOM     27  N   UNL     1      44.048   2.343   9.491  0.00  0.00    +0.000 NA
ATOM     28  C   UNL     1      44.611   2.673   8.382  0.00  0.00    +0.000 A 
ATOM     29  N   UNL     1      45.391   3.789   8.201  0.00  0.00    +0.000 N 
ATOM     30  C   UNL     1      45.626   4.701   9.201  0.00  0.00    +0.000 A 
ATOM     31  O   UNL     1      46.279   5.720   8.998  0.00  0.00    +0.000 OA
ATOM     32  C   UNL     1      45.032   4.363  10.480  0.00  0.00    +0.000 A 
ATOM     33  H   UNL     1      45.794   3.999   7.302  0.00  0.00    +0.000 HD
ENDBRANCH  20  23
ENDBRANCH  18  19
ENDBRANCH   4  18
TORSDOF 7
ENDMDL
MODEL 4
REMARK VINA RESULT:    -7.524      2.399      3.363
REMARK INTER + INTRA:         -11.166
REMARK INTER:                 -10.542
REMARK INTRA:                  -0.625
REMARK UNBOUND:                -0.564
REMARK  Name = 
REMARK  8 active torsions:
REMARK  status: ('A' for Active; 'I' for Inactive)
REMARK    1  A    between atoms: C_1  and  O_2
REMARK    2  A    between atoms: O_2  and  C_3
REMARK    3  A    between atoms: C_8  and  N_9
REMARK    4  A    between atoms: N_9  and  C_10
REMARK    5  A    between atoms: C_10  and  C_11
REMARK    6  A    between atoms: C_14  and  C_15
REMARK    7  A    between atoms: C_15  and  N_16
REMARK    8  A    between atoms: C_17  and  C_19
REMARK                            x       y       z     vdW  Elec       q    Type
REMARK                         _______ _______ _______ _____ _____    ______ ____
ROOT
ATOM      1  C   UNL     1      45.024   5.899  12.307  0.00  0.00    +0.000 A 
ATOM      2  C   UNL     1      45.712   7.057  11.939  0.00  0.00    +0.000 A 
ATOM      3  C   UNL     1      46.926   7.352  12.556  0.00  0.00    +0.000 A 
ATOM      4  C   UNL     1      47.449   6.476  13.508  0.00  0.00    +0.000 A 
ATOM      5  C   UNL     1      46.705   5.337  13.800  0.00  0.00    +0.000 A 
ATOM      6  N   UNL     1      45.519   5.026  13.222  0.00  0.00    +0.000 NA
ENDROOT
BRANCH   1   7
ATOM      7  C   UNL     1      43.651   5.621  11.712  0.00  0.00    +0.000 C 
BRANCH   7   8
ATOM      8  N   UNL     1      43.715   5.513  10.250  0.00  0.00    +0.000 N 
ATOM      9  H   UNL     1      44.085   6.384   9.874  0.00  0.00    +0.000 HD
BRANCH   8  15
ATOM     10  C   UNL     1      44.150   3.044  10.033  0.00  0.00    +0.000 A 
ATOM     11  C   UNL     1      44.850   2.017   9.376  0.00  0.00    +0.000 A 
ATOM     12  C   UNL     1      45.776   2.308   8.376  0.00  0.00    +0.000 A 
ATOM     13  C   UNL     1      45.994   3.630   8.005  0.00  0.00    +0.000 A 
ATOM     14  C   UNL     1      45.300   4.656   8.650  0.00  0.00    +0.000 A 
ATOM     15  C   UNL     1      44.398   4.400   9.704  0.00  0.00    +0.000 A 
BRANCH  10  17
ATOM     16  C   UNL     1      43.557   2.178  12.175  0.00  0.00    +0.000 C 
ATOM     17  O   UNL     1      43.162   2.773  10.946  0.00  0.00    +0.000 OA
ENDBRANCH  10  17
ENDBRANCH   8  15
ENDBRANCH   7   8
ENDBRANCH   1   7
BRANCH   4  18
ATOM     18  C   UNL     1      48.739   6.762  14.219  0.00  0.00    +0.000 C 
BRANCH  18  19
ATOM     19  N   UNL     1      48.527   7.030  15.621  0.00  0.00    +0.000 N 
ATOM     20  C   UNL     1      49.339   6.469  16.576  0.00  0.00    +0.000 C 
ATOM     21  O   UNL     1      50.302   5.770  16.275  0.00  0.00    +0.000 OA
ATOM     22  H   UNL     1      47.630   7.418  15.896  0.00  0.00    +0.000 HD
BRANCH  20  23
ATOM     23  C   UNL     1      49.035   6.786  17.978  0.00  0.00    +0.000 A 
ATOM     24  C   UNL     1      48.931   8.112  18.376  0.00  0.00    +0.000 A 
ATOM     25  S   UNL     1      48.535   8.308  20.020  0.00  0.00    +0.000 S 
ATOM     26  C   UNL     1      48.531   6.627  20.275  0.00  0.00    +0.000 A 
ATOM     27  N   UNL     1      48.285   6.104  21.509  0.00  0.00    +0.000 NA
ATOM     28  C   UNL     1      48.348   4.820  21.567  0.00  0.00    +0.000 A 
ATOM     29  N   UNL     1      48.630   4.001  20.502  0.00  0.00    +0.000 N 
ATOM     30  C   UNL     1      48.845   4.479  19.233  0.00  0.00    +0.000 A 
ATOM     31  O   UNL     1      49.037   3.722  18.287  0.00  0.00    +0.000 OA
ATOM     32  C   UNL     1      48.807   5.925  19.117  0.00  0.00    +0.000 A 
ATOM     33  H   UNL     1      48.651   2.999  20.611  0.00  0.00    +0.000 HD
ENDBRANCH  20  23
ENDBRANCH  18  19
ENDBRANCH   4  18
TORSDOF 7
ENDMDL
MODEL 5
REMARK VINA RESULT:    -7.243      1.633      2.308
REMARK INTER + INTRA:         -10.771
REMARK INTER:                  -9.420
REMARK INTRA:                  -1.351
REMARK UNBOUND:                -0.564
REMARK  Name = 
REMARK  8 active torsions:
REMARK  status: ('A' for Active; 'I' for Inactive)
REMARK    1  A    between atoms: C_1  and  O_2
REMARK    2  A    between atoms: O_2  and  C_3
REMARK    3  A    between atoms: C_8  and  N_9
REMARK    4  A    between atoms: N_9  and  C_10
REMARK    5  A    between atoms: C_10  and  C_11
REMARK    6  A    between atoms: C_14  and  C_15
REMARK    7  A    between atoms: C_15  and  N_16
REMARK    8  A    between atoms: C_17  and  C_19
REMARK                            x       y       z     vdW  Elec       q    Type
REMARK                         _______ _______ _______ _____ _____    ______ ____
ROOT
ATOM      1  C   UNL     1      44.706   4.089  11.812  0.00  0.00    +0.000 A 
ATOM      2  C   UNL     1      45.924   3.763  12.412  0.00  0.00    +0.000 A 
ATOM      3  C   UNL     1      46.712   4.779  12.948  0.00  0.00    +0.000 A 
ATOM      4  C   UNL     1      46.263   6.100  12.902  0.00  0.00    +0.000 A 
ATOM      5  C   UNL     1      45.029   6.330  12.301  0.00  0.00    +0.000 A 
ATOM      6  N   UNL     1      44.243   5.365  11.767  0.00  0.00    +0.000 NA
ENDROOT
BRANCH   1   7
ATOM      7  C   UNL     1      43.887   2.998  11.137  0.00  0.00    +0.000 C 
BRANCH   7   8
ATOM      8  N   UNL     1      43.752   3.246   9.697  0.00  0.00    +0.000 N 
ATOM      9  H   UNL     1      43.511   4.225   9.554  0.00  0.00    +0.000 HD
BRANCH   8  15
ATOM     10  C   UNL     1      45.715   3.766   8.210  0.00  0.00    +0.000 A 
ATOM     11  C   UNL     1      46.794   3.272   7.456  0.00  0.00    +0.000 A 
ATOM     12  C   UNL     1      47.031   1.902   7.356  0.00  0.00    +0.000 A 
ATOM     13  C   UNL     1      46.205   1.012   8.031  0.00  0.00    +0.000 A 
ATOM     14  C   UNL     1      45.133   1.493   8.786  0.00  0.00    +0.000 A 
ATOM     15  C   UNL     1      44.832   2.869   8.863  0.00  0.00    +0.000 A 
BRANCH  10  17
ATOM     16  C   UNL     1      46.513   5.804   9.157  0.00  0.00    +0.000 C 
ATOM     17  O   UNL     1      45.527   5.111   8.404  0.00  0.00    +0.000 OA
ENDBRANCH  10  17
ENDBRANCH   8  15
ENDBRANCH   7   8
ENDBRANCH   1   7
BRANCH   4  18
ATOM     18  C   UNL     1      47.086   7.232  13.441  0.00  0.00    +0.000 C 
BRANCH  18  19
ATOM     19  N   UNL     1      47.642   6.918  14.736  0.00  0.00    +0.000 N 
ATOM     20  C   UNL     1      48.997   6.781  14.907  0.00  0.00    +0.000 C 
ATOM     21  O   UNL     1      49.787   6.973  13.986  0.00  0.00    +0.000 OA
ATOM     22  H   UNL     1      47.011   6.550  15.442  0.00  0.00    +0.000 HD
BRANCH  20  23
ATOM     23  C   UNL     1      49.467   6.442  16.257  0.00  0.00    +0.000 A 
ATOM     24  C   UNL     1      50.570   7.099  16.785  0.00  0.00    +0.000 A 
ATOM     25  S   UNL     1      50.961   6.621  18.372  0.00  0.00    +0.000 S 
ATOM     26  C   UNL     1      49.697   5.483  18.397  0.00  0.00    +0.000 A 
ATOM     27  N   UNL     1      49.488   4.690  19.485  0.00  0.00    +0.000 NA
ATOM     28  C   UNL     1      48.522   3.850  19.356  0.00  0.00    +0.000 A 
ATOM     29  N   UNL     1      47.734   3.729  18.238  0.00  0.00    +0.000 N 
ATOM     30  C   UNL     1      47.881   4.533  17.134  0.00  0.00    +0.000 A 
ATOM     31  O   UNL     1      47.126   4.443  16.171  0.00  0.00    +0.000 OA
ATOM     32  C   UNL     1      48.974   5.483  17.220  0.00  0.00    +0.000 A 
ATOM     33  H   UNL     1      46.982   3.058  18.205  0.00  0.00    +0.000 HD
ENDBRANCH  20  23
ENDBRANCH  18  19
ENDBRANCH   4  18
TORSDOF 7
ENDMDL
MODEL 6
REMARK VINA RESULT:    -7.223      4.580      6.663
REMARK INTER + INTRA:         -10.743
REMARK INTER:                  -9.975
REMARK INTRA:                  -0.768
REMARK UNBOUND:                -0.564
REMARK  Name = 
REMARK  8 active torsions:
REMARK  status: ('A' for Active; 'I' for Inactive)
REMARK    1  A    between atoms: C_1  and  O_2
REMARK    2  A    between atoms: O_2  and  C_3
REMARK    3  A    between atoms: C_8  and  N_9
REMARK    4  A    between atoms: N_9  and  C_10
REMARK    5  A    between atoms: C_10  and  C_11
REMARK    6  A    between atoms: C_14  and  C_15
REMARK    7  A    between atoms: C_15  and  N_16
REMARK    8  A    between atoms: C_17  and  C_19
REMARK                            x       y       z     vdW  Elec       q    Type
REMARK                         _______ _______ _______ _____ _____    ______ ____
ROOT
ATOM      1  C   UNL     1      45.060   7.922  11.912  0.00  0.00    +0.000 A 
ATOM      2  C   UNL     1      46.320   7.920  12.512  0.00  0.00    +0.000 A 
ATOM      3  C   UNL     1      46.725   6.804  13.242  0.00  0.00    +0.000 A 
ATOM      4  C   UNL     1      45.880   5.697  13.339  0.00  0.00    +0.000 A 
ATOM      5  C   UNL     1      44.650   5.780  12.694  0.00  0.00    +0.000 A 
ATOM      6  N   UNL     1      44.226   6.852  11.982  0.00  0.00    +0.000 NA
ENDROOT
BRANCH   1   7
ATOM      7  C   UNL     1      44.571   9.174  11.198  0.00  0.00    +0.000 C 
BRANCH   7   8
ATOM      8  N   UNL     1      43.170   9.038  10.783  0.00  0.00    +0.000 N 
ATOM      9  H   UNL     1      42.615   8.760  11.589  0.00  0.00    +0.000 HD
BRANCH   8  15
ATOM     10  C   UNL     1      41.292  10.671  10.406  0.00  0.00    +0.000 A 
ATOM     11  C   UNL     1      40.830  11.809   9.722  0.00  0.00    +0.000 A 
ATOM     12  C   UNL     1      41.627  12.446   8.773  0.00  0.00    +0.000 A 
ATOM     13  C   UNL     1      42.905  11.966   8.515  0.00  0.00    +0.000 A 
ATOM     14  C   UNL     1      43.374  10.839   9.194  0.00  0.00    +0.000 A 
ATOM     15  C   UNL     1      42.573  10.138  10.119  0.00  0.00    +0.000 A 
BRANCH  10  17
ATOM     16  C   UNL     1      39.162  10.319  11.420  0.00  0.00    +0.000 C 
ATOM     17  O   UNL     1      40.565  10.092  11.416  0.00  0.00    +0.000 OA
ENDBRANCH  10  17
ENDBRANCH   8  15
ENDBRANCH   7   8
ENDBRANCH   1   7
BRANCH   4  18
ATOM     18  C   UNL     1      46.258   4.483  14.134  0.00  0.00    +0.000 C 
BRANCH  18  19
ATOM     19  N   UNL     1      47.366   4.750  15.020  0.00  0.00    +0.000 N 
ATOM     20  C   UNL     1      47.404   4.215  16.284  0.00  0.00    +0.000 C 
ATOM     21  O   UNL     1      46.532   3.450  16.687  0.00  0.00    +0.000 OA
ATOM     22  H   UNL     1      47.972   5.534  14.793  0.00  0.00    +0.000 HD
BRANCH  20  23
ATOM     23  C   UNL     1      48.563   4.558  17.118  0.00  0.00    +0.000 A 
ATOM     24  C   UNL     1      48.616   5.795  17.746  0.00  0.00    +0.000 A 
ATOM     25  S   UNL     1      50.004   6.020  18.706  0.00  0.00    +0.000 S 
ATOM     26  C   UNL     1      50.611   4.489  18.283  0.00  0.00    +0.000 A 
ATOM     27  N   UNL     1      51.814   4.056  18.754  0.00  0.00    +0.000 NA
ATOM     28  C   UNL     1      52.168   2.894  18.327  0.00  0.00    +0.000 A 
ATOM     29  N   UNL     1      51.427   2.116  17.473  0.00  0.00    +0.000 N 
ATOM     30  C   UNL     1      50.192   2.493  17.004  0.00  0.00    +0.000 A 
ATOM     31  O   UNL     1      49.526   1.753  16.288  0.00  0.00    +0.000 OA
ATOM     32  C   UNL     1      49.756   3.806  17.438  0.00  0.00    +0.000 A 
ATOM     33  H   UNL     1      51.755   1.207  17.186  0.00  0.00    +0.000 HD
ENDBRANCH  20  23
ENDBRANCH  18  19
ENDBRANCH   4  18
TORSDOF 7
ENDMDL
MODEL 7
REMARK VINA RESULT:    -7.120      4.357     10.137
REMARK INTER + INTRA:         -10.598
REMARK INTER:                  -9.434
REMARK INTRA:                  -1.164
REMARK UNBOUND:                -0.564
REMARK  Name = 
REMARK  8 active torsions:
REMARK  status: ('A' for Active; 'I' for Inactive)
REMARK    1  A    between atoms: C_1  and  O_2
REMARK    2  A    between atoms: O_2  and  C_3
REMARK    3  A    between atoms: C_8  and  N_9
REMARK    4  A    between atoms: N_9  and  C_10
REMARK    5  A    between atoms: C_10  and  C_11
REMARK    6  A    between atoms: C_14  and  C_15
REMARK    7  A    between atoms: C_15  and  N_16
REMARK    8  A    between atoms: C_17  and  C_19
REMARK                            x       y       z     vdW  Elec       q    Type
REMARK                         _______ _______ _______ _____ _____    ______ ____
ROOT
ATOM      1  C   UNL     1      48.985   5.524  19.924  0.00  0.00    +0.000 A 
ATOM      2  C   UNL     1      47.633   5.646  19.599  0.00  0.00    +0.000 A 
ATOM      3  C   UNL     1      47.149   5.020  18.451  0.00  0.00    +0.000 A 
ATOM      4  C   UNL     1      48.014   4.259  17.663  0.00  0.00    +0.000 A 
ATOM      5  C   UNL     1      49.341   4.177  18.073  0.00  0.00    +0.000 A 
ATOM      6  N   UNL     1      49.842   4.779  19.179  0.00  0.00    +0.000 NA
ENDROOT
BRANCH   1   7
ATOM      7  C   UNL     1      49.541   6.287  21.118  0.00  0.00    +0.000 C 
BRANCH   7   8
ATOM      8  N   UNL     1      49.910   7.658  20.751  0.00  0.00    +0.000 N 
ATOM      9  H   UNL     1      50.577   7.624  19.983  0.00  0.00    +0.000 HD
BRANCH   8  15
ATOM     10  C   UNL     1      48.592   9.129  19.191  0.00  0.00    +0.000 A 
ATOM     11  C   UNL     1      47.479   9.970  19.011  0.00  0.00    +0.000 A 
ATOM     12  C   UNL     1      46.610  10.243  20.066  0.00  0.00    +0.000 A 
ATOM     13  C   UNL     1      46.830   9.657  21.306  0.00  0.00    +0.000 A 
ATOM     14  C   UNL     1      47.931   8.817  21.493  0.00  0.00    +0.000 A 
ATOM     15  C   UNL     1      48.860   8.565  20.463  0.00  0.00    +0.000 A 
BRANCH  10  17
ATOM     16  C   UNL     1      48.779   8.125  17.035  0.00  0.00    +0.000 C 
ATOM     17  O   UNL     1      49.399   8.767  18.141  0.00  0.00    +0.000 OA
ENDBRANCH  10  17
ENDBRANCH   8  15
ENDBRANCH   7   8
ENDBRANCH   1   7
BRANCH   4  18
ATOM     18  C   UNL     1      47.548   3.586  16.405  0.00  0.00    +0.000 C 
BRANCH  18  19
ATOM     19  N   UNL     1      46.892   4.515  15.516  0.00  0.00    +0.000 N 
ATOM     20  C   UNL     1      46.757   4.235  14.179  0.00  0.00    +0.000 C 
ATOM     21  O   UNL     1      47.136   3.170  13.701  0.00  0.00    +0.000 OA
ATOM     22  H   UNL     1      46.769   5.470  15.840  0.00  0.00    +0.000 HD
BRANCH  20  23
ATOM     23  C   UNL     1      46.090   5.248  13.351  0.00  0.00    +0.000 A 
ATOM     24  C   UNL     1      46.749   6.433  13.051  0.00  0.00    +0.000 A 
ATOM     25  S   UNL     1      45.857   7.482  12.050  0.00  0.00    +0.000 S 
ATOM     26  C   UNL     1      44.535   6.412  12.016  0.00  0.00    +0.000 A 
ATOM     27  N   UNL     1      43.395   6.727  11.339  0.00  0.00    +0.000 NA
ATOM     28  C   UNL     1      42.462   5.844  11.426  0.00  0.00    +0.000 A 
ATOM     29  N   UNL     1      42.561   4.666  12.125  0.00  0.00    +0.000 N 
ATOM     30  C   UNL     1      43.704   4.289  12.788  0.00  0.00    +0.000 A 
ATOM     31  O   UNL     1      43.786   3.205  13.356  0.00  0.00    +0.000 OA
ATOM     32  C   UNL     1      44.779   5.261  12.740  0.00  0.00    +0.000 A 
ATOM     33  H   UNL     1      41.797   4.010  12.143  0.00  0.00    +0.000 HD
ENDBRANCH  20  23
ENDBRANCH  18  19
ENDBRANCH   4  18
TORSDOF 7
ENDMDL
MODEL 8
REMARK VINA RESULT:    -6.962      2.544      3.721
REMARK INTER + INTRA:         -10.375
REMARK INTER:                  -9.120
REMARK INTRA:                  -1.255
REMARK UNBOUND:                -0.564
REMARK  Name = 
REMARK  8 active torsions:
REMARK  status: ('A' for Active; 'I' for Inactive)
REMARK    1  A    between atoms: C_1  and  O_2
REMARK    2  A    between atoms: O_2  and  C_3
REMARK    3  A    between atoms: C_8  and  N_9
REMARK    4  A    between atoms: N_9  and  C_10
REMARK    5  A    between atoms: C_10  and  C_11
REMARK    6  A    between atoms: C_14  and  C_15
REMARK    7  A    between atoms: C_15  and  N_16
REMARK    8  A    between atoms: C_17  and  C_19
REMARK                            x       y       z     vdW  Elec       q    Type
REMARK                         _______ _______ _______ _____ _____    ______ ____
ROOT
ATOM      1  C   UNL     1      44.680   4.438  12.458  0.00  0.00    +0.000 A 
ATOM      2  C   UNL     1      45.712   3.605  12.891  0.00  0.00    +0.000 A 
ATOM      3  C   UNL     1      46.829   4.168  13.507  0.00  0.00    +0.000 A 
ATOM      4  C   UNL     1      46.886   5.549  13.705  0.00  0.00    +0.000 A 
ATOM      5  C   UNL     1      45.804   6.300  13.258  0.00  0.00    +0.000 A 
ATOM      6  N   UNL     1      44.708   5.782  12.651  0.00  0.00    +0.000 NA
ENDROOT
BRANCH   1   7
ATOM      7  C   UNL     1      43.504   3.842  11.696  0.00  0.00    +0.000 C 
BRANCH   7   8
ATOM      8  N   UNL     1      43.520   4.250  10.287  0.00  0.00    +0.000 N 
ATOM      9  H   UNL     1      43.644   5.259  10.239  0.00  0.00    +0.000 HD
BRANCH   8  15
ATOM     10  C   UNL     1      45.436   4.228   8.655  0.00  0.00    +0.000 A 
ATOM     11  C   UNL     1      46.324   3.461   7.880  0.00  0.00    +0.000 A 
ATOM     12  C   UNL     1      46.251   2.069   7.874  0.00  0.00    +0.000 A 
ATOM     13  C   UNL     1      45.303   1.428   8.661  0.00  0.00    +0.000 A 
ATOM     14  C   UNL     1      44.418   2.181   9.436  0.00  0.00    +0.000 A 
ATOM     15  C   UNL     1      44.429   3.592   9.424  0.00  0.00    +0.000 A 
BRANCH  10  17
ATOM     16  C   UNL     1      46.497   6.092   9.698  0.00  0.00    +0.000 C 
ATOM     17  O   UNL     1      45.558   5.591   8.755  0.00  0.00    +0.000 OA
ENDBRANCH  10  17
ENDBRANCH   8  15
ENDBRANCH   7   8
ENDBRANCH   1   7
BRANCH   4  18
ATOM     18  C   UNL     1      48.077   6.205  14.339  0.00  0.00    +0.000 C 
BRANCH  18  19
ATOM     19  N   UNL     1      47.984   6.201  15.780  0.00  0.00    +0.000 N 
ATOM     20  C   UNL     1      49.112   6.129  16.559  0.00  0.00    +0.000 C 
ATOM     21  O   UNL     1      50.237   6.121  16.067  0.00  0.00    +0.000 OA
ATOM     22  H   UNL     1      47.079   5.992  16.192  0.00  0.00    +0.000 HD
BRANCH  20  23
ATOM     23  C   UNL     1      48.916   6.113  18.014  0.00  0.00    +0.000 A 
ATOM     24  C   UNL     1      49.284   4.991  18.745  0.00  0.00    +0.000 A 
ATOM     25  S   UNL     1      49.029   5.148  20.421  0.00  0.00    +0.000 S 
ATOM     26  C   UNL     1      48.373   6.706  20.230  0.00  0.00    +0.000 A 
ATOM     27  N   UNL     1      47.916   7.411  21.302  0.00  0.00    +0.000 NA
ATOM     28  C   UNL     1      47.414   8.560  21.011  0.00  0.00    +0.000 A 
ATOM     29  N   UNL     1      47.329   9.078  19.742  0.00  0.00    +0.000 N 
ATOM     30  C   UNL     1      47.812   8.421  18.637  0.00  0.00    +0.000 A 
ATOM     31  O   UNL     1      47.776   8.931  17.522  0.00  0.00    +0.000 OA
ATOM     32  C   UNL     1      48.369   7.109  18.908  0.00  0.00    +0.000 A 
ATOM     33  H   UNL     1      46.935   9.992  19.581  0.00  0.00    +0.000 HD
ENDBRANCH  20  23
ENDBRANCH  18  19
ENDBRANCH   4  18
TORSDOF 7
ENDMDL
MODEL 9
REMARK VINA RESULT:    -6.833      4.644      6.847
REMARK INTER + INTRA:         -10.193
REMARK INTER:                  -9.167
REMARK INTRA:                  -1.026
REMARK UNBOUND:                -0.564
REMARK  Name = 
REMARK  8 active torsions:
REMARK  status: ('A' for Active; 'I' for Inactive)
REMARK    1  A    between atoms: C_1  and  O_2
REMARK    2  A    between atoms: O_2  and  C_3
REMARK    3  A    between atoms: C_8  and  N_9
REMARK    4  A    between atoms: N_9  and  C_10
REMARK    5  A    between atoms: C_10  and  C_11
REMARK    6  A    between atoms: C_14  and  C_15
REMARK    7  A    between atoms: C_15  and  N_16
REMARK    8  A    between atoms: C_17  and  C_19
REMARK                            x       y       z     vdW  Elec       q    Type
REMARK                         _______ _______ _______ _____ _____    ______ ____
ROOT
ATOM      1  C   UNL     1      45.331   6.916  12.177  0.00  0.00    +0.000 A 
ATOM      2  C   UNL     1      46.721   6.849  12.285  0.00  0.00    +0.000 A 
ATOM      3  C   UNL     1      47.295   5.841  13.059  0.00  0.00    +0.000 A 
ATOM      4  C   UNL     1      46.477   4.901  13.688  0.00  0.00    +0.000 A 
ATOM      5  C   UNL     1      45.103   5.035  13.509  0.00  0.00    +0.000 A 
ATOM      6  N   UNL     1      44.516   6.005  12.769  0.00  0.00    +0.000 NA
ENDROOT
BRANCH   1   7
ATOM      7  C   UNL     1      44.693   8.070  11.417  0.00  0.00    +0.000 C 
BRANCH   7   8
ATOM      8  N   UNL     1      44.575   9.265  12.261  0.00  0.00    +0.000 N 
ATOM      9  H   UNL     1      44.912   9.040  13.195  0.00  0.00    +0.000 HD
BRANCH   8  15
ATOM     10  C   UNL     1      44.471  11.669  11.525  0.00  0.00    +0.000 A 
ATOM     11  C   UNL     1      45.175  12.816  11.119  0.00  0.00    +0.000 A 
ATOM     12  C   UNL     1      46.564  12.797  10.996  0.00  0.00    +0.000 A 
ATOM     13  C   UNL     1      47.265  11.637  11.300  0.00  0.00    +0.000 A 
ATOM     14  C   UNL     1      46.573  10.494  11.707  0.00  0.00    +0.000 A 
ATOM     15  C   UNL     1      45.165  10.462  11.790  0.00  0.00    +0.000 A 
BRANCH  10  17
ATOM     16  C   UNL     1      42.420  12.879  11.381  0.00  0.00    +0.000 C 
ATOM     17  O   UNL     1      43.117  11.697  11.752  0.00  0.00    +0.000 OA
ENDBRANCH  10  17
ENDBRANCH   8  15
ENDBRANCH   7   8
ENDBRANCH   1   7
BRANCH   4  18
ATOM     18  C   UNL     1      47.045   3.814  14.552  0.00  0.00    +0.000 C 
BRANCH  18  19
ATOM     19  N   UNL     1      47.723   4.351  15.707  0.00  0.00    +0.000 N 
ATOM     20  C   UNL     1      47.339   3.999  16.977  0.00  0.00    +0.000 C 
ATOM     21  O   UNL     1      46.448   3.178  17.178  0.00  0.00    +0.000 OA
ATOM     22  H   UNL     1      48.302   5.175  15.573  0.00  0.00    +0.000 HD
BRANCH  20  23
ATOM     23  C   UNL     1      48.077   4.610  18.090  0.00  0.00    +0.000 A 
ATOM     24  C   UNL     1      47.436   5.515  18.926  0.00  0.00    +0.000 A 
ATOM     25  S   UNL     1      48.418   6.100  20.188  0.00  0.00    +0.000 S 
ATOM     26  C   UNL     1      49.752   5.201  19.638  0.00  0.00    +0.000 A 
ATOM     27  N   UNL     1      50.956   5.273  20.274  0.00  0.00    +0.000 NA
ATOM     28  C   UNL     1      51.888   4.570  19.732  0.00  0.00    +0.000 A 
ATOM     29  N   UNL     1      51.731   3.791  18.612  0.00  0.00    +0.000 N 
ATOM     30  C   UNL     1      50.528   3.657  17.963  0.00  0.00    +0.000 A 
ATOM     31  O   UNL     1      50.401   2.908  16.999  0.00  0.00    +0.000 OA
ATOM     32  C   UNL     1      49.448   4.448  18.521  0.00  0.00    +0.000 A 
ATOM     33  H   UNL     1      52.499   3.252  18.245  0.00  0.00    +0.000 HD
ENDBRANCH  20  23
ENDBRANCH  18  19
ENDBRANCH   4  18
TORSDOF 7
ENDMDL
