MODEL 1
REMARK VINA RESULT:    -8.201      0.000      0.000
REMARK INTER + INTRA:         -12.762
REMARK INTER:                 -11.556
REMARK INTRA:                  -1.206
REMARK UNBOUND:                -1.206
REMARK  Name = 
REMARK  7 active torsions:
REMARK  status: ('A' for Active; 'I' for Inactive)
REMARK    1  A    between atoms: C_2  and  C_20
REMARK    2  A    between atoms: N_3  and  C_4
REMARK    3  A    between atoms: C_4  and  C_5
REMARK    4  A    between atoms: C_8  and  C_9
REMARK    5  A    between atoms: C_9  and  N_10
REMARK    6  A    between atoms: N_10  and  C_11
REMARK    7  A    between atoms: C_11  and  C_12
REMARK                            x       y       z     vdW  Elec       q    Type
REMARK                         _______ _______ _______ _____ _____    ______ ____
ROOT
ATOM      1  C   UNL     1      46.859   8.103  12.731  0.00  0.00    +0.000 C 
ENDROOT
BRANCH   1   2
ATOM      2  C   UNL     1      45.976   6.978  12.245  0.00  0.00    +0.000 A 
ATOM      3  C   UNL     1      46.320   6.275  11.088  0.00  0.00    +0.000 A 
ATOM      4  C   UNL     1      45.536   5.202  10.647  0.00  0.00    +0.000 A 
ATOM      5  C   UNL     1      44.392   4.803  11.356  0.00  0.00    +0.000 A 
ATOM      6  C   UNL     1      44.020   5.548  12.482  0.00  0.00    +0.000 A 
ATOM      7  C   UNL     1      44.795   6.633  12.917  0.00  0.00    +0.000 A 
BRANCH   5   8
ATOM      8  C   UNL     1      43.590   3.588  10.922  0.00  0.00    +0.000 C 
BRANCH   8   9
ATOM      9  N   UNL     1      43.863   3.267   9.527  0.00  0.00    +0.000 NA
ATOM     10  H   UNL     1      44.488   3.968   9.127  0.00  0.00    +0.000 HD
BRANCH   9  11
ATOM     11  C   UNL     1      44.500   1.952   9.333  0.00  0.00    +0.000 C 
BRANCH  11  12
ATOM     12  C   UNL     1      45.693   2.038   8.383  0.00  0.00    +0.000 A 
ATOM     13  N   UNL     1      45.982   3.252   7.855  0.00  0.00    +0.000 NA
ATOM     14  C   UNL     1      47.007   3.300   6.982  0.00  0.00    +0.000 A 
ATOM     15  C   UNL     1      47.756   2.204   6.629  0.00  0.00    +0.000 A 
ATOM     16  C   UNL     1      47.398   1.022   7.234  0.00  0.00    +0.000 A 
ATOM     17  N   UNL     1      46.381   0.908   8.111  0.00  0.00    +0.000 NA
ENDBRANCH  11  12
ENDBRANCH   9  11
ENDBRANCH   8   9
ENDBRANCH   5   8
ENDBRANCH   1   2
BRANCH   1  20
ATOM     18  O   UNL     1      49.114   6.516  13.332  0.00  0.00    +0.000 OA
ATOM     19  C   UNL     1      48.439   6.996  14.237  0.00  0.00    +0.000 C 
ATOM     20  N   UNL     1      47.345   7.814  14.047  0.00  0.00    +0.000 N 
ATOM     21  H   UNL     1      46.621   7.726  14.746  0.00  0.00    +0.000 HD
BRANCH  19  22
ATOM     22  C   UNL     1      48.472   6.555  15.616  0.00  0.00    +0.000 A 
ATOM     23  C   UNL     1      49.072   7.327  16.594  0.00  0.00    +0.000 A 
ATOM     24  S   UNL     1      49.789   6.322  17.787  0.00  0.00    +0.000 S 
ATOM     25  C   UNL     1      49.047   4.928  17.140  0.00  0.00    +0.000 A 
ATOM     26  N   UNL     1      49.343   3.683  17.596  0.00  0.00    +0.000 NA
ATOM     27  C   UNL     1      48.641   2.738  17.055  0.00  0.00    +0.000 A 
ATOM     28  N   UNL     1      47.653   2.933  16.120  0.00  0.00    +0.000 N 
ATOM     29  C   UNL     1      47.336   4.171  15.597  0.00  0.00    +0.000 A 
ATOM     30  O   UNL     1      46.439   4.331  14.791  0.00  0.00    +0.000 OA
ATOM     31  C   UNL     1      48.172   5.242  16.123  0.00  0.00    +0.000 A 
ATOM     32  H   UNL     1      47.086   2.158  15.805  0.00  0.00    +0.000 HD
ENDBRANCH  19  22
ENDBRANCH   1  20
TORSDOF 7
ENDMDL
MODEL 2
REMARK VINA RESULT:    -7.713      1.563      1.770
REMARK INTER + INTRA:         -12.075
REMARK INTER:                 -10.916
REMARK INTRA:                  -1.159
REMARK UNBOUND:                -1.206
REMARK  Name = 
REMARK  7 active torsions:
REMARK  status: ('A' for Active; 'I' for Inactive)
REMARK    1  A    between atoms: C_2  and  C_20
REMARK    2  A    between atoms: N_3  and  C_4
REMARK    3  A    between atoms: C_4  and  C_5
REMARK    4  A    between atoms: C_8  and  C_9
REMARK    5  A    between atoms: C_9  and  N_10
REMARK    6  A    between atoms: N_10  and  C_11
REMARK    7  A    between atoms: C_11  and  C_12
REMARK                            x       y       z     vdW  Elec       q    Type
REMARK                         _______ _______ _______ _____ _____    ______ ____
ROOT
ATOM      1  C   UNL     1      48.314   6.439  13.552  0.00  0.00    +0.000 C 
ENDROOT
BRANCH   1   2
ATOM      2  C   UNL     1      46.989   6.128  12.897  0.00  0.00    +0.000 A 
ATOM      3  C   UNL     1      46.681   6.686  11.654  0.00  0.00    +0.000 A 
ATOM      4  C   UNL     1      45.476   6.374  11.012  0.00  0.00    +0.000 A 
ATOM      5  C   UNL     1      44.553   5.493  11.597  0.00  0.00    +0.000 A 
ATOM      6  C   UNL     1      44.841   4.982  12.869  0.00  0.00    +0.000 A 
ATOM      7  C   UNL     1      46.041   5.305  13.520  0.00  0.00    +0.000 A 
BRANCH   5   8
ATOM      8  C   UNL     1      43.284   5.093  10.863  0.00  0.00    +0.000 C 
BRANCH   8   9
ATOM      9  N   UNL     1      43.608   4.438   9.602  0.00  0.00    +0.000 NA
ATOM     10  H   UNL     1      44.260   5.016   9.071  0.00  0.00    +0.000 HD
BRANCH   9  11
ATOM     11  C   UNL     1      44.230   3.112   9.763  0.00  0.00    +0.000 C 
BRANCH  11  12
ATOM     12  C   UNL     1      45.341   2.882   8.740  0.00  0.00    +0.000 A 
ATOM     13  N   UNL     1      45.729   3.945   7.993  0.00  0.00    +0.000 NA
ATOM     14  C   UNL     1      46.675   3.713   7.063  0.00  0.00    +0.000 A 
ATOM     15  C   UNL     1      47.255   2.485   6.859  0.00  0.00    +0.000 A 
ATOM     16  C   UNL     1      46.808   1.476   7.679  0.00  0.00    +0.000 A 
ATOM     17  N   UNL     1      45.862   1.642   8.624  0.00  0.00    +0.000 NA
ENDBRANCH  11  12
ENDBRANCH   9  11
ENDBRANCH   8   9
ENDBRANCH   5   8
ENDBRANCH   1   2
BRANCH   1  20
ATOM     18  O   UNL     1      50.339   6.674  15.504  0.00  0.00    +0.000 OA
ATOM     19  C   UNL     1      49.166   6.870  15.805  0.00  0.00    +0.000 C 
ATOM     20  N   UNL     1      48.111   6.817  14.918  0.00  0.00    +0.000 N 
ATOM     21  H   UNL     1      47.239   6.495  15.313  0.00  0.00    +0.000 HD
BRANCH  19  22
ATOM     22  C   UNL     1      48.652   6.881  17.159  0.00  0.00    +0.000 A 
ATOM     23  C   UNL     1      48.671   8.039  17.917  0.00  0.00    +0.000 A 
ATOM     24  S   UNL     1      48.915   7.660  19.573  0.00  0.00    +0.000 S 
ATOM     25  C   UNL     1      48.702   5.992  19.283  0.00  0.00    +0.000 A 
ATOM     26  N   UNL     1      48.920   5.064  20.251  0.00  0.00    +0.000 NA
ATOM     27  C   UNL     1      48.641   3.849  19.894  0.00  0.00    +0.000 A 
ATOM     28  N   UNL     1      48.139   3.488  18.667  0.00  0.00    +0.000 N 
ATOM     29  C   UNL     1      47.934   4.385  17.637  0.00  0.00    +0.000 A 
ATOM     30  O   UNL     1      47.462   4.054  16.565  0.00  0.00    +0.000 OA
ATOM     31  C   UNL     1      48.323   5.746  17.981  0.00  0.00    +0.000 A 
ATOM     32  H   UNL     1      47.864   2.533  18.488  0.00  0.00    +0.000 HD
ENDBRANCH  19  22
ENDBRANCH   1  20
TORSDOF 7
ENDMDL
MODEL 3
REMARK VINA RESULT:    -7.173      2.517      3.135
REMARK INTER + INTRA:         -11.314
REMARK INTER:                 -10.449
REMARK INTRA:                  -0.865
REMARK UNBOUND:                -1.206
REMARK  Name = 
REMARK  7 active torsions:
REMARK  status: ('A' for Active; 'I' for Inactive)
REMARK    1  A    between atoms: C_2  and  C_20
REMARK    2  A    between atoms: N_3  and  C_4
REMARK    3  A    between atoms: C_4  and  C_5
REMARK    4  A    between atoms: C_8  and  C_9
REMARK    5  A    between atoms: C_9  and  N_10
REMARK    6  A    between atoms: N_10  and  C_11
REMARK    7  A    between atoms: C_11  and  C_12
REMARK                            x       y       z     vdW  Elec       q    Type
REMARK                         _______ _______ _______ _____ _____    ______ ____
ROOT
ATOM      1  C   UNL     1      47.504   4.421  15.363  0.00  0.00    +0.000 C 
ENDROOT
BRANCH   1   2
ATOM      2  C   UNL     1      46.907   4.801  14.029  0.00  0.00    +0.000 A 
ATOM      3  C   UNL     1      46.053   3.912  13.371  0.00  0.00    +0.000 A 
ATOM      4  C   UNL     1      45.456   4.265  12.155  0.00  0.00    +0.000 A 
ATOM      5  C   UNL     1      45.696   5.518  11.570  0.00  0.00    +0.000 A 
ATOM      6  C   UNL     1      46.598   6.383  12.203  0.00  0.00    +0.000 A 
ATOM      7  C   UNL     1      47.208   6.024  13.414  0.00  0.00    +0.000 A 
BRANCH   5   8
ATOM      8  C   UNL     1      44.984   5.931  10.292  0.00  0.00    +0.000 C 
BRANCH   8   9
ATOM      9  N   UNL     1      45.598   5.291   9.135  0.00  0.00    +0.000 NA
ATOM     10  H   UNL     1      46.556   5.019   9.359  0.00  0.00    +0.000 HD
BRANCH   9  11
ATOM     11  C   UNL     1      44.893   4.079   8.682  0.00  0.00    +0.000 C 
BRANCH  11  12
ATOM     12  C   UNL     1      45.815   3.153   7.891  0.00  0.00    +0.000 A 
ATOM     13  N   UNL     1      46.370   3.647   6.758  0.00  0.00    +0.000 NA
ATOM     14  C   UNL     1      47.142   2.801   6.048  0.00  0.00    +0.000 A 
ATOM     15  C   UNL     1      47.391   1.504   6.423  0.00  0.00    +0.000 A 
ATOM     16  C   UNL     1      46.798   1.102   7.597  0.00  0.00    +0.000 A 
ATOM     17  N   UNL     1      46.013   1.898   8.350  0.00  0.00    +0.000 NA
ENDBRANCH  11  12
ENDBRANCH   9  11
ENDBRANCH   8   9
ENDBRANCH   5   8
ENDBRANCH   1   2
BRANCH   1  20
ATOM     18  O   UNL     1      49.960   4.949  16.650  0.00  0.00    +0.000 OA
ATOM     19  C   UNL     1      49.032   5.747  16.741  0.00  0.00    +0.000 C 
ATOM     20  N   UNL     1      47.810   5.599  16.118  0.00  0.00    +0.000 N 
ATOM     21  H   UNL     1      47.025   5.981  16.627  0.00  0.00    +0.000 HD
BRANCH  19  22
ATOM     22  C   UNL     1      48.939   6.796  17.734  0.00  0.00    +0.000 A 
ATOM     23  C   UNL     1      49.745   7.918  17.659  0.00  0.00    +0.000 A 
ATOM     24  S   UNL     1      50.137   8.474  19.235  0.00  0.00    +0.000 S 
ATOM     25  C   UNL     1      49.014   7.408  19.953  0.00  0.00    +0.000 A 
ATOM     26  N   UNL     1      48.931   7.256  21.301  0.00  0.00    +0.000 NA
ATOM     27  C   UNL     1      47.978   6.468  21.689  0.00  0.00    +0.000 A 
ATOM     28  N   UNL     1      47.088   5.842  20.850  0.00  0.00    +0.000 N 
ATOM     29  C   UNL     1      47.149   5.932  19.474  0.00  0.00    +0.000 A 
ATOM     30  O   UNL     1      46.336   5.395  18.745  0.00  0.00    +0.000 OA
ATOM     31  C   UNL     1      48.267   6.742  19.006  0.00  0.00    +0.000 A 
ATOM     32  H   UNL     1      46.317   5.310  21.228  0.00  0.00    +0.000 HD
ENDBRANCH  19  22
ENDBRANCH   1  20
TORSDOF 7
ENDMDL
MODEL 4
REMARK VINA RESULT:    -7.095      2.017      2.712
REMARK INTER + INTRA:         -11.204
REMARK INTER:                 -10.287
REMARK INTRA:                  -0.918
REMARK UNBOUND:                -1.206
REMARK  Name = 
REMARK  7 active torsions:
REMARK  status: ('A' for Active; 'I' for Inactive)
REMARK    1  A    between atoms: C_2  and  C_20
REMARK    2  A    between atoms: N_3  and  C_4
REMARK    3  A    between atoms: C_4  and  C_5
REMARK    4  A    between atoms: C_8  and  C_9
REMARK    5  A    between atoms: C_9  and  N_10
REMARK    6  A    between atoms: N_10  and  C_11
REMARK    7  A    between atoms: C_11  and  C_12
REMARK                            x       y       z     vdW  Elec       q    Type
REMARK                         _______ _______ _______ _____ _____    ______ ____
ROOT
ATOM      1  C   UNL     1      49.003   7.406  13.493  0.00  0.00    +0.000 C 
ENDROOT
BRANCH   1   2
ATOM      2  C   UNL     1      47.875   6.559  12.952  0.00  0.00    +0.000 A 
ATOM      3  C   UNL     1      47.433   5.448  13.674  0.00  0.00    +0.000 A 
ATOM      4  C   UNL     1      46.360   4.678  13.210  0.00  0.00    +0.000 A 
ATOM      5  C   UNL     1      45.701   5.003  12.014  0.00  0.00    +0.000 A 
ATOM      6  C   UNL     1      46.185   6.083  11.265  0.00  0.00    +0.000 A 
ATOM      7  C   UNL     1      47.270   6.847  11.721  0.00  0.00    +0.000 A 
BRANCH   5   8
ATOM      8  C   UNL     1      44.486   4.215  11.554  0.00  0.00    +0.000 C 
BRANCH   8   9
ATOM      9  N   UNL     1      44.888   2.915  11.030  0.00  0.00    +0.000 NA
ATOM     10  H   UNL     1      44.574   2.177  11.661  0.00  0.00    +0.000 HD
BRANCH   9  11
ATOM     11  C   UNL     1      44.336   2.614   9.697  0.00  0.00    +0.000 C 
BRANCH  11  12
ATOM     12  C   UNL     1      45.437   2.486   8.646  0.00  0.00    +0.000 A 
ATOM     13  N   UNL     1      45.961   1.253   8.442  0.00  0.00    +0.000 NA
ATOM     14  C   UNL     1      46.964   1.167   7.546  0.00  0.00    +0.000 A 
ATOM     15  C   UNL     1      47.451   2.243   6.845  0.00  0.00    +0.000 A 
ATOM     16  C   UNL     1      46.840   3.447   7.108  0.00  0.00    +0.000 A 
ATOM     17  N   UNL     1      45.836   3.599   7.994  0.00  0.00    +0.000 NA
ENDBRANCH  11  12
ENDBRANCH   9  11
ENDBRANCH   8   9
ENDBRANCH   5   8
ENDBRANCH   1   2
BRANCH   1  20
ATOM     18  O   UNL     1      51.441   7.612  14.899  0.00  0.00    +0.000 OA
ATOM     19  C   UNL     1      50.423   7.252  15.480  0.00  0.00    +0.000 C 
ATOM     20  N   UNL     1      49.179   7.157  14.892  0.00  0.00    +0.000 N 
ATOM     21  H   UNL     1      48.589   6.424  15.261  0.00  0.00    +0.000 HD
BRANCH  19  22
ATOM     22  C   UNL     1      50.398   6.580  16.763  0.00  0.00    +0.000 A 
ATOM     23  C   UNL     1      51.302   5.574  17.056  0.00  0.00    +0.000 A 
ATOM     24  S   UNL     1      50.573   4.399  18.073  0.00  0.00    +0.000 S 
ATOM     25  C   UNL     1      49.203   5.385  18.327  0.00  0.00    +0.000 A 
ATOM     26  N   UNL     1      48.110   4.933  18.995  0.00  0.00    +0.000 NA
ATOM     27  C   UNL     1      47.187   5.826  19.170  0.00  0.00    +0.000 A 
ATOM     28  N   UNL     1      47.275   7.134  18.759  0.00  0.00    +0.000 N 
ATOM     29  C   UNL     1      48.345   7.637  18.046  0.00  0.00    +0.000 A 
ATOM     30  O   UNL     1      48.421   8.805  17.714  0.00  0.00    +0.000 OA
ATOM     31  C   UNL     1      49.360   6.630  17.758  0.00  0.00    +0.000 A 
ATOM     32  H   UNL     1      46.553   7.797  19.006  0.00  0.00    +0.000 HD
ENDBRANCH  19  22
ENDBRANCH   1  20
TORSDOF 7
ENDMDL
MODEL 5
REMARK VINA RESULT:    -6.826      3.026      7.719
REMARK INTER + INTRA:         -10.824
REMARK INTER:                  -9.454
REMARK INTRA:                  -1.370
REMARK UNBOUND:                -1.206
REMARK  Name = 
REMARK  7 active torsions:
REMARK  status: ('A' for Active; 'I' for Inactive)
REMARK    1  A    between atoms: C_2  and  C_20
REMARK    2  A    between atoms: N_3  and  C_4
REMARK    3  A    between atoms: C_4  and  C_5
REMARK    4  A    between atoms: C_8  and  C_9
REMARK    5  A    between atoms: C_9  and  N_10
REMARK    6  A    between atoms: N_10  and  C_11
REMARK    7  A    between atoms: C_11  and  C_12
REMARK                            x       y       z     vdW  Elec       q    Type
REMARK                         _______ _______ _______ _____ _____    ______ ____
ROOT
ATOM      1  C   UNL     1      46.639   8.400  12.974  0.00  0.00    +0.000 C 
ENDROOT
BRANCH   1   2
ATOM      2  C   UNL     1      47.778   8.205  13.947  0.00  0.00    +0.000 A 
ATOM      3  C   UNL     1      48.027   9.169  14.926  0.00  0.00    +0.000 A 
ATOM      4  C   UNL     1      49.051   8.984  15.863  0.00  0.00    +0.000 A 
ATOM      5  C   UNL     1      49.847   7.828  15.845  0.00  0.00    +0.000 A 
ATOM      6  C   UNL     1      49.631   6.892  14.825  0.00  0.00    +0.000 A 
ATOM      7  C   UNL     1      48.616   7.083  13.877  0.00  0.00    +0.000 A 
BRANCH   5   8
ATOM      8  C   UNL     1      50.903   7.592  16.912  0.00  0.00    +0.000 C 
BRANCH   8   9
ATOM      9  N   UNL     1      51.328   6.198  16.910  0.00  0.00    +0.000 NA
ATOM     10  H   UNL     1      52.348   6.148  16.941  0.00  0.00    +0.000 HD
BRANCH   9  11
ATOM     11  C   UNL     1      50.818   5.419  18.053  0.00  0.00    +0.000 C 
BRANCH  11  12
ATOM     12  C   UNL     1      49.556   4.641  17.687  0.00  0.00    +0.000 A 
ATOM     13  N   UNL     1      48.365   5.194  18.023  0.00  0.00    +0.000 NA
ATOM     14  C   UNL     1      47.264   4.472  17.736  0.00  0.00    +0.000 A 
ATOM     15  C   UNL     1      47.300   3.243  17.123  0.00  0.00    +0.000 A 
ATOM     16  C   UNL     1      48.554   2.777  16.805  0.00  0.00    +0.000 A 
ATOM     17  N   UNL     1      49.692   3.448  17.069  0.00  0.00    +0.000 NA
ENDBRANCH  11  12
ENDBRANCH   9  11
ENDBRANCH   8   9
ENDBRANCH   5   8
ENDBRANCH   1   2
BRANCH   1  20
ATOM     18  O   UNL     1      44.434   7.736  11.341  0.00  0.00    +0.000 OA
ATOM     19  C   UNL     1      45.447   7.044  11.322  0.00  0.00    +0.000 C 
ATOM     20  N   UNL     1      46.588   7.306  12.051  0.00  0.00    +0.000 N 
ATOM     21  H   UNL     1      47.099   6.487  12.349  0.00  0.00    +0.000 HD
BRANCH  19  22
ATOM     22  C   UNL     1      45.517   5.698  10.791  0.00  0.00    +0.000 A 
ATOM     23  C   UNL     1      45.837   5.474   9.464  0.00  0.00    +0.000 A 
ATOM     24  S   UNL     1      45.004   4.092   8.878  0.00  0.00    +0.000 S 
ATOM     25  C   UNL     1      44.481   3.670  10.446  0.00  0.00    +0.000 A 
ATOM     26  N   UNL     1      43.601   2.657  10.660  0.00  0.00    +0.000 NA
ATOM     27  C   UNL     1      43.364   2.414  11.911  0.00  0.00    +0.000 A 
ATOM     28  N   UNL     1      43.950   3.075  12.963  0.00  0.00    +0.000 N 
ATOM     29  C   UNL     1      44.822   4.134  12.803  0.00  0.00    +0.000 A 
ATOM     30  O   UNL     1      45.355   4.692  13.744  0.00  0.00    +0.000 OA
ATOM     31  C   UNL     1      45.039   4.488  11.406  0.00  0.00    +0.000 A 
ATOM     32  H   UNL     1      43.783   2.775  13.913  0.00  0.00    +0.000 HD
ENDBRANCH  19  22
ENDBRANCH   1  20
TORSDOF 7
ENDMDL
MODEL 6
REMARK VINA RESULT:    -6.694      2.803      4.658
REMARK INTER + INTRA:         -10.639
REMARK INTER:                  -9.489
REMARK INTRA:                  -1.150
REMARK UNBOUND:                -1.206
REMARK  Name = 
REMARK  7 active torsions:
REMARK  status: ('A' for Active; 'I' for Inactive)
REMARK    1  A    between atoms: C_2  and  C_20
REMARK    2  A    between atoms: N_3  and  C_4
REMARK    3  A    between atoms: C_4  and  C_5
REMARK    4  A    between atoms: C_8  and  C_9
REMARK    5  A    between atoms: C_9  and  N_10
REMARK    6  A    between atoms: N_10  and  C_11
REMARK    7  A    between atoms: C_11  and  C_12
REMARK                            x       y       z     vdW  Elec       q    Type
REMARK                         _______ _______ _______ _____ _____    ______ ____
ROOT
ATOM      1  C   UNL     1      47.978   6.131  13.853  0.00  0.00    +0.000 C 
ENDROOT
BRANCH   1   2
ATOM      2  C   UNL     1      46.782   5.663  13.058  0.00  0.00    +0.000 A 
ATOM      3  C   UNL     1      46.524   6.214  11.801  0.00  0.00    +0.000 A 
ATOM      4  C   UNL     1      45.445   5.761  11.032  0.00  0.00    +0.000 A 
ATOM      5  C   UNL     1      44.601   4.743  11.501  0.00  0.00    +0.000 A 
ATOM      6  C   UNL     1      44.829   4.234  12.786  0.00  0.00    +0.000 A 
ATOM      7  C   UNL     1      45.900   4.697  13.564  0.00  0.00    +0.000 A 
BRANCH   5   8
ATOM      8  C   UNL     1      43.480   4.197  10.632  0.00  0.00    +0.000 C 
BRANCH   8   9
ATOM      9  N   UNL     1      44.010   3.692   9.372  0.00  0.00    +0.000 NA
ATOM     10  H   UNL     1      44.683   4.358   8.989  0.00  0.00    +0.000 HD
BRANCH   9  11
ATOM     11  C   UNL     1      44.700   2.395   9.493  0.00  0.00    +0.000 C 
BRANCH  11  12
ATOM     12  C   UNL     1      45.784   2.231   8.429  0.00  0.00    +0.000 A 
ATOM     13  N   UNL     1      46.234   0.975   8.188  0.00  0.00    +0.000 NA
ATOM     14  C   UNL     1      47.224   0.855   7.282  0.00  0.00    +0.000 A 
ATOM     15  C   UNL     1      47.767   1.920   6.604  0.00  0.00    +0.000 A 
ATOM     16  C   UNL     1      47.229   3.149   6.905  0.00  0.00    +0.000 A 
ATOM     17  N   UNL     1      46.243   3.336   7.803  0.00  0.00    +0.000 NA
ENDBRANCH  11  12
ENDBRANCH   9  11
ENDBRANCH   8   9
ENDBRANCH   5   8
ENDBRANCH   1   2
BRANCH   1  20
ATOM     18  O   UNL     1      50.257   7.524  14.765  0.00  0.00    +0.000 OA
ATOM     19  C   UNL     1      49.832   7.714  13.630  0.00  0.00    +0.000 C 
ATOM     20  N   UNL     1      48.752   7.055  13.079  0.00  0.00    +0.000 N 
ATOM     21  H   UNL     1      48.212   7.600  12.422  0.00  0.00    +0.000 HD
BRANCH  19  22
ATOM     22  C   UNL     1      50.175   8.848  12.798  0.00  0.00    +0.000 A 
ATOM     23  C   UNL     1      51.442   8.971  12.253  0.00  0.00    +0.000 A 
ATOM     24  S   UNL     1      51.887  10.626  12.154  0.00  0.00    +0.000 S 
ATOM     25  C   UNL     1      50.308  11.134  12.556  0.00  0.00    +0.000 A 
ATOM     26  N   UNL     1      50.013  12.440  12.787  0.00  0.00    +0.000 NA
ATOM     27  C   UNL     1      48.757  12.671  13.006  0.00  0.00    +0.000 A 
ATOM     28  N   UNL     1      47.770  11.715  12.987  0.00  0.00    +0.000 N 
ATOM     29  C   UNL     1      48.018  10.371  12.794  0.00  0.00    +0.000 A 
ATOM     30  O   UNL     1      47.130   9.540  12.751  0.00  0.00    +0.000 OA
ATOM     31  C   UNL     1      49.435  10.071  12.633  0.00  0.00    +0.000 A 
ATOM     32  H   UNL     1      46.799  11.981  13.081  0.00  0.00    +0.000 HD
ENDBRANCH  19  22
ENDBRANCH   1  20
TORSDOF 7
ENDMDL
MODEL 7
REMARK VINA RESULT:    -6.647      2.268      3.600
REMARK INTER + INTRA:         -10.572
REMARK INTER:                  -9.773
REMARK INTRA:                  -0.799
REMARK UNBOUND:                -1.206
REMARK  Name = 
REMARK  7 active torsions:
REMARK  status: ('A' for Active; 'I' for Inactive)
REMARK    1  A    between atoms: C_2  and  C_20
REMARK    2  A    between atoms: N_3  and  C_4
REMARK    3  A    between atoms: C_4  and  C_5
REMARK    4  A    between atoms: C_8  and  C_9
REMARK    5  A    between atoms: C_9  and  N_10
REMARK    6  A    between atoms: N_10  and  C_11
REMARK    7  A    between atoms: C_11  and  C_12
REMARK                            x       y       z     vdW  Elec       q    Type
REMARK                         _______ _______ _______ _____ _____    ______ ____
ROOT
ATOM      1  C   UNL     1      47.599   3.504  15.548  0.00  0.00    +0.000 C 
ENDROOT
BRANCH   1   2
ATOM      2  C   UNL     1      46.981   4.155  14.334  0.00  0.00    +0.000 A 
ATOM      3  C   UNL     1      46.206   3.394  13.456  0.00  0.00    +0.000 A 
ATOM      4  C   UNL     1      45.589   3.991  12.350  0.00  0.00    +0.000 A 
ATOM      5  C   UNL     1      45.731   5.364  12.098  0.00  0.00    +0.000 A 
ATOM      6  C   UNL     1      46.557   6.111  12.947  0.00  0.00    +0.000 A 
ATOM      7  C   UNL     1      47.187   5.512  14.048  0.00  0.00    +0.000 A 
BRANCH   5   8
ATOM      8  C   UNL     1      44.995   6.025  10.943  0.00  0.00    +0.000 C 
BRANCH   8   9
ATOM      9  N   UNL     1      45.518   5.553   9.667  0.00  0.00    +0.000 NA
ATOM     10  H   UNL     1      46.480   5.234   9.785  0.00  0.00    +0.000 HD
BRANCH   9  11
ATOM     11  C   UNL     1      44.754   4.433   9.089  0.00  0.00    +0.000 C 
BRANCH  11  12
ATOM     12  C   UNL     1      45.659   3.466   8.329  0.00  0.00    +0.000 A 
ATOM     13  N   UNL     1      45.592   2.155   8.667  0.00  0.00    +0.000 NA
ATOM     14  C   UNL     1      46.433   1.324   8.020  0.00  0.00    +0.000 A 
ATOM     15  C   UNL     1      47.315   1.737   7.053  0.00  0.00    +0.000 A 
ATOM     16  C   UNL     1      47.294   3.082   6.767  0.00  0.00    +0.000 A 
ATOM     17  N   UNL     1      46.482   3.965   7.381  0.00  0.00    +0.000 NA
ENDBRANCH  11  12
ENDBRANCH   9  11
ENDBRANCH   8   9
ENDBRANCH   5   8
ENDBRANCH   1   2
BRANCH   1  20
ATOM     18  O   UNL     1      50.005   3.378  17.019  0.00  0.00    +0.000 OA
ATOM     19  C   UNL     1      49.247   4.332  17.157  0.00  0.00    +0.000 C 
ATOM     20  N   UNL     1      48.071   4.505  16.457  0.00  0.00    +0.000 N 
ATOM     21  H   UNL     1      47.340   4.981  16.966  0.00  0.00    +0.000 HD
BRANCH  19  22
ATOM     22  C   UNL     1      49.286   5.264  18.265  0.00  0.00    +0.000 A 
ATOM     23  C   UNL     1      49.478   4.818  19.561  0.00  0.00    +0.000 A 
ATOM     24  S   UNL     1      48.614   5.808  20.664  0.00  0.00    +0.000 S 
ATOM     25  C   UNL     1      48.252   6.948  19.447  0.00  0.00    +0.000 A 
ATOM     26  N   UNL     1      47.412   7.992  19.671  0.00  0.00    +0.000 NA
ATOM     27  C   UNL     1      47.301   8.808  18.670  0.00  0.00    +0.000 A 
ATOM     28  N   UNL     1      47.976   8.686  17.480  0.00  0.00    +0.000 N 
ATOM     29  C   UNL     1      48.813   7.628  17.187  0.00  0.00    +0.000 A 
ATOM     30  O   UNL     1      49.427   7.548  16.140  0.00  0.00    +0.000 OA
ATOM     31  C   UNL     1      48.887   6.646  18.262  0.00  0.00    +0.000 A 
ATOM     32  H   UNL     1      47.907   9.408  16.777  0.00  0.00    +0.000 HD
ENDBRANCH  19  22
ENDBRANCH   1  20
TORSDOF 7
ENDMDL
MODEL 8
REMARK VINA RESULT:    -6.432      2.114      3.017
REMARK INTER + INTRA:         -10.270
REMARK INTER:                  -9.277
REMARK INTRA:                  -0.993
REMARK UNBOUND:                -1.206
REMARK  Name = 
REMARK  7 active torsions:
REMARK  status: ('A' for Active; 'I' for Inactive)
REMARK    1  A    between atoms: C_2  and  C_20
REMARK    2  A    between atoms: N_3  and  C_4
REMARK    3  A    between atoms: C_4  and  C_5
REMARK    4  A    between atoms: C_8  and  C_9
REMARK    5  A    between atoms: C_9  and  N_10
REMARK    6  A    between atoms: N_10  and  C_11
REMARK    7  A    between atoms: C_11  and  C_12
REMARK                            x       y       z     vdW  Elec       q    Type
REMARK                         _______ _______ _______ _____ _____    ______ ____
ROOT
ATOM      1  C   UNL     1      48.901   9.638  11.896  0.00  0.00    +0.000 C 
ENDROOT
BRANCH   1   2
ATOM      2  C   UNL     1      47.702   8.721  11.900  0.00  0.00    +0.000 A 
ATOM      3  C   UNL     1      46.430   9.241  12.149  0.00  0.00    +0.000 A 
ATOM      4  C   UNL     1      45.302   8.412  12.113  0.00  0.00    +0.000 A 
ATOM      5  C   UNL     1      45.419   7.044  11.824  0.00  0.00    +0.000 A 
ATOM      6  C   UNL     1      46.703   6.516  11.633  0.00  0.00    +0.000 A 
ATOM      7  C   UNL     1      47.835   7.342  11.683  0.00  0.00    +0.000 A 
BRANCH   5   8
ATOM      8  C   UNL     1      44.187   6.163  11.706  0.00  0.00    +0.000 C 
BRANCH   8   9
ATOM      9  N   UNL     1      44.550   4.836  11.227  0.00  0.00    +0.000 NA
ATOM     10  H   UNL     1      44.277   4.133  11.915  0.00  0.00    +0.000 HD
BRANCH   9  11
ATOM     11  C   UNL     1      43.911   4.468   9.951  0.00  0.00    +0.000 C 
BRANCH  11  12
ATOM     12  C   UNL     1      44.873   3.715   9.034  0.00  0.00    +0.000 A 
ATOM     13  N   UNL     1      44.960   2.372   9.192  0.00  0.00    +0.000 NA
ATOM     14  C   UNL     1      45.849   1.731   8.408  0.00  0.00    +0.000 A 
ATOM     15  C   UNL     1      46.635   2.363   7.475  0.00  0.00    +0.000 A 
ATOM     16  C   UNL     1      46.459   3.723   7.377  0.00  0.00    +0.000 A 
ATOM     17  N   UNL     1      45.591   4.423   8.135  0.00  0.00    +0.000 NA
ENDBRANCH  11  12
ENDBRANCH   9  11
ENDBRANCH   8   9
ENDBRANCH   5   8
ENDBRANCH   1   2
BRANCH   1  20
ATOM     18  O   UNL     1      51.191   7.993  12.029  0.00  0.00    +0.000 OA
ATOM     19  C   UNL     1      50.781   8.561  13.036  0.00  0.00    +0.000 C 
ATOM     20  N   UNL     1      49.697   9.414  13.065  0.00  0.00    +0.000 N 
ATOM     21  H   UNL     1      49.172   9.405  13.928  0.00  0.00    +0.000 HD
BRANCH  19  22
ATOM     22  C   UNL     1      51.150   8.210  14.391  0.00  0.00    +0.000 A 
ATOM     23  C   UNL     1      52.472   8.240  14.797  0.00  0.00    +0.000 A 
ATOM     24  S   UNL     1      52.765   7.008  15.956  0.00  0.00    +0.000 S 
ATOM     25  C   UNL     1      51.099   6.666  16.099  0.00  0.00    +0.000 A 
ATOM     26  N   UNL     1      50.644   5.613  16.826  0.00  0.00    +0.000 NA
ATOM     27  C   UNL     1      49.353   5.535  16.898  0.00  0.00    +0.000 A 
ATOM     28  N   UNL     1      48.481   6.432  16.330  0.00  0.00    +0.000 N 
ATOM     29  C   UNL     1      48.887   7.498  15.552  0.00  0.00    +0.000 A 
ATOM     30  O   UNL     1      48.104   8.300  15.079  0.00  0.00    +0.000 OA
ATOM     31  C   UNL     1      50.334   7.559  15.381  0.00  0.00    +0.000 A 
ATOM     32  H   UNL     1      47.487   6.357  16.499  0.00  0.00    +0.000 HD
ENDBRANCH  19  22
ENDBRANCH   1  20
TORSDOF 7
ENDMDL
MODEL 9
REMARK VINA RESULT:    -6.289      3.302      4.350
REMARK INTER + INTRA:         -10.067
REMARK INTER:                  -9.725
REMARK INTRA:                  -0.342
REMARK UNBOUND:                -1.206
REMARK  Name = 
REMARK  7 active torsions:
REMARK  status: ('A' for Active; 'I' for Inactive)
REMARK    1  A    between atoms: C_2  and  C_20
REMARK    2  A    between atoms: N_3  and  C_4
REMARK    3  A    between atoms: C_4  and  C_5
REMARK    4  A    between atoms: C_8  and  C_9
REMARK    5  A    between atoms: C_9  and  N_10
REMARK    6  A    between atoms: N_10  and  C_11
REMARK    7  A    between atoms: C_11  and  C_12
REMARK                            x       y       z     vdW  Elec       q    Type
REMARK                         _______ _______ _______ _____ _____    ______ ____
ROOT
ATOM      1  C   UNL     1      44.410   8.554  11.389  0.00  0.00    +0.000 C 
ENDROOT
BRANCH   1   2
ATOM      2  C   UNL     1      44.222   7.060  11.514  0.00  0.00    +0.000 A 
ATOM      3  C   UNL     1      42.945   6.508  11.396  0.00  0.00    +0.000 A 
ATOM      4  C   UNL     1      42.758   5.122  11.466  0.00  0.00    +0.000 A 
ATOM      5  C   UNL     1      43.846   4.256  11.652  0.00  0.00    +0.000 A 
ATOM      6  C   UNL     1      45.117   4.818  11.829  0.00  0.00    +0.000 A 
ATOM      7  C   UNL     1      45.304   6.207  11.774  0.00  0.00    +0.000 A 
BRANCH   5   8
ATOM      8  C   UNL     1      43.652   2.748  11.647  0.00  0.00    +0.000 C 
BRANCH   8   9
ATOM      9  N   UNL     1      43.959   2.198  10.332  0.00  0.00    +0.000 NA
ATOM     10  H   UNL     1      43.138   1.721   9.958  0.00  0.00    +0.000 HD
BRANCH   9  11
ATOM     11  C   UNL     1      44.365   3.212   9.343  0.00  0.00    +0.000 C 
BRANCH  11  12
ATOM     12  C   UNL     1      45.474   2.696   8.429  0.00  0.00    +0.000 A 
ATOM     13  N   UNL     1      45.803   1.384   8.528  0.00  0.00    +0.000 NA
ATOM     14  C   UNL     1      46.816   0.958   7.749  0.00  0.00    +0.000 A 
ATOM     15  C   UNL     1      47.497   1.770   6.876  0.00  0.00    +0.000 A 
ATOM     16  C   UNL     1      47.076   3.079   6.834  0.00  0.00    +0.000 A 
ATOM     17  N   UNL     1      46.074   3.568   7.589  0.00  0.00    +0.000 NA
ENDBRANCH  11  12
ENDBRANCH   9  11
ENDBRANCH   8   9
ENDBRANCH   5   8
ENDBRANCH   1   2
BRANCH   1  20
ATOM     18  O   UNL     1      45.230  11.161  12.095  0.00  0.00    +0.000 OA
ATOM     19  C   UNL     1      46.035  10.235  12.112  0.00  0.00    +0.000 C 
ATOM     20  N   UNL     1      45.724   8.923  11.823  0.00  0.00    +0.000 N 
ATOM     21  H   UNL     1      46.468   8.396  11.387  0.00  0.00    +0.000 HD
BRANCH  19  22
ATOM     22  C   UNL     1      47.474  10.393  12.131  0.00  0.00    +0.000 A 
ATOM     23  C   UNL     1      48.069  11.545  11.647  0.00  0.00    +0.000 A 
ATOM     24  S   UNL     1      49.586  11.175  10.934  0.00  0.00    +0.000 S 
ATOM     25  C   UNL     1      49.544   9.578  11.534  0.00  0.00    +0.000 A 
ATOM     26  N   UNL     1      50.475   8.655  11.179  0.00  0.00    +0.000 NA
ATOM     27  C   UNL     1      50.347   7.513  11.779  0.00  0.00    +0.000 A 
ATOM     28  N   UNL     1      49.389   7.225  12.720  0.00  0.00    +0.000 N 
ATOM     29  C   UNL     1      48.398   8.112  13.092  0.00  0.00    +0.000 A 
ATOM     30  O   UNL     1      47.574   7.853  13.948  0.00  0.00    +0.000 OA
ATOM     31  C   UNL     1      48.465   9.375  12.367  0.00  0.00    +0.000 A 
ATOM     32  H   UNL     1      49.402   6.341  13.210  0.00  0.00    +0.000 HD
ENDBRANCH  19  22
ENDBRANCH   1  20
TORSDOF 7
ENDMDL
