MODEL 1
REMARK VINA RESULT:    -8.105      0.000      0.000
REMARK INTER + INTRA:         -12.246
REMARK INTER:                 -11.659
REMARK INTRA:                  -0.587
REMARK UNBOUND:                -0.587
REMARK  Name = 
REMARK  10 active torsions:
REMARK  status: ('A' for Active; 'I' for Inactive)
REMARK    1  A    between atoms: C_1  and  C_2
REMARK    2  A    between atoms: C_2  and  C_3
REMARK    3  A    between atoms: C_2  and  C_4
REMARK    4  A    between atoms: C_2  and  C_15
REMARK    5  A    between atoms: C_4  and  N_5
REMARK    6  A    between atoms: C_9  and  C_10
REMARK    7  A    between atoms: C_19  and  C_20
REMARK    8  A    between atoms: C_20  and  N_21
REMARK    9  A    between atoms: C_23  and  C_24
REMARK   10  A    between atoms: C_24  and  O_25
REMARK                            x       y       z     vdW  Elec       q    Type
REMARK                         _______ _______ _______ _____ _____    ______ ____
ROOT
ATOM      1  C   UNL     1      46.052   8.055  13.115  0.00  0.00    +0.000 C 
ATOM      2  C   UNL     1      46.651   6.779  12.474  0.00  0.00    +0.000 C 
ATOM      3  C   UNL     1      47.463   7.203  11.227  0.00  0.00    +0.000 C 
ENDROOT
BRANCH   2   4
ATOM      4  C   UNL     1      45.496   5.846  12.053  0.00  0.00    +0.000 A 
ATOM      5  C   UNL     1      44.454   5.532  12.945  0.00  0.00    +0.000 A 
ATOM      6  C   UNL     1      43.369   4.743  12.548  0.00  0.00    +0.000 A 
ATOM      7  C   UNL     1      43.271   4.288  11.235  0.00  0.00    +0.000 A 
ATOM      8  C   UNL     1      44.282   4.588  10.322  0.00  0.00    +0.000 A 
ATOM      9  C   UNL     1      45.404   5.312  10.759  0.00  0.00    +0.000 A 
BRANCH   8  10
ATOM     10  C   UNL     1      44.135   4.274   8.851  0.00  0.00    +0.000 C 
BRANCH  10  11
ATOM     11  N   UNL     1      45.132   3.288   8.435  0.00  0.00    +0.000 N 
ATOM     12  C   UNL     1      46.078   3.437   7.456  0.00  0.00    +0.000 A 
ATOM     13  C   UNL     1      46.690   2.210   7.306  0.00  0.00    +0.000 A 
ATOM     14  C   UNL     1      46.104   1.419   8.319  0.00  0.00    +0.000 A 
ATOM     15  N   UNL     1      45.170   2.070   9.015  0.00  0.00    +0.000 NA
BRANCH  13  16
ATOM     16  C   UNL     1      47.719   1.806   6.317  0.00  0.00    +0.000 C 
BRANCH  16  17
ATOM     17  O   UNL     1      48.871   2.644   6.374  0.00  0.00    +0.000 OA
ATOM     18  H   UNL     1      48.571   3.528   6.094  0.00  0.00    +0.000 HD
ENDBRANCH  16  17
ENDBRANCH  13  16
ENDBRANCH  10  11
ENDBRANCH   8  10
ENDBRANCH   2   4
BRANCH   2  19
ATOM     19  C   UNL     1      47.643   6.178  13.531  0.00  0.00    +0.000 C 
BRANCH  19  20
ATOM     20  N   UNL     1      47.044   5.090  14.322  0.00  0.00    +0.000 N 
ATOM     21  C   UNL     1      47.592   4.919  15.601  0.00  0.00    +0.000 A 
ATOM     22  C   UNL     1      47.025   3.955  16.435  0.00  0.00    +0.000 A 
ATOM     23  C   UNL     1      47.533   3.767  17.721  0.00  0.00    +0.000 A 
ATOM     24  C   UNL     1      48.605   4.548  18.146  0.00  0.00    +0.000 A 
ATOM     25  C   UNL     1      49.110   5.485  17.256  0.00  0.00    +0.000 A 
ATOM     26  N   UNL     1      48.613   5.696  16.012  0.00  0.00    +0.000 NA
ATOM     27  H   UNL     1      47.043   4.197  13.840  0.00  0.00    +0.000 HD
BRANCH  24  28
ATOM     28  C   UNL     1      49.243   4.408  19.468  0.00  0.00    +0.000 C 
ATOM     29  N   UNL     1      48.514   3.824  20.463  0.00  0.00    +0.000 N 
ATOM     30  O   UNL     1      50.373   4.825  19.676  0.00  0.00    +0.000 OA
ATOM     31  H   UNL     1      47.516   3.689  20.407  0.00  0.00    +0.000 HD
ATOM     32  H   UNL     1      48.935   3.825  21.386  0.00  0.00    +0.000 HD
ENDBRANCH  24  28
ENDBRANCH  19  20
ENDBRANCH   2  19
TORSDOF 8
ENDMDL
MODEL 2
REMARK VINA RESULT:    -8.080      4.915      8.868
REMARK INTER + INTRA:         -12.210
REMARK INTER:                 -11.455
REMARK INTRA:                  -0.756
REMARK UNBOUND:                -0.587
REMARK  Name = 
REMARK  10 active torsions:
REMARK  status: ('A' for Active; 'I' for Inactive)
REMARK    1  A    between atoms: C_1  and  C_2
REMARK    2  A    between atoms: C_2  and  C_3
REMARK    3  A    between atoms: C_2  and  C_4
REMARK    4  A    between atoms: C_2  and  C_15
REMARK    5  A    between atoms: C_4  and  N_5
REMARK    6  A    between atoms: C_9  and  C_10
REMARK    7  A    between atoms: C_19  and  C_20
REMARK    8  A    between atoms: C_20  and  N_21
REMARK    9  A    between atoms: C_23  and  C_24
REMARK   10  A    between atoms: C_24  and  O_25
REMARK                            x       y       z     vdW  Elec       q    Type
REMARK                         _______ _______ _______ _____ _____    ______ ____
ROOT
ATOM      1  C   UNL     1      42.687   5.401  12.535  0.00  0.00    +0.000 C 
ATOM      2  C   UNL     1      44.075   5.361  11.850  0.00  0.00    +0.000 C 
ATOM      3  C   UNL     1      44.929   4.281  12.556  0.00  0.00    +0.000 C 
ENDROOT
BRANCH   2   4
ATOM      4  C   UNL     1      44.746   6.742  12.007  0.00  0.00    +0.000 A 
ATOM      5  C   UNL     1      46.011   6.870  12.609  0.00  0.00    +0.000 A 
ATOM      6  C   UNL     1      46.656   8.109  12.692  0.00  0.00    +0.000 A 
ATOM      7  C   UNL     1      46.075   9.245  12.133  0.00  0.00    +0.000 A 
ATOM      8  C   UNL     1      44.824   9.152  11.522  0.00  0.00    +0.000 A 
ATOM      9  C   UNL     1      44.155   7.917  11.519  0.00  0.00    +0.000 A 
BRANCH   8  10
ATOM     10  C   UNL     1      44.238  10.309  10.745  0.00  0.00    +0.000 C 
BRANCH  10  11
ATOM     11  N   UNL     1      42.852  10.546  11.148  0.00  0.00    +0.000 N 
ATOM     12  C   UNL     1      41.731   9.957  10.625  0.00  0.00    +0.000 A 
ATOM     13  C   UNL     1      40.647  10.591  11.197  0.00  0.00    +0.000 A 
ATOM     14  C   UNL     1      41.232  11.477  12.129  0.00  0.00    +0.000 A 
ATOM     15  N   UNL     1      42.567  11.445  12.113  0.00  0.00    +0.000 NA
BRANCH  13  16
ATOM     16  C   UNL     1      39.206  10.397  10.907  0.00  0.00    +0.000 C 
BRANCH  16  17
ATOM     17  O   UNL     1      38.712   9.175  11.455  0.00  0.00    +0.000 OA
ATOM     18  H   UNL     1      39.409   8.513  11.299  0.00  0.00    +0.000 HD
ENDBRANCH  16  17
ENDBRANCH  13  16
ENDBRANCH  10  11
ENDBRANCH   8  10
ENDBRANCH   2   4
BRANCH   2  19
ATOM     19  C   UNL     1      43.823   4.905  10.369  0.00  0.00    +0.000 C 
BRANCH  19  20
ATOM     20  N   UNL     1      43.955   3.450  10.191  0.00  0.00    +0.000 N 
ATOM     21  C   UNL     1      44.883   3.057   9.216  0.00  0.00    +0.000 A 
ATOM     22  C   UNL     1      45.116   1.692   9.043  0.00  0.00    +0.000 A 
ATOM     23  C   UNL     1      46.044   1.263   8.094  0.00  0.00    +0.000 A 
ATOM     24  C   UNL     1      46.722   2.212   7.333  0.00  0.00    +0.000 A 
ATOM     25  C   UNL     1      46.434   3.549   7.568  0.00  0.00    +0.000 A 
ATOM     26  N   UNL     1      45.551   3.983   8.502  0.00  0.00    +0.000 NA
ATOM     27  H   UNL     1      43.070   2.986  10.012  0.00  0.00    +0.000 HD
BRANCH  24  28
ATOM     28  C   UNL     1      47.694   1.869   6.279  0.00  0.00    +0.000 C 
ATOM     29  N   UNL     1      48.813   2.644   6.174  0.00  0.00    +0.000 N 
ATOM     30  O   UNL     1      47.493   0.943   5.505  0.00  0.00    +0.000 OA
ATOM     31  H   UNL     1      48.903   3.544   6.621  0.00  0.00    +0.000 HD
ATOM     32  H   UNL     1      49.419   2.450   5.384  0.00  0.00    +0.000 HD
ENDBRANCH  24  28
ENDBRANCH  19  20
ENDBRANCH   2  19
TORSDOF 8
ENDMDL
MODEL 3
REMARK VINA RESULT:    -7.872      2.038      8.719
REMARK INTER + INTRA:         -11.911
REMARK INTER:                 -10.954
REMARK INTRA:                  -0.957
REMARK UNBOUND:                -0.587
REMARK  Name = 
REMARK  10 active torsions:
REMARK  status: ('A' for Active; 'I' for Inactive)
REMARK    1  A    between atoms: C_1  and  C_2
REMARK    2  A    between atoms: C_2  and  C_3
REMARK    3  A    between atoms: C_2  and  C_4
REMARK    4  A    between atoms: C_2  and  C_15
REMARK    5  A    between atoms: C_4  and  N_5
REMARK    6  A    between atoms: C_9  and  C_10
REMARK    7  A    between atoms: C_19  and  C_20
REMARK    8  A    between atoms: C_20  and  N_21
REMARK    9  A    between atoms: C_23  and  C_24
REMARK   10  A    between atoms: C_24  and  O_25
REMARK                            x       y       z     vdW  Elec       q    Type
REMARK                         _______ _______ _______ _____ _____    ______ ____
ROOT
ATOM      1  C   UNL     1      42.949   5.334  12.941  0.00  0.00    +0.000 C 
ATOM      2  C   UNL     1      44.159   5.028  12.024  0.00  0.00    +0.000 C 
ATOM      3  C   UNL     1      44.841   3.739  12.541  0.00  0.00    +0.000 C 
ENDROOT
BRANCH   2   4
ATOM      4  C   UNL     1      45.150   6.209  12.100  0.00  0.00    +0.000 A 
ATOM      5  C   UNL     1      44.722   7.531  11.878  0.00  0.00    +0.000 A 
ATOM      6  C   UNL     1      45.599   8.613  12.013  0.00  0.00    +0.000 A 
ATOM      7  C   UNL     1      46.915   8.407  12.421  0.00  0.00    +0.000 A 
ATOM      8  C   UNL     1      47.370   7.109  12.657  0.00  0.00    +0.000 A 
ATOM      9  C   UNL     1      46.499   6.029  12.438  0.00  0.00    +0.000 A 
BRANCH   8  10
ATOM     10  C   UNL     1      48.726   6.849  13.272  0.00  0.00    +0.000 C 
BRANCH  10  11
ATOM     11  N   UNL     1      48.610   6.707  14.723  0.00  0.00    +0.000 N 
ATOM     12  C   UNL     1      48.604   7.714  15.652  0.00  0.00    +0.000 A 
ATOM     13  C   UNL     1      48.631   7.110  16.892  0.00  0.00    +0.000 A 
ATOM     14  C   UNL     1      48.548   5.732  16.594  0.00  0.00    +0.000 A 
ATOM     15  N   UNL     1      48.521   5.482  15.283  0.00  0.00    +0.000 NA
BRANCH  13  16
ATOM     16  C   UNL     1      48.727   7.749  18.228  0.00  0.00    +0.000 C 
BRANCH  16  17
ATOM     17  O   UNL     1      47.492   8.340  18.625  0.00  0.00    +0.000 OA
ATOM     18  H   UNL     1      47.242   8.946  17.905  0.00  0.00    +0.000 HD
ENDBRANCH  16  17
ENDBRANCH  13  16
ENDBRANCH  10  11
ENDBRANCH   8  10
ENDBRANCH   2   4
BRANCH   2  19
ATOM     19  C   UNL     1      43.570   4.741  10.598  0.00  0.00    +0.000 C 
BRANCH  19  20
ATOM     20  N   UNL     1      44.500   5.099   9.514  0.00  0.00    +0.000 N 
ATOM     21  C   UNL     1      45.151   4.013   8.912  0.00  0.00    +0.000 A 
ATOM     22  C   UNL     1      45.991   4.270   7.828  0.00  0.00    +0.000 A 
ATOM     23  C   UNL     1      46.644   3.213   7.192  0.00  0.00    +0.000 A 
ATOM     24  C   UNL     1      46.442   1.916   7.657  0.00  0.00    +0.000 A 
ATOM     25  C   UNL     1      45.589   1.746   8.738  0.00  0.00    +0.000 A 
ATOM     26  N   UNL     1      44.931   2.760   9.353  0.00  0.00    +0.000 NA
ATOM     27  H   UNL     1      45.193   5.788   9.791  0.00  0.00    +0.000 HD
BRANCH  24  28
ATOM     28  C   UNL     1      47.108   0.732   7.085  0.00  0.00    +0.000 C 
ATOM     29  N   UNL     1      47.684   0.862   5.854  0.00  0.00    +0.000 N 
ATOM     30  O   UNL     1      47.120  -0.339   7.676  0.00  0.00    +0.000 OA
ATOM     31  H   UNL     1      47.492   1.637   5.237  0.00  0.00    +0.000 HD
ATOM     32  H   UNL     1      48.051   0.013   5.439  0.00  0.00    +0.000 HD
ENDBRANCH  24  28
ENDBRANCH  19  20
ENDBRANCH   2  19
TORSDOF 8
ENDMDL
MODEL 4
REMARK VINA RESULT:    -7.546      1.375      1.795
REMARK INTER + INTRA:         -11.442
REMARK INTER:                 -10.325
REMARK INTRA:                  -1.117
REMARK UNBOUND:                -0.587
REMARK  Name = 
REMARK  10 active torsions:
REMARK  status: ('A' for Active; 'I' for Inactive)
REMARK    1  A    between atoms: C_1  and  C_2
REMARK    2  A    between atoms: C_2  and  C_3
REMARK    3  A    between atoms: C_2  and  C_4
REMARK    4  A    between atoms: C_2  and  C_15
REMARK    5  A    between atoms: C_4  and  N_5
REMARK    6  A    between atoms: C_9  and  C_10
REMARK    7  A    between atoms: C_19  and  C_20
REMARK    8  A    between atoms: C_20  and  N_21
REMARK    9  A    between atoms: C_23  and  C_24
REMARK   10  A    between atoms: C_24  and  O_25
REMARK                            x       y       z     vdW  Elec       q    Type
REMARK                         _______ _______ _______ _____ _____    ______ ____
ROOT
ATOM      1  C   UNL     1      46.797   8.408  13.296  0.00  0.00    +0.000 C 
ATOM      2  C   UNL     1      47.599   7.201  12.752  0.00  0.00    +0.000 C 
ATOM      3  C   UNL     1      48.267   7.628  11.422  0.00  0.00    +0.000 C 
ENDROOT
BRANCH   2   4
ATOM      4  C   UNL     1      46.625   6.032  12.495  0.00  0.00    +0.000 A 
ATOM      5  C   UNL     1      46.140   5.245  13.556  0.00  0.00    +0.000 A 
ATOM      6  C   UNL     1      45.204   4.228  13.340  0.00  0.00    +0.000 A 
ATOM      7  C   UNL     1      44.690   4.003  12.065  0.00  0.00    +0.000 A 
ATOM      8  C   UNL     1      45.143   4.770  10.992  0.00  0.00    +0.000 A 
ATOM      9  C   UNL     1      46.143   5.731  11.213  0.00  0.00    +0.000 A 
BRANCH   8  10
ATOM     10  C   UNL     1      44.488   4.687   9.632  0.00  0.00    +0.000 C 
BRANCH  10  11
ATOM     11  N   UNL     1      45.311   3.901   8.714  0.00  0.00    +0.000 N 
ATOM     12  C   UNL     1      45.432   2.536   8.681  0.00  0.00    +0.000 A 
ATOM     13  C   UNL     1      46.423   2.249   7.764  0.00  0.00    +0.000 A 
ATOM     14  C   UNL     1      46.759   3.512   7.229  0.00  0.00    +0.000 A 
ATOM     15  N   UNL     1      46.080   4.515   7.790  0.00  0.00    +0.000 NA
BRANCH  13  16
ATOM     16  C   UNL     1      47.006   0.930   7.418  0.00  0.00    +0.000 C 
BRANCH  16  17
ATOM     17  O   UNL     1      47.199   0.786   6.013  0.00  0.00    +0.000 OA
ATOM     18  H   UNL     1      47.193  -0.172   5.840  0.00  0.00    +0.000 HD
ENDBRANCH  16  17
ENDBRANCH  13  16
ENDBRANCH  10  11
ENDBRANCH   8  10
ENDBRANCH   2   4
BRANCH   2  19
ATOM     19  C   UNL     1      48.728   6.912  13.803  0.00  0.00    +0.000 C 
BRANCH  19  20
ATOM     20  N   UNL     1      48.503   7.599  15.085  0.00  0.00    +0.000 N 
ATOM     21  C   UNL     1      48.569   6.774  16.216  0.00  0.00    +0.000 A 
ATOM     22  C   UNL     1      48.439   7.369  17.472  0.00  0.00    +0.000 A 
ATOM     23  C   UNL     1      48.516   6.583  18.622  0.00  0.00    +0.000 A 
ATOM     24  C   UNL     1      48.719   5.211  18.491  0.00  0.00    +0.000 A 
ATOM     25  C   UNL     1      48.840   4.699  17.208  0.00  0.00    +0.000 A 
ATOM     26  N   UNL     1      48.790   5.453  16.081  0.00  0.00    +0.000 NA
ATOM     27  H   UNL     1      47.637   8.127  15.110  0.00  0.00    +0.000 HD
BRANCH  24  28
ATOM     28  C   UNL     1      48.778   4.283  19.636  0.00  0.00    +0.000 C 
ATOM     29  N   UNL     1      48.340   3.006  19.438  0.00  0.00    +0.000 N 
ATOM     30  O   UNL     1      49.177   4.651  20.732  0.00  0.00    +0.000 OA
ATOM     31  H   UNL     1      47.789   2.731  18.639  0.00  0.00    +0.000 HD
ATOM     32  H   UNL     1      48.301   2.414  20.260  0.00  0.00    +0.000 HD
ENDBRANCH  24  28
ENDBRANCH  19  20
ENDBRANCH   2  19
TORSDOF 8
ENDMDL
MODEL 5
REMARK VINA RESULT:    -7.298      1.649      2.187
REMARK INTER + INTRA:         -11.086
REMARK INTER:                 -10.012
REMARK INTRA:                  -1.074
REMARK UNBOUND:                -0.587
REMARK  Name = 
REMARK  10 active torsions:
REMARK  status: ('A' for Active; 'I' for Inactive)
REMARK    1  A    between atoms: C_1  and  C_2
REMARK    2  A    between atoms: C_2  and  C_3
REMARK    3  A    between atoms: C_2  and  C_4
REMARK    4  A    between atoms: C_2  and  C_15
REMARK    5  A    between atoms: C_4  and  N_5
REMARK    6  A    between atoms: C_9  and  C_10
REMARK    7  A    between atoms: C_19  and  C_20
REMARK    8  A    between atoms: C_20  and  N_21
REMARK    9  A    between atoms: C_23  and  C_24
REMARK   10  A    between atoms: C_24  and  O_25
REMARK                            x       y       z     vdW  Elec       q    Type
REMARK                         _______ _______ _______ _____ _____    ______ ____
ROOT
ATOM      1  C   UNL     1      46.046   8.677  12.072  0.00  0.00    +0.000 C 
ATOM      2  C   UNL     1      47.046   7.591  12.538  0.00  0.00    +0.000 C 
ATOM      3  C   UNL     1      48.332   7.725  11.688  0.00  0.00    +0.000 C 
ENDROOT
BRANCH   2   4
ATOM      4  C   UNL     1      46.413   6.202  12.312  0.00  0.00    +0.000 A 
ATOM      5  C   UNL     1      46.258   5.293  13.374  0.00  0.00    +0.000 A 
ATOM      6  C   UNL     1      45.622   4.060  13.191  0.00  0.00    +0.000 A 
ATOM      7  C   UNL     1      45.082   3.723  11.952  0.00  0.00    +0.000 A 
ATOM      8  C   UNL     1      45.211   4.605  10.878  0.00  0.00    +0.000 A 
ATOM      9  C   UNL     1      45.923   5.802  11.059  0.00  0.00    +0.000 A 
BRANCH   8  10
ATOM     10  C   UNL     1      44.488   4.368   9.572  0.00  0.00    +0.000 C 
BRANCH  10  11
ATOM     11  N   UNL     1      45.372   3.710   8.610  0.00  0.00    +0.000 N 
ATOM     12  C   UNL     1      45.664   2.373   8.540  0.00  0.00    +0.000 A 
ATOM     13  C   UNL     1      46.651   2.232   7.586  0.00  0.00    +0.000 A 
ATOM     14  C   UNL     1      46.806   3.538   7.071  0.00  0.00    +0.000 A 
ATOM     15  N   UNL     1      46.025   4.435   7.678  0.00  0.00    +0.000 NA
BRANCH  13  16
ATOM     16  C   UNL     1      47.384   1.005   7.191  0.00  0.00    +0.000 C 
BRANCH  16  17
ATOM     17  O   UNL     1      47.225   0.714   5.803  0.00  0.00    +0.000 OA
ATOM     18  H   UNL     1      46.279   0.515   5.680  0.00  0.00    +0.000 HD
ENDBRANCH  16  17
ENDBRANCH  13  16
ENDBRANCH  10  11
ENDBRANCH   8  10
ENDBRANCH   2   4
BRANCH   2  19
ATOM     19  C   UNL     1      47.400   7.929  14.030  0.00  0.00    +0.000 C 
BRANCH  19  20
ATOM     20  N   UNL     1      48.851   8.002  14.268  0.00  0.00    +0.000 N 
ATOM     21  C   UNL     1      49.323   7.170  15.293  0.00  0.00    +0.000 A 
ATOM     22  C   UNL     1      50.698   7.132  15.527  0.00  0.00    +0.000 A 
ATOM     23  C   UNL     1      51.207   6.304  16.529  0.00  0.00    +0.000 A 
ATOM     24  C   UNL     1      50.326   5.530  17.280  0.00  0.00    +0.000 A 
ATOM     25  C   UNL     1      48.974   5.624  16.982  0.00  0.00    +0.000 A 
ATOM     26  N   UNL     1      48.466   6.408  15.998  0.00  0.00    +0.000 NA
ATOM     27  H   UNL     1      49.184   8.947  14.430  0.00  0.00    +0.000 HD
BRANCH  24  28
ATOM     28  C   UNL     1      50.751   4.650  18.384  0.00  0.00    +0.000 C 
ATOM     29  N   UNL     1      50.425   3.327  18.300  0.00  0.00    +0.000 N 
ATOM     30  O   UNL     1      51.347   5.092  19.356  0.00  0.00    +0.000 OA
ATOM     31  H   UNL     1      49.740   2.970  17.652  0.00  0.00    +0.000 HD
ATOM     32  H   UNL     1      50.643   2.760  19.113  0.00  0.00    +0.000 HD
ENDBRANCH  24  28
ENDBRANCH  19  20
ENDBRANCH   2  19
TORSDOF 8
ENDMDL
MODEL 6
REMARK VINA RESULT:    -7.262      2.951      8.201
REMARK INTER + INTRA:         -11.033
REMARK INTER:                 -10.193
REMARK INTRA:                  -0.841
REMARK UNBOUND:                -0.587
REMARK  Name = 
REMARK  10 active torsions:
REMARK  status: ('A' for Active; 'I' for Inactive)
REMARK    1  A    between atoms: C_1  and  C_2
REMARK    2  A    between atoms: C_2  and  C_3
REMARK    3  A    between atoms: C_2  and  C_4
REMARK    4  A    between atoms: C_2  and  C_15
REMARK    5  A    between atoms: C_4  and  N_5
REMARK    6  A    between atoms: C_9  and  C_10
REMARK    7  A    between atoms: C_19  and  C_20
REMARK    8  A    between atoms: C_20  and  N_21
REMARK    9  A    between atoms: C_23  and  C_24
REMARK   10  A    between atoms: C_24  and  O_25
REMARK                            x       y       z     vdW  Elec       q    Type
REMARK                         _______ _______ _______ _____ _____    ______ ____
ROOT
ATOM      1  C   UNL     1      50.317   7.238  15.175  0.00  0.00    +0.000 C 
ATOM      2  C   UNL     1      49.120   8.220  15.193  0.00  0.00    +0.000 C 
ATOM      3  C   UNL     1      49.622   9.598  14.700  0.00  0.00    +0.000 C 
ENDROOT
BRANCH   2   4
ATOM      4  C   UNL     1      48.600   8.342  16.641  0.00  0.00    +0.000 A 
ATOM      5  C   UNL     1      48.141   9.572  17.147  0.00  0.00    +0.000 A 
ATOM      6  C   UNL     1      47.603   9.675  18.434  0.00  0.00    +0.000 A 
ATOM      7  C   UNL     1      47.464   8.543  19.233  0.00  0.00    +0.000 A 
ATOM      8  C   UNL     1      47.902   7.305  18.760  0.00  0.00    +0.000 A 
ATOM      9  C   UNL     1      48.513   7.234  17.497  0.00  0.00    +0.000 A 
BRANCH   8  10
ATOM     10  C   UNL     1      47.608   6.026  19.509  0.00  0.00    +0.000 C 
BRANCH  10  11
ATOM     11  N   UNL     1      47.886   4.863  18.667  0.00  0.00    +0.000 N 
ATOM     12  C   UNL     1      49.033   4.115  18.649  0.00  0.00    +0.000 A 
ATOM     13  C   UNL     1      48.910   3.225  17.602  0.00  0.00    +0.000 A 
ATOM     14  C   UNL     1      47.604   3.457  17.118  0.00  0.00    +0.000 A 
ATOM     15  N   UNL     1      46.973   4.439  17.768  0.00  0.00    +0.000 NA
BRANCH  13  16
ATOM     16  C   UNL     1      49.910   2.254  17.093  0.00  0.00    +0.000 C 
BRANCH  16  17
ATOM     17  O   UNL     1      49.487   1.645  15.875  0.00  0.00    +0.000 OA
ATOM     18  H   UNL     1      48.659   1.177  16.084  0.00  0.00    +0.000 HD
ENDBRANCH  16  17
ENDBRANCH  13  16
ENDBRANCH  10  11
ENDBRANCH   8  10
ENDBRANCH   2   4
BRANCH   2  19
ATOM     19  C   UNL     1      48.082   7.669  14.153  0.00  0.00    +0.000 C 
BRANCH  19  20
ATOM     20  N   UNL     1      47.738   6.257  14.385  0.00  0.00    +0.000 N 
ATOM     21  C   UNL     1      46.810   5.720  13.481  0.00  0.00    +0.000 A 
ATOM     22  C   UNL     1      46.492   4.366  13.593  0.00  0.00    +0.000 A 
ATOM     23  C   UNL     1      45.584   3.792  12.702  0.00  0.00    +0.000 A 
ATOM     24  C   UNL     1      45.010   4.589  11.715  0.00  0.00    +0.000 A 
ATOM     25  C   UNL     1      45.381   5.925  11.671  0.00  0.00    +0.000 A 
ATOM     26  N   UNL     1      46.278   6.492  12.515  0.00  0.00    +0.000 NA
ATOM     27  H   UNL     1      47.425   6.070  15.332  0.00  0.00    +0.000 HD
BRANCH  24  28
ATOM     28  C   UNL     1      44.013   4.096  10.747  0.00  0.00    +0.000 C 
ATOM     29  N   UNL     1      43.983   4.682   9.515  0.00  0.00    +0.000 N 
ATOM     30  O   UNL     1      43.220   3.213  11.044  0.00  0.00    +0.000 OA
ATOM     31  H   UNL     1      44.442   5.557   9.311  0.00  0.00    +0.000 HD
ATOM     32  H   UNL     1      43.229   4.395   8.900  0.00  0.00    +0.000 HD
ENDBRANCH  24  28
ENDBRANCH  19  20
ENDBRANCH   2  19
TORSDOF 8
ENDMDL
MODEL 7
REMARK VINA RESULT:    -7.175      3.952      6.487
REMARK INTER + INTRA:         -10.908
REMARK INTER:                 -10.156
REMARK INTRA:                  -0.752
REMARK UNBOUND:                -0.587
REMARK  Name = 
REMARK  10 active torsions:
REMARK  status: ('A' for Active; 'I' for Inactive)
REMARK    1  A    between atoms: C_1  and  C_2
REMARK    2  A    between atoms: C_2  and  C_3
REMARK    3  A    between atoms: C_2  and  C_4
REMARK    4  A    between atoms: C_2  and  C_15
REMARK    5  A    between atoms: C_4  and  N_5
REMARK    6  A    between atoms: C_9  and  C_10
REMARK    7  A    between atoms: C_19  and  C_20
REMARK    8  A    between atoms: C_20  and  N_21
REMARK    9  A    between atoms: C_23  and  C_24
REMARK   10  A    between atoms: C_24  and  O_25
REMARK                            x       y       z     vdW  Elec       q    Type
REMARK                         _______ _______ _______ _____ _____    ______ ____
ROOT
ATOM      1  C   UNL     1      47.507   7.180  11.425  0.00  0.00    +0.000 C 
ATOM      2  C   UNL     1      46.737   6.670  12.668  0.00  0.00    +0.000 C 
ATOM      3  C   UNL     1      47.715   5.839  13.532  0.00  0.00    +0.000 C 
ENDROOT
BRANCH   2   4
ATOM      4  C   UNL     1      45.569   5.779  12.197  0.00  0.00    +0.000 A 
ATOM      5  C   UNL     1      44.511   5.450  13.065  0.00  0.00    +0.000 A 
ATOM      6  C   UNL     1      43.415   4.701  12.625  0.00  0.00    +0.000 A 
ATOM      7  C   UNL     1      43.323   4.300  11.294  0.00  0.00    +0.000 A 
ATOM      8  C   UNL     1      44.351   4.615  10.405  0.00  0.00    +0.000 A 
ATOM      9  C   UNL     1      45.481   5.298  10.882  0.00  0.00    +0.000 A 
BRANCH   8  10
ATOM     10  C   UNL     1      44.213   4.364   8.921  0.00  0.00    +0.000 C 
BRANCH  10  11
ATOM     11  N   UNL     1      45.157   3.334   8.487  0.00  0.00    +0.000 N 
ATOM     12  C   UNL     1      46.149   3.467   7.551  0.00  0.00    +0.000 A 
ATOM     13  C   UNL     1      46.682   2.210   7.356  0.00  0.00    +0.000 A 
ATOM     14  C   UNL     1      46.004   1.410   8.303  0.00  0.00    +0.000 A 
ATOM     15  N   UNL     1      45.089   2.088   9.000  0.00  0.00    +0.000 NA
BRANCH  13  16
ATOM     16  C   UNL     1      47.718   1.787   6.383  0.00  0.00    +0.000 C 
BRANCH  16  17
ATOM     17  O   UNL     1      48.813   2.701   6.341  0.00  0.00    +0.000 OA
ATOM     18  H   UNL     1      48.426   3.586   6.465  0.00  0.00    +0.000 HD
ENDBRANCH  16  17
ENDBRANCH  13  16
ENDBRANCH  10  11
ENDBRANCH   8  10
ENDBRANCH   2   4
BRANCH   2  19
ATOM     19  C   UNL     1      46.319   7.946  13.481  0.00  0.00    +0.000 C 
BRANCH  19  20
ATOM     20  N   UNL     1      46.826   9.193  12.886  0.00  0.00    +0.000 N 
ATOM     21  C   UNL     1      45.940   9.829  12.005  0.00  0.00    +0.000 A 
ATOM     22  C   UNL     1      46.323  11.055  11.459  0.00  0.00    +0.000 A 
ATOM     23  C   UNL     1      45.461  11.726  10.591  0.00  0.00    +0.000 A 
ATOM     24  C   UNL     1      44.229  11.153  10.283  0.00  0.00    +0.000 A 
ATOM     25  C   UNL     1      43.924   9.933  10.869  0.00  0.00    +0.000 A 
ATOM     26  N   UNL     1      44.741   9.279  11.732  0.00  0.00    +0.000 NA
ATOM     27  H   UNL     1      47.725   9.083  12.429  0.00  0.00    +0.000 HD
BRANCH  24  28
ATOM     28  C   UNL     1      43.260  11.756   9.351  0.00  0.00    +0.000 C 
ATOM     29  N   UNL     1      42.846  11.001   8.292  0.00  0.00    +0.000 N 
ATOM     30  O   UNL     1      42.861  12.902   9.501  0.00  0.00    +0.000 OA
ATOM     31  H   UNL     1      43.320  10.160   7.998  0.00  0.00    +0.000 HD
ATOM     32  H   UNL     1      42.255  11.467   7.613  0.00  0.00    +0.000 HD
ENDBRANCH  24  28
ENDBRANCH  19  20
ENDBRANCH   2  19
TORSDOF 8
ENDMDL
MODEL 8
REMARK VINA RESULT:    -6.866      2.879      8.157
REMARK INTER + INTRA:         -10.464
REMARK INTER:                  -9.255
REMARK INTRA:                  -1.209
REMARK UNBOUND:                -0.587
REMARK  Name = 
REMARK  10 active torsions:
REMARK  status: ('A' for Active; 'I' for Inactive)
REMARK    1  A    between atoms: C_1  and  C_2
REMARK    2  A    between atoms: C_2  and  C_3
REMARK    3  A    between atoms: C_2  and  C_4
REMARK    4  A    between atoms: C_2  and  C_15
REMARK    5  A    between atoms: C_4  and  N_5
REMARK    6  A    between atoms: C_9  and  C_10
REMARK    7  A    between atoms: C_19  and  C_20
REMARK    8  A    between atoms: C_20  and  N_21
REMARK    9  A    between atoms: C_23  and  C_24
REMARK   10  A    between atoms: C_24  and  O_25
REMARK                            x       y       z     vdW  Elec       q    Type
REMARK                         _______ _______ _______ _____ _____    ______ ____
ROOT
ATOM      1  C   UNL     1      49.722   7.703  13.053  0.00  0.00    +0.000 C 
ATOM      2  C   UNL     1      48.775   8.552  13.936  0.00  0.00    +0.000 C 
ATOM      3  C   UNL     1      48.881  10.026  13.477  0.00  0.00    +0.000 C 
ENDROOT
BRANCH   2   4
ATOM      4  C   UNL     1      49.226   8.430  15.407  0.00  0.00    +0.000 A 
ATOM      5  C   UNL     1      50.189   9.302  15.946  0.00  0.00    +0.000 A 
ATOM      6  C   UNL     1      50.552   9.242  17.296  0.00  0.00    +0.000 A 
ATOM      7  C   UNL     1      49.927   8.341  18.154  0.00  0.00    +0.000 A 
ATOM      8  C   UNL     1      48.961   7.466  17.655  0.00  0.00    +0.000 A 
ATOM      9  C   UNL     1      48.668   7.485  16.281  0.00  0.00    +0.000 A 
BRANCH   8  10
ATOM     10  C   UNL     1      48.129   6.602  18.574  0.00  0.00    +0.000 C 
BRANCH  10  11
ATOM     11  N   UNL     1      48.187   5.203  18.152  0.00  0.00    +0.000 N 
ATOM     12  C   UNL     1      49.302   4.412  18.071  0.00  0.00    +0.000 A 
ATOM     13  C   UNL     1      48.907   3.227  17.486  0.00  0.00    +0.000 A 
ATOM     14  C   UNL     1      47.509   3.373  17.348  0.00  0.00    +0.000 A 
ATOM     15  N   UNL     1      47.065   4.562  17.762  0.00  0.00    +0.000 NA
BRANCH  13  16
ATOM     16  C   UNL     1      49.745   2.070  17.087  0.00  0.00    +0.000 C 
BRANCH  16  17
ATOM     17  O   UNL     1      49.508   1.682  15.735  0.00  0.00    +0.000 OA
ATOM     18  H   UNL     1      48.640   1.239  15.733  0.00  0.00    +0.000 HD
ENDBRANCH  16  17
ENDBRANCH  13  16
ENDBRANCH  10  11
ENDBRANCH   8  10
ENDBRANCH   2   4
BRANCH   2  19
ATOM     19  C   UNL     1      47.320   8.043  13.639  0.00  0.00    +0.000 C 
BRANCH  19  20
ATOM     20  N   UNL     1      47.117   7.692  12.224  0.00  0.00    +0.000 N 
ATOM     21  C   UNL     1      46.348   6.540  12.006  0.00  0.00    +0.000 A 
ATOM     22  C   UNL     1      46.052   6.187  10.689  0.00  0.00    +0.000 A 
ATOM     23  C   UNL     1      45.276   5.056  10.433  0.00  0.00    +0.000 A 
ATOM     24  C   UNL     1      44.814   4.296  11.505  0.00  0.00    +0.000 A 
ATOM     25  C   UNL     1      45.151   4.716  12.783  0.00  0.00    +0.000 A 
ATOM     26  N   UNL     1      45.886   5.825  13.049  0.00  0.00    +0.000 NA
ATOM     27  H   UNL     1      47.983   7.616  11.701  0.00  0.00    +0.000 HD
BRANCH  24  28
ATOM     28  C   UNL     1      44.020   3.064  11.348  0.00  0.00    +0.000 C 
ATOM     29  N   UNL     1      43.686   2.378  12.480  0.00  0.00    +0.000 N 
ATOM     30  O   UNL     1      43.697   2.652  10.243  0.00  0.00    +0.000 OA
ATOM     31  H   UNL     1      44.126   2.543  13.373  0.00  0.00    +0.000 HD
ATOM     32  H   UNL     1      43.223   1.486  12.343  0.00  0.00    +0.000 HD
ENDBRANCH  24  28
ENDBRANCH  19  20
ENDBRANCH   2  19
TORSDOF 8
ENDMDL
MODEL 9
REMARK VINA RESULT:    -6.761      3.094      8.088
REMARK INTER + INTRA:         -10.313
REMARK INTER:                  -9.114
REMARK INTRA:                  -1.199
REMARK UNBOUND:                -0.587
REMARK  Name = 
REMARK  10 active torsions:
REMARK  status: ('A' for Active; 'I' for Inactive)
REMARK    1  A    between atoms: C_1  and  C_2
REMARK    2  A    between atoms: C_2  and  C_3
REMARK    3  A    between atoms: C_2  and  C_4
REMARK    4  A    between atoms: C_2  and  C_15
REMARK    5  A    between atoms: C_4  and  N_5
REMARK    6  A    between atoms: C_9  and  C_10
REMARK    7  A    between atoms: C_19  and  C_20
REMARK    8  A    between atoms: C_20  and  N_21
REMARK    9  A    between atoms: C_23  and  C_24
REMARK   10  A    between atoms: C_24  and  O_25
REMARK                            x       y       z     vdW  Elec       q    Type
REMARK                         _______ _______ _______ _____ _____    ______ ____
ROOT
ATOM      1  C   UNL     1      47.106   5.215  18.143  0.00  0.00    +0.000 C 
ATOM      2  C   UNL     1      48.143   4.353  17.382  0.00  0.00    +0.000 C 
ATOM      3  C   UNL     1      48.424   3.085  18.224  0.00  0.00    +0.000 C 
ENDROOT
BRANCH   2   4
ATOM      4  C   UNL     1      49.442   5.170  17.218  0.00  0.00    +0.000 A 
ATOM      5  C   UNL     1      50.702   4.575  17.413  0.00  0.00    +0.000 A 
ATOM      6  C   UNL     1      51.886   5.290  17.198  0.00  0.00    +0.000 A 
ATOM      7  C   UNL     1      51.842   6.604  16.737  0.00  0.00    +0.000 A 
ATOM      8  C   UNL     1      50.609   7.221  16.526  0.00  0.00    +0.000 A 
ATOM      9  C   UNL     1      49.431   6.516  16.823  0.00  0.00    +0.000 A 
BRANCH   8  10
ATOM     10  C   UNL     1      50.509   8.573  15.856  0.00  0.00    +0.000 C 
BRANCH  10  11
ATOM     11  N   UNL     1      49.709   8.481  14.635  0.00  0.00    +0.000 N 
ATOM     12  C   UNL     1      48.646   9.272  14.285  0.00  0.00    +0.000 A 
ATOM     13  C   UNL     1      48.110   8.729  13.136  0.00  0.00    +0.000 A 
ATOM     14  C   UNL     1      48.992   7.671  12.823  0.00  0.00    +0.000 A 
ATOM     15  N   UNL     1      49.970   7.524  13.719  0.00  0.00    +0.000 NA
BRANCH  13  16
ATOM     16  C   UNL     1      46.893   9.148  12.398  0.00  0.00    +0.000 C 
BRANCH  16  17
ATOM     17  O   UNL     1      45.753   9.225  13.251  0.00  0.00    +0.000 OA
ATOM     18  H   UNL     1      45.911   8.581  13.964  0.00  0.00    +0.000 HD
ENDBRANCH  16  17
ENDBRANCH  13  16
ENDBRANCH  10  11
ENDBRANCH   8  10
ENDBRANCH   2   4
BRANCH   2  19
ATOM     19  C   UNL     1      47.455   3.916  16.041  0.00  0.00    +0.000 C 
BRANCH  19  20
ATOM     20  N   UNL     1      46.988   5.059  15.241  0.00  0.00    +0.000 N 
ATOM     21  C   UNL     1      46.359   4.718  14.035  0.00  0.00    +0.000 A 
ATOM     22  C   UNL     1      45.824   5.747  13.259  0.00  0.00    +0.000 A 
ATOM     23  C   UNL     1      45.176   5.445  12.060  0.00  0.00    +0.000 A 
ATOM     24  C   UNL     1      45.078   4.114  11.661  0.00  0.00    +0.000 A 
ATOM     25  C   UNL     1      45.634   3.152  12.491  0.00  0.00    +0.000 A 
ATOM     26  N   UNL     1      46.248   3.427  13.669  0.00  0.00    +0.000 NA
ATOM     27  H   UNL     1      47.715   5.742  15.053  0.00  0.00    +0.000 HD
BRANCH  24  28
ATOM     28  C   UNL     1      44.449   3.686  10.398  0.00  0.00    +0.000 C 
ATOM     29  N   UNL     1      44.641   2.395  10.001  0.00  0.00    +0.000 N 
ATOM     30  O   UNL     1      43.803   4.467   9.713  0.00  0.00    +0.000 OA
ATOM     31  H   UNL     1      45.350   1.797  10.399  0.00  0.00    +0.000 HD
ATOM     32  H   UNL     1      44.281   2.149   9.085  0.00  0.00    +0.000 HD
ENDBRANCH  24  28
ENDBRANCH  19  20
ENDBRANCH   2  19
TORSDOF 8
ENDMDL
