MODEL 1
REMARK VINA RESULT:    -7.623      0.000      0.000
REMARK INTER + INTRA:         -11.856
REMARK INTER:                 -10.743
REMARK INTRA:                  -1.113
REMARK UNBOUND:                -1.113
REMARK  Name = 
REMARK  7 active torsions:
REMARK  status: ('A' for Active; 'I' for Inactive)
REMARK    1  A    between atoms: C_2  and  C_20
REMARK    2  A    between atoms: N_3  and  C_4
REMARK    3  A    between atoms: C_4  and  C_5
REMARK    4  A    between atoms: C_8  and  N_9
REMARK    5  A    between atoms: N_9  and  C_10
REMARK    6  A    between atoms: C_10  and  C_11
REMARK    7  A    between atoms: C_11  and  C_12
REMARK                            x       y       z     vdW  Elec       q    Type
REMARK                         _______ _______ _______ _____ _____    ______ ____
ROOT
ATOM      1  C   UNL     1      46.037   3.236   7.776  0.00  0.00    +0.000 A 
ATOM      2  C   UNL     1      45.643   2.016   8.336  0.00  0.00    +0.000 A 
ATOM      3  C   UNL     1      44.804   1.980   9.457  0.00  0.00    +0.000 A 
ATOM      4  C   UNL     1      44.351   3.157  10.059  0.00  0.00    +0.000 A 
ATOM      5  C   UNL     1      44.659   4.369   9.430  0.00  0.00    +0.000 A 
ATOM      6  C   UNL     1      45.503   4.415   8.311  0.00  0.00    +0.000 A 
ENDROOT
BRANCH   4   7
ATOM      7  N   UNL     1      43.521   3.190  11.193  0.00  0.00    +0.000 N 
ATOM      8  H   UNL     1      44.013   2.784  11.987  0.00  0.00    +0.000 HD
BRANCH   7   9
ATOM      9  C   UNL     1      42.899   4.485  11.524  0.00  0.00    +0.000 C 
BRANCH   9  10
ATOM     10  C   UNL     1      43.221   4.890  12.960  0.00  0.00    +0.000 C 
BRANCH  10  11
ATOM     11  C   UNL     1      44.693   5.167  13.108  0.00  0.00    +0.000 A 
ATOM     12  N   UNL     1      45.471   4.182  13.594  0.00  0.00    +0.000 NA
ATOM     13  C   UNL     1      46.788   4.454  13.704  0.00  0.00    +0.000 A 
ATOM     14  C   UNL     1      47.346   5.660  13.356  0.00  0.00    +0.000 A 
ATOM     15  C   UNL     1      46.464   6.603  12.884  0.00  0.00    +0.000 A 
ATOM     16  N   UNL     1      45.140   6.389  12.755  0.00  0.00    +0.000 NA
ENDBRANCH  10  11
ENDBRANCH   9  10
ENDBRANCH   7   9
ENDBRANCH   4   7
BRANCH   1  17
ATOM     17  C   UNL     1      47.017   3.270   6.633  0.00  0.00    +0.000 C 
BRANCH  17  20
ATOM     18  O   UNL     1      48.250   0.949   5.728  0.00  0.00    +0.000 OA
ATOM     19  C   UNL     1      47.242   1.340   5.139  0.00  0.00    +0.000 C 
ATOM     20  N   UNL     1      46.570   2.483   5.516  0.00  0.00    +0.000 N 
ATOM     21  H   UNL     1      45.729   2.760   5.035  0.00  0.00    +0.000 HD
BRANCH  19  22
ATOM     22  C   UNL     1      46.672   0.621   3.998  0.00  0.00    +0.000 A 
ATOM     23  C   UNL     1      46.087   1.175   2.864  0.00  0.00    +0.000 A 
ATOM     24  N   UNL     1      45.683   0.158   2.037  0.00  0.00    +0.000 N 
ATOM     25  C   UNL     1      45.983  -1.045   2.603  0.00  0.00    +0.000 A 
ATOM     26  N   UNL     1      45.703  -2.233   2.035  0.00  0.00    +0.000 NA
ATOM     27  C   UNL     1      46.099  -3.281   2.791  0.00  0.00    +0.000 A 
ATOM     28  C   UNL     1      46.731  -3.197   4.024  0.00  0.00    +0.000 A 
ATOM     29  C   UNL     1      46.997  -1.937   4.563  0.00  0.00    +0.000 A 
ATOM     30  C   UNL     1      46.604  -0.805   3.824  0.00  0.00    +0.000 A 
ATOM     31  H   UNL     1      45.230   0.253   1.142  0.00  0.00    +0.000 HD
ENDBRANCH  19  22
ENDBRANCH  17  20
ENDBRANCH   1  17
TORSDOF 7
ENDMDL
MODEL 2
REMARK VINA RESULT:    -7.609      4.577     11.651
REMARK INTER + INTRA:         -11.836
REMARK INTER:                 -11.020
REMARK INTRA:                  -0.816
REMARK UNBOUND:                -1.113
REMARK  Name = 
REMARK  7 active torsions:
REMARK  status: ('A' for Active; 'I' for Inactive)
REMARK    1  A    between atoms: C_2  and  C_20
REMARK    2  A    between atoms: N_3  and  C_4
REMARK    3  A    between atoms: C_4  and  C_5
REMARK    4  A    between atoms: C_8  and  N_9
REMARK    5  A    between atoms: N_9  and  C_10
REMARK    6  A    between atoms: C_10  and  C_11
REMARK    7  A    between atoms: C_11  and  C_12
REMARK                            x       y       z     vdW  Elec       q    Type
REMARK                         _______ _______ _______ _____ _____    ______ ____
ROOT
ATOM      1  C   UNL     1      46.902   5.837  13.322  0.00  0.00    +0.000 A 
ATOM      2  C   UNL     1      46.195   4.661  13.592  0.00  0.00    +0.000 A 
ATOM      3  C   UNL     1      45.195   4.210  12.721  0.00  0.00    +0.000 A 
ATOM      4  C   UNL     1      44.861   4.928  11.570  0.00  0.00    +0.000 A 
ATOM      5  C   UNL     1      45.645   6.043  11.249  0.00  0.00    +0.000 A 
ATOM      6  C   UNL     1      46.644   6.505  12.118  0.00  0.00    +0.000 A 
ENDROOT
BRANCH   4   7
ATOM      7  N   UNL     1      43.858   4.539  10.664  0.00  0.00    +0.000 N 
ATOM      8  H   UNL     1      43.150   5.268  10.607  0.00  0.00    +0.000 HD
BRANCH   7   9
ATOM      9  C   UNL     1      44.304   4.086   9.334  0.00  0.00    +0.000 C 
BRANCH   9  10
ATOM     10  C   UNL     1      44.568   2.583   9.334  0.00  0.00    +0.000 C 
BRANCH  10  11
ATOM     11  C   UNL     1      45.664   2.243   8.359  0.00  0.00    +0.000 A 
ATOM     12  N   UNL     1      46.100   0.970   8.322  0.00  0.00    +0.000 NA
ATOM     13  C   UNL     1      47.073   0.693   7.430  0.00  0.00    +0.000 A 
ATOM     14  C   UNL     1      47.623   1.629   6.591  0.00  0.00    +0.000 A 
ATOM     15  C   UNL     1      47.119   2.902   6.717  0.00  0.00    +0.000 A 
ATOM     16  N   UNL     1      46.150   3.239   7.590  0.00  0.00    +0.000 NA
ENDBRANCH  10  11
ENDBRANCH   9  10
ENDBRANCH   7   9
ENDBRANCH   4   7
BRANCH   1  17
ATOM     17  C   UNL     1      47.906   6.368  14.310  0.00  0.00    +0.000 C 
BRANCH  17  20
ATOM     18  O   UNL     1      50.042   6.101  16.069  0.00  0.00    +0.000 OA
ATOM     19  C   UNL     1      48.968   5.582  16.375  0.00  0.00    +0.000 C 
ATOM     20  N   UNL     1      47.858   5.660  15.561  0.00  0.00    +0.000 N 
ATOM     21  H   UNL     1      46.984   5.253  15.852  0.00  0.00    +0.000 HD
BRANCH  19  22
ATOM     22  C   UNL     1      48.780   4.849  17.628  0.00  0.00    +0.000 A 
ATOM     23  C   UNL     1      48.582   3.481  17.778  0.00  0.00    +0.000 A 
ATOM     24  N   UNL     1      48.452   3.200  19.114  0.00  0.00    +0.000 N 
ATOM     25  C   UNL     1      48.555   4.349  19.841  0.00  0.00    +0.000 A 
ATOM     26  N   UNL     1      48.462   4.400  21.183  0.00  0.00    +0.000 NA
ATOM     27  C   UNL     1      48.597   5.654  21.670  0.00  0.00    +0.000 A 
ATOM     28  C   UNL     1      48.813   6.797  20.912  0.00  0.00    +0.000 A 
ATOM     29  C   UNL     1      48.901   6.682  19.524  0.00  0.00    +0.000 A 
ATOM     30  C   UNL     1      48.764   5.402  18.956  0.00  0.00    +0.000 A 
ATOM     31  H   UNL     1      48.302   2.293  19.529  0.00  0.00    +0.000 HD
ENDBRANCH  19  22
ENDBRANCH  17  20
ENDBRANCH   1  17
TORSDOF 7
ENDMDL
MODEL 3
REMARK VINA RESULT:    -7.503      2.759     10.144
REMARK INTER + INTRA:         -11.687
REMARK INTER:                 -10.667
REMARK INTRA:                  -1.020
REMARK UNBOUND:                -1.113
REMARK  Name = 
REMARK  7 active torsions:
REMARK  status: ('A' for Active; 'I' for Inactive)
REMARK    1  A    between atoms: C_2  and  C_20
REMARK    2  A    between atoms: N_3  and  C_4
REMARK    3  A    between atoms: C_4  and  C_5
REMARK    4  A    between atoms: C_8  and  N_9
REMARK    5  A    between atoms: N_9  and  C_10
REMARK    6  A    between atoms: C_10  and  C_11
REMARK    7  A    between atoms: C_11  and  C_12
REMARK                            x       y       z     vdW  Elec       q    Type
REMARK                         _______ _______ _______ _____ _____    ______ ____
ROOT
ATOM      1  C   UNL     1      44.525   4.108   9.774  0.00  0.00    +0.000 A 
ATOM      2  C   UNL     1      44.405   2.724   9.934  0.00  0.00    +0.000 A 
ATOM      3  C   UNL     1      45.092   1.843   9.088  0.00  0.00    +0.000 A 
ATOM      4  C   UNL     1      45.900   2.318   8.051  0.00  0.00    +0.000 A 
ATOM      5  C   UNL     1      46.101   3.701   7.966  0.00  0.00    +0.000 A 
ATOM      6  C   UNL     1      45.414   4.590   8.804  0.00  0.00    +0.000 A 
ENDROOT
BRANCH   4   7
ATOM      7  N   UNL     1      46.602   1.488   7.160  0.00  0.00    +0.000 N 
ATOM      8  H   UNL     1      45.942   1.007   6.551  0.00  0.00    +0.000 HD
BRANCH   7   9
ATOM      9  C   UNL     1      47.707   2.108   6.406  0.00  0.00    +0.000 C 
BRANCH   9  10
ATOM     10  C   UNL     1      47.258   2.483   4.996  0.00  0.00    +0.000 C 
BRANCH  10  11
ATOM     11  C   UNL     1      46.852   1.252   4.232  0.00  0.00    +0.000 A 
ATOM     12  N   UNL     1      45.987   1.403   3.212  0.00  0.00    +0.000 NA
ATOM     13  C   UNL     1      45.650   0.285   2.537  0.00  0.00    +0.000 A 
ATOM     14  C   UNL     1      46.136  -0.962   2.844  0.00  0.00    +0.000 A 
ATOM     15  C   UNL     1      47.001  -1.012   3.911  0.00  0.00    +0.000 A 
ATOM     16  N   UNL     1      47.371   0.070   4.623  0.00  0.00    +0.000 NA
ENDBRANCH  10  11
ENDBRANCH   9  10
ENDBRANCH   7   9
ENDBRANCH   4   7
BRANCH   1  17
ATOM     17  C   UNL     1      43.709   5.048  10.622  0.00  0.00    +0.000 C 
BRANCH  17  20
ATOM     18  O   UNL     1      44.894   5.740  13.039  0.00  0.00    +0.000 OA
ATOM     19  C   UNL     1      44.963   6.541  12.107  0.00  0.00    +0.000 C 
ATOM     20  N   UNL     1      44.400   6.283  10.875  0.00  0.00    +0.000 N 
ATOM     21  H   UNL     1      44.500   6.944  10.122  0.00  0.00    +0.000 HD
BRANCH  19  22
ATOM     22  C   UNL     1      45.654   7.826  12.227  0.00  0.00    +0.000 A 
ATOM     23  C   UNL     1      45.087   9.057  12.539  0.00  0.00    +0.000 A 
ATOM     24  N   UNL     1      46.078  10.006  12.552  0.00  0.00    +0.000 N 
ATOM     25  C   UNL     1      47.276   9.428  12.252  0.00  0.00    +0.000 A 
ATOM     26  N   UNL     1      48.439  10.102  12.180  0.00  0.00    +0.000 NA
ATOM     27  C   UNL     1      49.486   9.308  11.867  0.00  0.00    +0.000 A 
ATOM     28  C   UNL     1      49.424   7.941  11.637  0.00  0.00    +0.000 A 
ATOM     29  C   UNL     1      48.190   7.294  11.726  0.00  0.00    +0.000 A 
ATOM     30  C   UNL     1      47.060   8.069  12.046  0.00  0.00    +0.000 A 
ATOM     31  H   UNL     1      45.970  10.989  12.749  0.00  0.00    +0.000 HD
ENDBRANCH  19  22
ENDBRANCH  17  20
ENDBRANCH   1  17
TORSDOF 7
ENDMDL
MODEL 4
REMARK VINA RESULT:    -7.304      3.879     10.641
REMARK INTER + INTRA:         -11.406
REMARK INTER:                 -10.340
REMARK INTRA:                  -1.066
REMARK UNBOUND:                -1.113
REMARK  Name = 
REMARK  7 active torsions:
REMARK  status: ('A' for Active; 'I' for Inactive)
REMARK    1  A    between atoms: C_2  and  C_20
REMARK    2  A    between atoms: N_3  and  C_4
REMARK    3  A    between atoms: C_4  and  C_5
REMARK    4  A    between atoms: C_8  and  N_9
REMARK    5  A    between atoms: N_9  and  C_10
REMARK    6  A    between atoms: C_10  and  C_11
REMARK    7  A    between atoms: C_11  and  C_12
REMARK                            x       y       z     vdW  Elec       q    Type
REMARK                         _______ _______ _______ _____ _____    ______ ____
ROOT
ATOM      1  C   UNL     1      46.348   7.221  12.822  0.00  0.00    +0.000 A 
ATOM      2  C   UNL     1      45.476   7.675  11.826  0.00  0.00    +0.000 A 
ATOM      3  C   UNL     1      44.753   6.769  11.040  0.00  0.00    +0.000 A 
ATOM      4  C   UNL     1      44.892   5.389  11.212  0.00  0.00    +0.000 A 
ATOM      5  C   UNL     1      45.682   4.944  12.280  0.00  0.00    +0.000 A 
ATOM      6  C   UNL     1      46.414   5.843  13.069  0.00  0.00    +0.000 A 
ENDROOT
BRANCH   4   7
ATOM      7  N   UNL     1      44.209   4.428  10.447  0.00  0.00    +0.000 N 
ATOM      8  H   UNL     1      44.175   4.729   9.474  0.00  0.00    +0.000 HD
BRANCH   7   9
ATOM      9  C   UNL     1      44.655   3.029  10.584  0.00  0.00    +0.000 C 
BRANCH   9  10
ATOM     10  C   UNL     1      44.372   2.243   9.307  0.00  0.00    +0.000 C 
BRANCH  10  11
ATOM     11  C   UNL     1      45.580   2.250   8.409  0.00  0.00    +0.000 A 
ATOM     12  N   UNL     1      46.212   1.081   8.199  0.00  0.00    +0.000 NA
ATOM     13  C   UNL     1      47.285   1.115   7.380  0.00  0.00    +0.000 A 
ATOM     14  C   UNL     1      47.744   2.260   6.778  0.00  0.00    +0.000 A 
ATOM     15  C   UNL     1      47.038   3.403   7.069  0.00  0.00    +0.000 A 
ATOM     16  N   UNL     1      45.962   3.431   7.880  0.00  0.00    +0.000 NA
ENDBRANCH  10  11
ENDBRANCH   9  10
ENDBRANCH   7   9
ENDBRANCH   4   7
BRANCH   1  17
ATOM     17  C   UNL     1      47.195   8.195  13.596  0.00  0.00    +0.000 C 
BRANCH  17  20
ATOM     18  O   UNL     1      49.696   7.013  13.874  0.00  0.00    +0.000 OA
ATOM     19  C   UNL     1      48.960   7.057  14.860  0.00  0.00    +0.000 C 
ATOM     20  N   UNL     1      47.702   7.620  14.813  0.00  0.00    +0.000 N 
ATOM     21  H   UNL     1      47.136   7.670  15.644  0.00  0.00    +0.000 HD
BRANCH  19  22
ATOM     22  C   UNL     1      49.363   6.525  16.164  0.00  0.00    +0.000 A 
ATOM     23  C   UNL     1      50.316   7.053  17.028  0.00  0.00    +0.000 A 
ATOM     24  N   UNL     1      50.390   6.255  18.141  0.00  0.00    +0.000 N 
ATOM     25  C   UNL     1      49.514   5.217  18.024  0.00  0.00    +0.000 A 
ATOM     26  N   UNL     1      49.359   4.256  18.955  0.00  0.00    +0.000 NA
ATOM     27  C   UNL     1      48.431   3.337  18.610  0.00  0.00    +0.000 A 
ATOM     28  C   UNL     1      47.688   3.339  17.437  0.00  0.00    +0.000 A 
ATOM     29  C   UNL     1      47.891   4.361  16.508  0.00  0.00    +0.000 A 
ATOM     30  C   UNL     1      48.849   5.347  16.809  0.00  0.00    +0.000 A 
ATOM     31  H   UNL     1      50.990   6.388  18.940  0.00  0.00    +0.000 HD
ENDBRANCH  19  22
ENDBRANCH  17  20
ENDBRANCH   1  17
TORSDOF 7
ENDMDL
MODEL 5
REMARK VINA RESULT:    -6.800      5.057     12.174
REMARK INTER + INTRA:         -10.696
REMARK INTER:                  -9.753
REMARK INTRA:                  -0.942
REMARK UNBOUND:                -1.113
REMARK  Name = 
REMARK  7 active torsions:
REMARK  status: ('A' for Active; 'I' for Inactive)
REMARK    1  A    between atoms: C_2  and  C_20
REMARK    2  A    between atoms: N_3  and  C_4
REMARK    3  A    between atoms: C_4  and  C_5
REMARK    4  A    between atoms: C_8  and  N_9
REMARK    5  A    between atoms: N_9  and  C_10
REMARK    6  A    between atoms: C_10  and  C_11
REMARK    7  A    between atoms: C_11  and  C_12
REMARK                            x       y       z     vdW  Elec       q    Type
REMARK                         _______ _______ _______ _____ _____    ______ ____
ROOT
ATOM      1  C   UNL     1      48.121   6.928  13.894  0.00  0.00    +0.000 A 
ATOM      2  C   UNL     1      47.923   7.777  12.800  0.00  0.00    +0.000 A 
ATOM      3  C   UNL     1      47.107   7.388  11.730  0.00  0.00    +0.000 A 
ATOM      4  C   UNL     1      46.482   6.138  11.713  0.00  0.00    +0.000 A 
ATOM      5  C   UNL     1      46.596   5.340  12.858  0.00  0.00    +0.000 A 
ATOM      6  C   UNL     1      47.415   5.718  13.931  0.00  0.00    +0.000 A 
ENDROOT
BRANCH   4   7
ATOM      7  N   UNL     1      45.665   5.682  10.664  0.00  0.00    +0.000 N 
ATOM      8  H   UNL     1      46.243   5.251   9.945  0.00  0.00    +0.000 HD
BRANCH   7   9
ATOM      9  C   UNL     1      44.514   4.839  11.037  0.00  0.00    +0.000 C 
BRANCH   9  10
ATOM     10  C   UNL     1      43.856   4.241   9.797  0.00  0.00    +0.000 C 
BRANCH  10  11
ATOM     11  C   UNL     1      44.883   3.546   8.943  0.00  0.00    +0.000 A 
ATOM     12  N   UNL     1      45.538   4.281   8.025  0.00  0.00    +0.000 NA
ATOM     13  C   UNL     1      46.461   3.635   7.283  0.00  0.00    +0.000 A 
ATOM     14  C   UNL     1      46.745   2.298   7.420  0.00  0.00    +0.000 A 
ATOM     15  C   UNL     1      46.011   1.634   8.374  0.00  0.00    +0.000 A 
ATOM     16  N   UNL     1      45.076   2.226   9.143  0.00  0.00    +0.000 NA
ENDBRANCH  10  11
ENDBRANCH   9  10
ENDBRANCH   7   9
ENDBRANCH   4   7
BRANCH   1  17
ATOM     17  C   UNL     1      49.076   7.310  14.993  0.00  0.00    +0.000 C 
BRANCH  17  20
ATOM     18  O   UNL     1      50.089   5.331  16.662  0.00  0.00    +0.000 OA
ATOM     19  C   UNL     1      49.127   5.989  17.057  0.00  0.00    +0.000 C 
ATOM     20  N   UNL     1      48.557   6.986  16.295  0.00  0.00    +0.000 N 
ATOM     21  H   UNL     1      47.791   7.529  16.658  0.00  0.00    +0.000 HD
BRANCH  19  22
ATOM     22  C   UNL     1      48.516   5.773  18.370  0.00  0.00    +0.000 A 
ATOM     23  C   UNL     1      47.158   5.731  18.667  0.00  0.00    +0.000 A 
ATOM     24  N   UNL     1      47.009   5.505  20.011  0.00  0.00    +0.000 N 
ATOM     25  C   UNL     1      48.233   5.404  20.602  0.00  0.00    +0.000 A 
ATOM     26  N   UNL     1      48.417   5.189  21.918  0.00  0.00    +0.000 NA
ATOM     27  C   UNL     1      49.723   5.127  22.261  0.00  0.00    +0.000 A 
ATOM     28  C   UNL     1      50.795   5.261  21.390  0.00  0.00    +0.000 A 
ATOM     29  C   UNL     1      50.543   5.481  20.035  0.00  0.00    +0.000 A 
ATOM     30  C   UNL     1      49.202   5.560  19.616  0.00  0.00    +0.000 A 
ATOM     31  H   UNL     1      46.140   5.422  20.517  0.00  0.00    +0.000 HD
ENDBRANCH  19  22
ENDBRANCH  17  20
ENDBRANCH   1  17
TORSDOF 7
ENDMDL
MODEL 6
REMARK VINA RESULT:    -6.710      4.807     10.992
REMARK INTER + INTRA:         -10.568
REMARK INTER:                  -9.655
REMARK INTRA:                  -0.913
REMARK UNBOUND:                -1.113
REMARK  Name = 
REMARK  7 active torsions:
REMARK  status: ('A' for Active; 'I' for Inactive)
REMARK    1  A    between atoms: C_2  and  C_20
REMARK    2  A    between atoms: N_3  and  C_4
REMARK    3  A    between atoms: C_4  and  C_5
REMARK    4  A    between atoms: C_8  and  N_9
REMARK    5  A    between atoms: N_9  and  C_10
REMARK    6  A    between atoms: C_10  and  C_11
REMARK    7  A    between atoms: C_11  and  C_12
REMARK                            x       y       z     vdW  Elec       q    Type
REMARK                         _______ _______ _______ _____ _____    ______ ____
ROOT
ATOM      1  C   UNL     1      47.334   5.819  13.980  0.00  0.00    +0.000 A 
ATOM      2  C   UNL     1      47.320   4.467  14.341  0.00  0.00    +0.000 A 
ATOM      3  C   UNL     1      46.539   3.544  13.633  0.00  0.00    +0.000 A 
ATOM      4  C   UNL     1      45.741   3.946  12.559  0.00  0.00    +0.000 A 
ATOM      5  C   UNL     1      45.844   5.277  12.135  0.00  0.00    +0.000 A 
ATOM      6  C   UNL     1      46.618   6.209  12.841  0.00  0.00    +0.000 A 
ENDROOT
BRANCH   4   7
ATOM      7  N   UNL     1      44.924   3.074  11.818  0.00  0.00    +0.000 N 
ATOM      8  H   UNL     1      44.118   2.804  12.379  0.00  0.00    +0.000 HD
BRANCH   7   9
ATOM      9  C   UNL     1      44.541   3.513  10.463  0.00  0.00    +0.000 C 
BRANCH   9  10
ATOM     10  C   UNL     1      44.417   2.319   9.521  0.00  0.00    +0.000 C 
BRANCH  10  11
ATOM     11  C   UNL     1      45.505   2.357   8.481  0.00  0.00    +0.000 A 
ATOM     12  N   UNL     1      45.687   3.506   7.806  0.00  0.00    +0.000 NA
ATOM     13  C   UNL     1      46.678   3.515   6.889  0.00  0.00    +0.000 A 
ATOM     14  C   UNL     1      47.476   2.430   6.624  0.00  0.00    +0.000 A 
ATOM     15  C   UNL     1      47.198   1.300   7.357  0.00  0.00    +0.000 A 
ATOM     16  N   UNL     1      46.223   1.232   8.283  0.00  0.00    +0.000 NA
ENDBRANCH  10  11
ENDBRANCH   9  10
ENDBRANCH   7   9
ENDBRANCH   4   7
BRANCH   1  17
ATOM     17  C   UNL     1      48.096   6.821  14.804  0.00  0.00    +0.000 C 
BRANCH  17  20
ATOM     18  O   UNL     1      48.391   6.562  17.556  0.00  0.00    +0.000 OA
ATOM     19  C   UNL     1      49.292   6.138  16.832  0.00  0.00    +0.000 C 
ATOM     20  N   UNL     1      49.233   6.229  15.458  0.00  0.00    +0.000 N 
ATOM     21  H   UNL     1      49.970   5.844  14.890  0.00  0.00    +0.000 HD
BRANCH  19  22
ATOM     22  C   UNL     1      50.494   5.497  17.369  0.00  0.00    +0.000 A 
ATOM     23  C   UNL     1      51.601   6.125  17.930  0.00  0.00    +0.000 A 
ATOM     24  N   UNL     1      52.504   5.165  18.310  0.00  0.00    +0.000 N 
ATOM     25  C   UNL     1      52.019   3.928  18.008  0.00  0.00    +0.000 A 
ATOM     26  N   UNL     1      52.680   2.781  18.254  0.00  0.00    +0.000 NA
ATOM     27  C   UNL     1      51.991   1.685  17.865  0.00  0.00    +0.000 A 
ATOM     28  C   UNL     1      50.734   1.688  17.274  0.00  0.00    +0.000 A 
ATOM     29  C   UNL     1      50.096   2.908  17.044  0.00  0.00    +0.000 A 
ATOM     30  C   UNL     1      50.766   4.086  17.425  0.00  0.00    +0.000 A 
ATOM     31  H   UNL     1      53.399   5.319  18.747  0.00  0.00    +0.000 HD
ENDBRANCH  19  22
ENDBRANCH  17  20
ENDBRANCH   1  17
TORSDOF 7
ENDMDL
MODEL 7
REMARK VINA RESULT:    -6.672      4.848     10.627
REMARK INTER + INTRA:         -10.516
REMARK INTER:                  -9.375
REMARK INTRA:                  -1.141
REMARK UNBOUND:                -1.113
REMARK  Name = 
REMARK  7 active torsions:
REMARK  status: ('A' for Active; 'I' for Inactive)
REMARK    1  A    between atoms: C_2  and  C_20
REMARK    2  A    between atoms: N_3  and  C_4
REMARK    3  A    between atoms: C_4  and  C_5
REMARK    4  A    between atoms: C_8  and  N_9
REMARK    5  A    between atoms: N_9  and  C_10
REMARK    6  A    between atoms: C_10  and  C_11
REMARK    7  A    between atoms: C_11  and  C_12
REMARK                            x       y       z     vdW  Elec       q    Type
REMARK                         _______ _______ _______ _____ _____    ______ ____
ROOT
ATOM      1  C   UNL     1      47.342   6.952  12.568  0.00  0.00    +0.000 A 
ATOM      2  C   UNL     1      47.001   5.733  13.164  0.00  0.00    +0.000 A 
ATOM      3  C   UNL     1      45.667   5.308  13.215  0.00  0.00    +0.000 A 
ATOM      4  C   UNL     1      44.637   6.094  12.690  0.00  0.00    +0.000 A 
ATOM      5  C   UNL     1      44.996   7.258  11.999  0.00  0.00    +0.000 A 
ATOM      6  C   UNL     1      46.328   7.694  11.948  0.00  0.00    +0.000 A 
ENDROOT
BRANCH   4   7
ATOM      7  N   UNL     1      43.279   5.733  12.723  0.00  0.00    +0.000 N 
ATOM      8  H   UNL     1      42.725   6.522  13.052  0.00  0.00    +0.000 HD
BRANCH   7   9
ATOM      9  C   UNL     1      42.722   5.131  11.498  0.00  0.00    +0.000 C 
BRANCH   9  10
ATOM     10  C   UNL     1      43.121   3.662  11.386  0.00  0.00    +0.000 C 
BRANCH  10  11
ATOM     11  C   UNL     1      44.054   3.460  10.222  0.00  0.00    +0.000 A 
ATOM     12  N   UNL     1      44.346   2.196   9.865  0.00  0.00    +0.000 NA
ATOM     13  C   UNL     1      45.175   2.045   8.810  0.00  0.00    +0.000 A 
ATOM     14  C   UNL     1      45.718   3.097   8.115  0.00  0.00    +0.000 A 
ATOM     15  C   UNL     1      45.369   4.347   8.569  0.00  0.00    +0.000 A 
ATOM     16  N   UNL     1      44.548   4.559   9.616  0.00  0.00    +0.000 NA
ENDBRANCH  10  11
ENDBRANCH   9  10
ENDBRANCH   7   9
ENDBRANCH   4   7
BRANCH   1  17
ATOM     17  C   UNL     1      48.763   7.448  12.604  0.00  0.00    +0.000 C 
BRANCH  17  20
ATOM     18  O   UNL     1      49.329   8.785  14.974  0.00  0.00    +0.000 OA
ATOM     19  C   UNL     1      49.731   7.628  14.848  0.00  0.00    +0.000 C 
ATOM     20  N   UNL     1      49.500   6.892  13.706  0.00  0.00    +0.000 N 
ATOM     21  H   UNL     1      49.813   5.937  13.644  0.00  0.00    +0.000 HD
BRANCH  19  22
ATOM     22  C   UNL     1      50.477   6.938  15.902  0.00  0.00    +0.000 A 
ATOM     23  C   UNL     1      51.812   7.124  16.244  0.00  0.00    +0.000 A 
ATOM     24  N   UNL     1      52.120   6.285  17.284  0.00  0.00    +0.000 N 
ATOM     25  C   UNL     1      51.023   5.552  17.628  0.00  0.00    +0.000 A 
ATOM     26  N   UNL     1      51.011   4.634  18.612  0.00  0.00    +0.000 NA
ATOM     27  C   UNL     1      49.805   4.042  18.761  0.00  0.00    +0.000 A 
ATOM     28  C   UNL     1      48.670   4.317  18.010  0.00  0.00    +0.000 A 
ATOM     29  C   UNL     1      48.743   5.281  17.003  0.00  0.00    +0.000 A 
ATOM     30  C   UNL     1      49.974   5.930  16.796  0.00  0.00    +0.000 A 
ATOM     31  H   UNL     1      53.012   6.198  17.746  0.00  0.00    +0.000 HD
ENDBRANCH  19  22
ENDBRANCH  17  20
ENDBRANCH   1  17
TORSDOF 7
ENDMDL
MODEL 8
REMARK VINA RESULT:    -6.628      4.933     12.212
REMARK INTER + INTRA:         -10.453
REMARK INTER:                  -9.201
REMARK INTRA:                  -1.252
REMARK UNBOUND:                -1.113
REMARK  Name = 
REMARK  7 active torsions:
REMARK  status: ('A' for Active; 'I' for Inactive)
REMARK    1  A    between atoms: C_2  and  C_20
REMARK    2  A    between atoms: N_3  and  C_4
REMARK    3  A    between atoms: C_4  and  C_5
REMARK    4  A    between atoms: C_8  and  N_9
REMARK    5  A    between atoms: N_9  and  C_10
REMARK    6  A    between atoms: C_10  and  C_11
REMARK    7  A    between atoms: C_11  and  C_12
REMARK                            x       y       z     vdW  Elec       q    Type
REMARK                         _______ _______ _______ _____ _____    ______ ____
ROOT
ATOM      1  C   UNL     1      47.373   7.588  13.279  0.00  0.00    +0.000 A 
ATOM      2  C   UNL     1      47.530   6.364  13.938  0.00  0.00    +0.000 A 
ATOM      3  C   UNL     1      46.905   5.206  13.455  0.00  0.00    +0.000 A 
ATOM      4  C   UNL     1      46.096   5.242  12.316  0.00  0.00    +0.000 A 
ATOM      5  C   UNL     1      46.032   6.445  11.602  0.00  0.00    +0.000 A 
ATOM      6  C   UNL     1      46.649   7.610  12.080  0.00  0.00    +0.000 A 
ENDROOT
BRANCH   4   7
ATOM      7  N   UNL     1      45.430   4.122  11.790  0.00  0.00    +0.000 N 
ATOM      8  H   UNL     1      45.690   3.291  12.320  0.00  0.00    +0.000 HD
BRANCH   7   9
ATOM      9  C   UNL     1      43.970   4.238  11.616  0.00  0.00    +0.000 C 
BRANCH   9  10
ATOM     10  C   UNL     1      43.614   4.437  10.145  0.00  0.00    +0.000 C 
BRANCH  10  11
ATOM     11  C   UNL     1      44.589   3.700   9.266  0.00  0.00    +0.000 A 
ATOM     12  N   UNL     1      45.308   4.420   8.385  0.00  0.00    +0.000 NA
ATOM     13  C   UNL     1      46.183   3.735   7.620  0.00  0.00    +0.000 A 
ATOM     14  C   UNL     1      46.357   2.375   7.698  0.00  0.00    +0.000 A 
ATOM     15  C   UNL     1      45.564   1.731   8.618  0.00  0.00    +0.000 A 
ATOM     16  N   UNL     1      44.673   2.361   9.408  0.00  0.00    +0.000 NA
ENDBRANCH  10  11
ENDBRANCH   9  10
ENDBRANCH   7   9
ENDBRANCH   4   7
BRANCH   1  17
ATOM     17  C   UNL     1      47.966   8.846  13.857  0.00  0.00    +0.000 C 
BRANCH  17  20
ATOM     18  O   UNL     1      49.788   8.726  15.953  0.00  0.00    +0.000 OA
ATOM     19  C   UNL     1      48.605   8.939  16.222  0.00  0.00    +0.000 C 
ATOM     20  N   UNL     1      47.633   9.010  15.247  0.00  0.00    +0.000 N 
ATOM     21  H   UNL     1      46.679   9.218  15.494  0.00  0.00    +0.000 HD
BRANCH  19  22
ATOM     22  C   UNL     1      48.137   9.142  17.594  0.00  0.00    +0.000 A 
ATOM     23  C   UNL     1      47.719  10.337  18.169  0.00  0.00    +0.000 A 
ATOM     24  N   UNL     1      47.359  10.095  19.471  0.00  0.00    +0.000 N 
ATOM     25  C   UNL     1      47.536   8.775  19.762  0.00  0.00    +0.000 A 
ATOM     26  N   UNL     1      47.277   8.230  20.965  0.00  0.00    +0.000 NA
ATOM     27  C   UNL     1      47.532   6.904  21.005  0.00  0.00    +0.000 A 
ATOM     28  C   UNL     1      48.008   6.139  19.949  0.00  0.00    +0.000 A 
ATOM     29  C   UNL     1      48.258   6.760  18.723  0.00  0.00    +0.000 A 
ATOM     30  C   UNL     1      48.015   8.142  18.620  0.00  0.00    +0.000 A 
ATOM     31  H   UNL     1      47.014  10.769  20.137  0.00  0.00    +0.000 HD
ENDBRANCH  19  22
ENDBRANCH  17  20
ENDBRANCH   1  17
TORSDOF 7
ENDMDL
MODEL 9
REMARK VINA RESULT:    -6.582      5.005      8.804
REMARK INTER + INTRA:         -10.389
REMARK INTER:                  -9.091
REMARK INTRA:                  -1.298
REMARK UNBOUND:                -1.113
REMARK  Name = 
REMARK  7 active torsions:
REMARK  status: ('A' for Active; 'I' for Inactive)
REMARK    1  A    between atoms: C_2  and  C_20
REMARK    2  A    between atoms: N_3  and  C_4
REMARK    3  A    between atoms: C_4  and  C_5
REMARK    4  A    between atoms: C_8  and  N_9
REMARK    5  A    between atoms: N_9  and  C_10
REMARK    6  A    between atoms: C_10  and  C_11
REMARK    7  A    between atoms: C_11  and  C_12
REMARK                            x       y       z     vdW  Elec       q    Type
REMARK                         _______ _______ _______ _____ _____    ______ ____
ROOT
ATOM      1  C   UNL     1      48.921   7.411  13.919  0.00  0.00    +0.000 A 
ATOM      2  C   UNL     1      48.438   6.650  14.990  0.00  0.00    +0.000 A 
ATOM      3  C   UNL     1      49.251   6.374  16.097  0.00  0.00    +0.000 A 
ATOM      4  C   UNL     1      50.569   6.832  16.158  0.00  0.00    +0.000 A 
ATOM      5  C   UNL     1      51.010   7.683  15.137  0.00  0.00    +0.000 A 
ATOM      6  C   UNL     1      50.206   7.960  14.022  0.00  0.00    +0.000 A 
ENDROOT
BRANCH   4   7
ATOM      7  N   UNL     1      51.441   6.577  17.232  0.00  0.00    +0.000 N 
ATOM      8  H   UNL     1      50.902   6.485  18.092  0.00  0.00    +0.000 HD
BRANCH   7   9
ATOM      9  C   UNL     1      52.407   5.477  17.056  0.00  0.00    +0.000 C 
BRANCH   9  10
ATOM     10  C   UNL     1      52.187   4.390  18.105  0.00  0.00    +0.000 C 
BRANCH  10  11
ATOM     11  C   UNL     1      50.762   3.906  18.066  0.00  0.00    +0.000 A 
ATOM     12  N   UNL     1      49.915   4.370  19.002  0.00  0.00    +0.000 NA
ATOM     13  C   UNL     1      48.642   3.928  18.935  0.00  0.00    +0.000 A 
ATOM     14  C   UNL     1      48.194   3.047  17.982  0.00  0.00    +0.000 A 
ATOM     15  C   UNL     1      49.141   2.621  17.081  0.00  0.00    +0.000 A 
ATOM     16  N   UNL     1      50.426   3.026  17.100  0.00  0.00    +0.000 NA
ENDBRANCH  10  11
ENDBRANCH   9  10
ENDBRANCH   7   9
ENDBRANCH   4   7
BRANCH   1  17
ATOM     17  C   UNL     1      48.078   7.621  12.690  0.00  0.00    +0.000 C 
BRANCH  17  20
ATOM     18  O   UNL     1      45.306   7.643  12.481  0.00  0.00    +0.000 OA
ATOM     19  C   UNL     1      45.895   6.577  12.301  0.00  0.00    +0.000 C 
ATOM     20  N   UNL     1      47.267   6.472  12.390  0.00  0.00    +0.000 N 
ATOM     21  H   UNL     1      47.723   5.594  12.206  0.00  0.00    +0.000 HD
BRANCH  19  22
ATOM     22  C   UNL     1      45.189   5.337  11.970  0.00  0.00    +0.000 A 
ATOM     23  C   UNL     1      44.454   4.534  12.835  0.00  0.00    +0.000 A 
ATOM     24  N   UNL     1      43.955   3.470  12.128  0.00  0.00    +0.000 N 
ATOM     25  C   UNL     1      44.349   3.554  10.826  0.00  0.00    +0.000 A 
ATOM     26  N   UNL     1      44.024   2.650   9.883  0.00  0.00    +0.000 NA
ATOM     27  C   UNL     1      44.534   2.953   8.669  0.00  0.00    +0.000 A 
ATOM     28  C   UNL     1      45.312   4.064   8.373  0.00  0.00    +0.000 A 
ATOM     29  C   UNL     1      45.617   4.968   9.392  0.00  0.00    +0.000 A 
ATOM     30  C   UNL     1      45.117   4.705  10.681  0.00  0.00    +0.000 A 
ATOM     31  H   UNL     1      43.381   2.722  12.487  0.00  0.00    +0.000 HD
ENDBRANCH  19  22
ENDBRANCH  17  20
ENDBRANCH   1  17
TORSDOF 7
ENDMDL
