MODEL 1
REMARK VINA RESULT:    -7.713      0.000      0.000
REMARK INTER + INTRA:         -10.007
REMARK INTER:                  -9.517
REMARK INTRA:                  -0.490
REMARK UNBOUND:                -0.490
REMARK  Name = 
REMARK  5 active torsions:
REMARK  status: ('A' for Active; 'I' for Inactive)
REMARK    1  A    between atoms: C_1  and  C_2
REMARK    2  A    between atoms: C_5  and  O_6
REMARK    3  A    between atoms: O_6  and  C_7
REMARK    4  A    between atoms: C_7  and  C_8
REMARK    5  A    between atoms: C_12  and  C_13
REMARK                            x       y       z     vdW  Elec       q    Type
REMARK                         _______ _______ _______ _____ _____    ______ ____
ROOT
ATOM      1  C   UNL     1      45.437   5.169  12.271  0.00  0.00    +0.000 A 
ATOM      2  C   UNL     1      46.164   6.195  11.639  0.00  0.00    +0.000 A 
ATOM      3  C   UNL     1      47.347   6.705  12.168  0.00  0.00    +0.000 A 
ATOM      4  C   UNL     1      47.824   6.218  13.379  0.00  0.00    +0.000 A 
ATOM      5  C   UNL     1      47.148   5.195  14.060  0.00  0.00    +0.000 A 
ATOM      6  C   UNL     1      45.988   4.657  13.461  0.00  0.00    +0.000 A 
ENDROOT
BRANCH   5   7
ATOM      7  C   UNL     1      47.582   4.761  15.399  0.00  0.00    +0.000 A 
ATOM      8  C   UNL     1      47.223   3.521  15.941  0.00  0.00    +0.000 A 
ATOM      9  C   UNL     1      47.610   3.178  17.236  0.00  0.00    +0.000 A 
ATOM     10  C   UNL     1      48.361   4.085  17.962  0.00  0.00    +0.000 A 
ATOM     11  N   UNL     1      48.743   5.287  17.489  0.00  0.00    +0.000 NA
ATOM     12  C   UNL     1      48.339   5.594  16.231  0.00  0.00    +0.000 A 
ENDBRANCH   5   7
BRANCH   1  13
ATOM     13  C   UNL     1      44.051   4.754  11.764  0.00  0.00    +0.000 C 
ATOM     14  C   UNL     1      42.812   5.086  12.583  0.00  0.00    +0.000 C 
ATOM     15  C   UNL     1      43.122   5.880  11.358  0.00  0.00    +0.000 C 
BRANCH  13  16
ATOM     16  O   UNL     1      43.898   3.457  11.119  0.00  0.00    +0.000 OA
BRANCH  16  21
ATOM     17  C   UNL     1      47.104   2.900   6.594  0.00  0.00    +0.000 C 
ATOM     18  C   UNL     1      46.096   2.976   7.694  0.00  0.00    +0.000 A 
ATOM     19  C   UNL     1      45.740   1.860   8.450  0.00  0.00    +0.000 A 
ATOM     20  C   UNL     1      44.928   2.023   9.570  0.00  0.00    +0.000 A 
ATOM     21  C   UNL     1      44.516   3.304   9.893  0.00  0.00    +0.000 A 
ATOM     22  N   UNL     1      44.733   4.382   9.115  0.00  0.00    +0.000 NA
ATOM     23  C   UNL     1      45.525   4.195   8.039  0.00  0.00    +0.000 A 
ENDBRANCH  16  21
ENDBRANCH  13  16
ENDBRANCH   1  13
TORSDOF 4
ENDMDL
MODEL 2
REMARK VINA RESULT:    -7.602      2.278      3.810
REMARK INTER + INTRA:          -9.870
REMARK INTER:                  -9.231
REMARK INTRA:                  -0.639
REMARK UNBOUND:                -0.490
REMARK  Name = 
REMARK  5 active torsions:
REMARK  status: ('A' for Active; 'I' for Inactive)
REMARK    1  A    between atoms: C_1  and  C_2
REMARK    2  A    between atoms: C_5  and  O_6
REMARK    3  A    between atoms: O_6  and  C_7
REMARK    4  A    between atoms: C_7  and  C_8
REMARK    5  A    between atoms: C_12  and  C_13
REMARK                            x       y       z     vdW  Elec       q    Type
REMARK                         _______ _______ _______ _____ _____    ______ ____
ROOT
ATOM      1  C   UNL     1      45.100   5.184  12.250  0.00  0.00    +0.000 A 
ATOM      2  C   UNL     1      45.665   4.211  13.096  0.00  0.00    +0.000 A 
ATOM      3  C   UNL     1      46.922   4.367  13.674  0.00  0.00    +0.000 A 
ATOM      4  C   UNL     1      47.674   5.500  13.390  0.00  0.00    +0.000 A 
ATOM      5  C   UNL     1      47.169   6.508  12.555  0.00  0.00    +0.000 A 
ATOM      6  C   UNL     1      45.864   6.347  12.039  0.00  0.00    +0.000 A 
ENDROOT
BRANCH   5   7
ATOM      7  C   UNL     1      48.008   7.651  12.155  0.00  0.00    +0.000 A 
ATOM      8  C   UNL     1      49.358   7.512  11.815  0.00  0.00    +0.000 A 
ATOM      9  C   UNL     1      50.125   8.632  11.498  0.00  0.00    +0.000 A 
ATOM     10  C   UNL     1      49.518   9.875  11.519  0.00  0.00    +0.000 A 
ATOM     11  N   UNL     1      48.222  10.068  11.829  0.00  0.00    +0.000 NA
ATOM     12  C   UNL     1      47.508   8.959  12.143  0.00  0.00    +0.000 A 
ENDBRANCH   5   7
BRANCH   1  13
ATOM     13  C   UNL     1      43.799   4.908  11.486  0.00  0.00    +0.000 C 
ATOM     14  C   UNL     1      42.461   5.294  12.100  0.00  0.00    +0.000 C 
ATOM     15  C   UNL     1      43.036   6.124  11.002  0.00  0.00    +0.000 C 
BRANCH  13  16
ATOM     16  O   UNL     1      43.673   3.663  10.740  0.00  0.00    +0.000 OA
BRANCH  16  21
ATOM     17  C   UNL     1      46.953   2.679   6.343  0.00  0.00    +0.000 C 
ATOM     18  C   UNL     1      46.242   2.994   7.618  0.00  0.00    +0.000 A 
ATOM     19  C   UNL     1      45.925   4.301   7.986  0.00  0.00    +0.000 A 
ATOM     20  C   UNL     1      45.114   4.522   9.096  0.00  0.00    +0.000 A 
ATOM     21  C   UNL     1      44.642   3.419   9.786  0.00  0.00    +0.000 A 
ATOM     22  N   UNL     1      45.031   2.154   9.537  0.00  0.00    +0.000 NA
ATOM     23  C   UNL     1      45.815   1.970   8.454  0.00  0.00    +0.000 A 
ENDBRANCH  16  21
ENDBRANCH  13  16
ENDBRANCH   1  13
TORSDOF 4
ENDMDL
MODEL 3
REMARK VINA RESULT:    -7.351      2.762      4.638
REMARK INTER + INTRA:          -9.560
REMARK INTER:                  -9.038
REMARK INTRA:                  -0.522
REMARK UNBOUND:                -0.490
REMARK  Name = 
REMARK  5 active torsions:
REMARK  status: ('A' for Active; 'I' for Inactive)
REMARK    1  A    between atoms: C_1  and  C_2
REMARK    2  A    between atoms: C_5  and  O_6
REMARK    3  A    between atoms: O_6  and  C_7
REMARK    4  A    between atoms: C_7  and  C_8
REMARK    5  A    between atoms: C_12  and  C_13
REMARK                            x       y       z     vdW  Elec       q    Type
REMARK                         _______ _______ _______ _____ _____    ______ ____
ROOT
ATOM      1  C   UNL     1      45.241   5.879  12.536  0.00  0.00    +0.000 A 
ATOM      2  C   UNL     1      46.514   5.445  12.950  0.00  0.00    +0.000 A 
ATOM      3  C   UNL     1      47.568   6.330  13.168  0.00  0.00    +0.000 A 
ATOM      4  C   UNL     1      47.383   7.688  12.942  0.00  0.00    +0.000 A 
ATOM      5  C   UNL     1      46.138   8.186  12.529  0.00  0.00    +0.000 A 
ATOM      6  C   UNL     1      45.075   7.268  12.382  0.00  0.00    +0.000 A 
ENDROOT
BRANCH   5   7
ATOM      7  C   UNL     1      45.970   9.606  12.172  0.00  0.00    +0.000 A 
ATOM      8  C   UNL     1      47.056  10.472  12.000  0.00  0.00    +0.000 A 
ATOM      9  C   UNL     1      46.844  11.821  11.718  0.00  0.00    +0.000 A 
ATOM     10  C   UNL     1      45.542  12.276  11.605  0.00  0.00    +0.000 A 
ATOM     11  N   UNL     1      44.461  11.486  11.752  0.00  0.00    +0.000 NA
ATOM     12  C   UNL     1      44.702  10.183  12.037  0.00  0.00    +0.000 A 
ENDBRANCH   5   7
BRANCH   1  13
ATOM     13  C   UNL     1      44.157   4.874  12.130  0.00  0.00    +0.000 C 
ATOM     14  C   UNL     1      42.907   4.718  12.984  0.00  0.00    +0.000 C 
ATOM     15  C   UNL     1      42.830   5.460  11.692  0.00  0.00    +0.000 C 
BRANCH  13  16
ATOM     16  O   UNL     1      44.563   3.584  11.588  0.00  0.00    +0.000 OA
BRANCH  16  21
ATOM     17  C   UNL     1      46.638   3.256   6.426  0.00  0.00    +0.000 C 
ATOM     18  C   UNL     1      45.901   3.338   7.723  0.00  0.00    +0.000 A 
ATOM     19  C   UNL     1      45.368   2.209   8.344  0.00  0.00    +0.000 A 
ATOM     20  C   UNL     1      44.844   2.318   9.629  0.00  0.00    +0.000 A 
ATOM     21  C   UNL     1      44.889   3.557  10.246  0.00  0.00    +0.000 A 
ATOM     22  N   UNL     1      45.276   4.689   9.629  0.00  0.00    +0.000 NA
ATOM     23  C   UNL     1      45.782   4.553   8.386  0.00  0.00    +0.000 A 
ENDBRANCH  16  21
ENDBRANCH  13  16
ENDBRANCH   1  13
TORSDOF 4
ENDMDL
MODEL 4
REMARK VINA RESULT:    -7.196      2.341      3.352
REMARK INTER + INTRA:          -9.370
REMARK INTER:                  -9.330
REMARK INTRA:                  -0.040
REMARK UNBOUND:                -0.490
REMARK  Name = 
REMARK  5 active torsions:
REMARK  status: ('A' for Active; 'I' for Inactive)
REMARK    1  A    between atoms: C_1  and  C_2
REMARK    2  A    between atoms: C_5  and  O_6
REMARK    3  A    between atoms: O_6  and  C_7
REMARK    4  A    between atoms: C_7  and  C_8
REMARK    5  A    between atoms: C_12  and  C_13
REMARK                            x       y       z     vdW  Elec       q    Type
REMARK                         _______ _______ _______ _____ _____    ______ ____
ROOT
ATOM      1  C   UNL     1      44.787   5.433  11.357  0.00  0.00    +0.000 A 
ATOM      2  C   UNL     1      43.889   6.510  11.234  0.00  0.00    +0.000 A 
ATOM      3  C   UNL     1      44.273   7.829  11.463  0.00  0.00    +0.000 A 
ATOM      4  C   UNL     1      45.575   8.107  11.860  0.00  0.00    +0.000 A 
ATOM      5  C   UNL     1      46.519   7.079  12.001  0.00  0.00    +0.000 A 
ATOM      6  C   UNL     1      46.112   5.761  11.697  0.00  0.00    +0.000 A 
ENDROOT
BRANCH   5   7
ATOM      7  C   UNL     1      47.864   7.353  12.537  0.00  0.00    +0.000 A 
ATOM      8  C   UNL     1      48.836   8.051  11.810  0.00  0.00    +0.000 A 
ATOM      9  C   UNL     1      50.113   8.235  12.338  0.00  0.00    +0.000 A 
ATOM     10  C   UNL     1      50.390   7.723  13.593  0.00  0.00    +0.000 A 
ATOM     11  N   UNL     1      49.492   7.053  14.341  0.00  0.00    +0.000 NA
ATOM     12  C   UNL     1      48.263   6.881  13.793  0.00  0.00    +0.000 A 
ENDBRANCH   5   7
BRANCH   1  13
ATOM     13  C   UNL     1      44.296   3.982  11.277  0.00  0.00    +0.000 C 
ATOM     14  C   UNL     1      44.935   2.914  12.154  0.00  0.00    +0.000 C 
ATOM     15  C   UNL     1      43.586   3.446  12.503  0.00  0.00    +0.000 C 
BRANCH  13  16
ATOM     16  O   UNL     1      43.953   3.428   9.974  0.00  0.00    +0.000 OA
BRANCH  16  21
ATOM     17  C   UNL     1      47.639   2.269   5.958  0.00  0.00    +0.000 C 
ATOM     18  C   UNL     1      46.809   2.642   7.141  0.00  0.00    +0.000 A 
ATOM     19  C   UNL     1      46.422   3.959   7.388  0.00  0.00    +0.000 A 
ATOM     20  C   UNL     1      45.508   4.226   8.405  0.00  0.00    +0.000 A 
ATOM     21  C   UNL     1      45.010   3.154   9.127  0.00  0.00    +0.000 A 
ATOM     22  N   UNL     1      45.458   1.891   9.002  0.00  0.00    +0.000 NA
ATOM     23  C   UNL     1      46.339   1.662   8.007  0.00  0.00    +0.000 A 
ENDBRANCH  16  21
ENDBRANCH  13  16
ENDBRANCH   1  13
TORSDOF 4
ENDMDL
MODEL 5
REMARK VINA RESULT:    -6.887      3.450      7.081
REMARK INTER + INTRA:          -8.988
REMARK INTER:                  -8.098
REMARK INTRA:                  -0.890
REMARK UNBOUND:                -0.490
REMARK  Name = 
REMARK  5 active torsions:
REMARK  status: ('A' for Active; 'I' for Inactive)
REMARK    1  A    between atoms: C_1  and  C_2
REMARK    2  A    between atoms: C_5  and  O_6
REMARK    3  A    between atoms: O_6  and  C_7
REMARK    4  A    between atoms: C_7  and  C_8
REMARK    5  A    between atoms: C_12  and  C_13
REMARK                            x       y       z     vdW  Elec       q    Type
REMARK                         _______ _______ _______ _____ _____    ______ ____
ROOT
ATOM      1  C   UNL     1      45.097   6.438  11.906  0.00  0.00    +0.000 A 
ATOM      2  C   UNL     1      43.755   6.212  12.263  0.00  0.00    +0.000 A 
ATOM      3  C   UNL     1      42.987   5.210  11.675  0.00  0.00    +0.000 A 
ATOM      4  C   UNL     1      43.539   4.417  10.676  0.00  0.00    +0.000 A 
ATOM      5  C   UNL     1      44.871   4.591  10.274  0.00  0.00    +0.000 A 
ATOM      6  C   UNL     1      45.640   5.573  10.938  0.00  0.00    +0.000 A 
ENDROOT
BRANCH   5   7
ATOM      7  C   UNL     1      45.424   3.838   9.135  0.00  0.00    +0.000 A 
ATOM      8  C   UNL     1      45.484   2.439   9.115  0.00  0.00    +0.000 A 
ATOM      9  C   UNL     1      46.069   1.774   8.039  0.00  0.00    +0.000 A 
ATOM     10  C   UNL     1      46.575   2.525   6.993  0.00  0.00    +0.000 A 
ATOM     11  N   UNL     1      46.535   3.871   6.954  0.00  0.00    +0.000 NA
ATOM     12  C   UNL     1      45.971   4.488   8.022  0.00  0.00    +0.000 A 
ENDBRANCH   5   7
BRANCH   1  13
ATOM     13  C   UNL     1      45.861   7.657  12.436  0.00  0.00    +0.000 C 
ATOM     14  C   UNL     1      47.064   7.464  13.347  0.00  0.00    +0.000 C 
ATOM     15  C   UNL     1      47.273   7.840  11.919  0.00  0.00    +0.000 C 
BRANCH  13  16
ATOM     16  O   UNL     1      45.107   8.838  12.838  0.00  0.00    +0.000 OA
BRANCH  16  21
ATOM     17  C   UNL     1      44.873  12.283   8.463  0.00  0.00    +0.000 C 
ATOM     18  C   UNL     1      44.780  11.463   9.707  0.00  0.00    +0.000 A 
ATOM     19  C   UNL     1      43.850  10.433   9.848  0.00  0.00    +0.000 A 
ATOM     20  C   UNL     1      43.921   9.593  10.956  0.00  0.00    +0.000 A 
ATOM     21  C   UNL     1      44.934   9.813  11.874  0.00  0.00    +0.000 A 
ATOM     22  N   UNL     1      45.765  10.871  11.836  0.00  0.00    +0.000 NA
ATOM     23  C   UNL     1      45.675  11.666  10.750  0.00  0.00    +0.000 A 
ENDBRANCH  16  21
ENDBRANCH  13  16
ENDBRANCH   1  13
TORSDOF 4
ENDMDL
MODEL 6
REMARK VINA RESULT:    -6.769      1.893      7.152
REMARK INTER + INTRA:          -8.843
REMARK INTER:                  -8.144
REMARK INTRA:                  -0.699
REMARK UNBOUND:                -0.490
REMARK  Name = 
REMARK  5 active torsions:
REMARK  status: ('A' for Active; 'I' for Inactive)
REMARK    1  A    between atoms: C_1  and  C_2
REMARK    2  A    between atoms: C_5  and  O_6
REMARK    3  A    between atoms: O_6  and  C_7
REMARK    4  A    between atoms: C_7  and  C_8
REMARK    5  A    between atoms: C_12  and  C_13
REMARK                            x       y       z     vdW  Elec       q    Type
REMARK                         _______ _______ _______ _____ _____    ______ ____
ROOT
ATOM      1  C   UNL     1      45.504   6.383  11.859  0.00  0.00    +0.000 A 
ATOM      2  C   UNL     1      44.117   6.600  11.966  0.00  0.00    +0.000 A 
ATOM      3  C   UNL     1      43.189   5.852  11.246  0.00  0.00    +0.000 A 
ATOM      4  C   UNL     1      43.630   4.878  10.360  0.00  0.00    +0.000 A 
ATOM      5  C   UNL     1      44.999   4.612  10.205  0.00  0.00    +0.000 A 
ATOM      6  C   UNL     1      45.908   5.343  11.001  0.00  0.00    +0.000 A 
ENDROOT
BRANCH   5   7
ATOM      7  C   UNL     1      45.477   3.666   9.181  0.00  0.00    +0.000 A 
ATOM      8  C   UNL     1      46.004   4.088   7.955  0.00  0.00    +0.000 A 
ATOM      9  C   UNL     1      46.390   3.154   6.995  0.00  0.00    +0.000 A 
ATOM     10  C   UNL     1      46.249   1.809   7.287  0.00  0.00    +0.000 A 
ATOM     11  N   UNL     1      45.757   1.346   8.453  0.00  0.00    +0.000 NA
ATOM     12  C   UNL     1      45.380   2.281   9.360  0.00  0.00    +0.000 A 
ENDBRANCH   5   7
BRANCH   1  13
ATOM     13  C   UNL     1      46.506   7.335  12.522  0.00  0.00    +0.000 C 
ATOM     14  C   UNL     1      46.689   8.745  11.978  0.00  0.00    +0.000 C 
ATOM     15  C   UNL     1      45.919   8.534  13.238  0.00  0.00    +0.000 C 
BRANCH  13  16
ATOM     16  O   UNL     1      47.781   6.803  12.984  0.00  0.00    +0.000 OA
BRANCH  16  21
ATOM     17  C   UNL     1      48.419   3.805  17.639  0.00  0.00    +0.000 C 
ATOM     18  C   UNL     1      48.125   4.725  16.499  0.00  0.00    +0.000 A 
ATOM     19  C   UNL     1      48.764   5.956  16.357  0.00  0.00    +0.000 A 
ATOM     20  C   UNL     1      48.579   6.693  15.190  0.00  0.00    +0.000 A 
ATOM     21  C   UNL     1      47.769   6.155  14.205  0.00  0.00    +0.000 A 
ATOM     22  N   UNL     1      47.038   5.035  14.361  0.00  0.00    +0.000 NA
ATOM     23  C   UNL     1      47.239   4.342  15.500  0.00  0.00    +0.000 A 
ENDBRANCH  16  21
ENDBRANCH  13  16
ENDBRANCH   1  13
TORSDOF 4
ENDMDL
MODEL 7
REMARK VINA RESULT:    -6.703      2.354      7.570
REMARK INTER + INTRA:          -8.761
REMARK INTER:                  -7.788
REMARK INTRA:                  -0.974
REMARK UNBOUND:                -0.490
REMARK  Name = 
REMARK  5 active torsions:
REMARK  status: ('A' for Active; 'I' for Inactive)
REMARK    1  A    between atoms: C_1  and  C_2
REMARK    2  A    between atoms: C_5  and  O_6
REMARK    3  A    between atoms: O_6  and  C_7
REMARK    4  A    between atoms: C_7  and  C_8
REMARK    5  A    between atoms: C_12  and  C_13
REMARK                            x       y       z     vdW  Elec       q    Type
REMARK                         _______ _______ _______ _____ _____    ______ ____
ROOT
ATOM      1  C   UNL     1      47.409   7.512  12.596  0.00  0.00    +0.000 A 
ATOM      2  C   UNL     1      46.422   8.475  12.877  0.00  0.00    +0.000 A 
ATOM      3  C   UNL     1      45.096   8.318  12.483  0.00  0.00    +0.000 A 
ATOM      4  C   UNL     1      44.723   7.194  11.756  0.00  0.00    +0.000 A 
ATOM      5  C   UNL     1      45.658   6.197  11.443  0.00  0.00    +0.000 A 
ATOM      6  C   UNL     1      46.979   6.357  11.916  0.00  0.00    +0.000 A 
ENDROOT
BRANCH   5   7
ATOM      7  C   UNL     1      45.297   5.065  10.571  0.00  0.00    +0.000 A 
ATOM      8  C   UNL     1      45.626   5.027   9.211  0.00  0.00    +0.000 A 
ATOM      9  C   UNL     1      45.212   3.961   8.415  0.00  0.00    +0.000 A 
ATOM     10  C   UNL     1      44.481   2.943   9.001  0.00  0.00    +0.000 A 
ATOM     11  N   UNL     1      44.144   2.922  10.305  0.00  0.00    +0.000 NA
ATOM     12  C   UNL     1      44.551   3.980  11.049  0.00  0.00    +0.000 A 
ENDBRANCH   5   7
BRANCH   1  13
ATOM     13  C   UNL     1      48.889   7.791  12.882  0.00  0.00    +0.000 C 
ATOM     14  C   UNL     1      49.803   8.265  11.761  0.00  0.00    +0.000 C 
ATOM     15  C   UNL     1      49.329   9.238  12.787  0.00  0.00    +0.000 C 
BRANCH  13  16
ATOM     16  O   UNL     1      49.612   6.901  13.780  0.00  0.00    +0.000 OA
BRANCH  16  21
ATOM     17  C   UNL     1      48.138   5.923  19.065  0.00  0.00    +0.000 C 
ATOM     18  C   UNL     1      48.357   6.280  17.632  0.00  0.00    +0.000 A 
ATOM     19  C   UNL     1      48.801   7.544  17.243  0.00  0.00    +0.000 A 
ATOM     20  C   UNL     1      49.152   7.768  15.914  0.00  0.00    +0.000 A 
ATOM     21  C   UNL     1      49.055   6.707  15.030  0.00  0.00    +0.000 A 
ATOM     22  N   UNL     1      48.511   5.516  15.342  0.00  0.00    +0.000 NA
ATOM     23  C   UNL     1      48.183   5.327  16.637  0.00  0.00    +0.000 A 
ENDBRANCH  16  21
ENDBRANCH  13  16
ENDBRANCH   1  13
TORSDOF 4
ENDMDL
MODEL 8
REMARK VINA RESULT:    -6.005      2.625      4.375
REMARK INTER + INTRA:          -7.900
REMARK INTER:                  -7.185
REMARK INTRA:                  -0.715
REMARK UNBOUND:                -0.490
REMARK  Name = 
REMARK  5 active torsions:
REMARK  status: ('A' for Active; 'I' for Inactive)
REMARK    1  A    between atoms: C_1  and  C_2
REMARK    2  A    between atoms: C_5  and  O_6
REMARK    3  A    between atoms: O_6  and  C_7
REMARK    4  A    between atoms: C_7  and  C_8
REMARK    5  A    between atoms: C_12  and  C_13
REMARK                            x       y       z     vdW  Elec       q    Type
REMARK                         _______ _______ _______ _____ _____    ______ ____
ROOT
ATOM      1  C   UNL     1      48.269   8.009  14.135  0.00  0.00    +0.000 A 
ATOM      2  C   UNL     1      48.154   9.123  14.986  0.00  0.00    +0.000 A 
ATOM      3  C   UNL     1      48.386   9.040  16.357  0.00  0.00    +0.000 A 
ATOM      4  C   UNL     1      48.709   7.815  16.926  0.00  0.00    +0.000 A 
ATOM      5  C   UNL     1      48.840   6.665  16.134  0.00  0.00    +0.000 A 
ATOM      6  C   UNL     1      48.663   6.800  14.739  0.00  0.00    +0.000 A 
ENDROOT
BRANCH   5   7
ATOM      7  C   UNL     1      49.063   5.344  16.746  0.00  0.00    +0.000 A 
ATOM      8  C   UNL     1      50.262   5.002  17.383  0.00  0.00    +0.000 A 
ATOM      9  C   UNL     1      50.446   3.720  17.897  0.00  0.00    +0.000 A 
ATOM     10  C   UNL     1      49.418   2.803  17.771  0.00  0.00    +0.000 A 
ATOM     11  N   UNL     1      48.241   3.079  17.176  0.00  0.00    +0.000 NA
ATOM     12  C   UNL     1      48.099   4.331  16.677  0.00  0.00    +0.000 A 
ENDBRANCH   5   7
BRANCH   1  13
ATOM     13  C   UNL     1      47.835   8.087  12.666  0.00  0.00    +0.000 C 
ATOM     14  C   UNL     1      48.506   9.080  11.728  0.00  0.00    +0.000 C 
ATOM     15  C   UNL     1      48.853   7.632  11.641  0.00  0.00    +0.000 C 
BRANCH  13  16
ATOM     16  O   UNL     1      46.419   7.966  12.345  0.00  0.00    +0.000 OA
BRANCH  16  21
ATOM     17  C   UNL     1      43.718   3.146  11.613  0.00  0.00    +0.000 C 
ATOM     18  C   UNL     1      44.610   4.333  11.777  0.00  0.00    +0.000 A 
ATOM     19  C   UNL     1      45.126   5.027  10.684  0.00  0.00    +0.000 A 
ATOM     20  C   UNL     1      45.808   6.223  10.892  0.00  0.00    +0.000 A 
ATOM     21  C   UNL     1      45.933   6.681  12.193  0.00  0.00    +0.000 A 
ATOM     22  N   UNL     1      45.562   5.974  13.277  0.00  0.00    +0.000 NA
ATOM     23  C   UNL     1      44.901   4.821  13.044  0.00  0.00    +0.000 A 
ENDBRANCH  16  21
ENDBRANCH  13  16
ENDBRANCH   1  13
TORSDOF 4
ENDMDL
MODEL 9
REMARK VINA RESULT:    -6.004      3.419      7.478
REMARK INTER + INTRA:          -7.898
REMARK INTER:                  -6.809
REMARK INTRA:                  -1.090
REMARK UNBOUND:                -0.490
REMARK  Name = 
REMARK  5 active torsions:
REMARK  status: ('A' for Active; 'I' for Inactive)
REMARK    1  A    between atoms: C_1  and  C_2
REMARK    2  A    between atoms: C_5  and  O_6
REMARK    3  A    between atoms: O_6  and  C_7
REMARK    4  A    between atoms: C_7  and  C_8
REMARK    5  A    between atoms: C_12  and  C_13
REMARK                            x       y       z     vdW  Elec       q    Type
REMARK                         _______ _______ _______ _____ _____    ______ ____
ROOT
ATOM      1  C   UNL     1      47.942   7.984  12.709  0.00  0.00    +0.000 A 
ATOM      2  C   UNL     1      47.209   9.185  12.645  0.00  0.00    +0.000 A 
ATOM      3  C   UNL     1      45.822   9.205  12.523  0.00  0.00    +0.000 A 
ATOM      4  C   UNL     1      45.123   8.008  12.424  0.00  0.00    +0.000 A 
ATOM      5  C   UNL     1      45.793   6.777  12.481  0.00  0.00    +0.000 A 
ATOM      6  C   UNL     1      47.192   6.794  12.672  0.00  0.00    +0.000 A 
ENDROOT
BRANCH   5   7
ATOM      7  C   UNL     1      45.073   5.511  12.255  0.00  0.00    +0.000 A 
ATOM      8  C   UNL     1      43.909   5.435  11.481  0.00  0.00    +0.000 A 
ATOM      9  C   UNL     1      43.231   4.225  11.345  0.00  0.00    +0.000 A 
ATOM     10  C   UNL     1      43.741   3.107  11.982  0.00  0.00    +0.000 A 
ATOM     11  N   UNL     1      44.860   3.120  12.730  0.00  0.00    +0.000 NA
ATOM     12  C   UNL     1      45.488   4.315  12.852  0.00  0.00    +0.000 A 
ENDBRANCH   5   7
BRANCH   1  13
ATOM     13  C   UNL     1      49.474   7.990  12.661  0.00  0.00    +0.000 C 
ATOM     14  C   UNL     1      50.195   7.684  11.357  0.00  0.00    +0.000 C 
ATOM     15  C   UNL     1      50.115   9.092  11.842  0.00  0.00    +0.000 C 
BRANCH  13  16
ATOM     16  O   UNL     1      50.214   7.439  13.789  0.00  0.00    +0.000 OA
BRANCH  16  21
ATOM     17  C   UNL     1      47.676   8.873  18.540  0.00  0.00    +0.000 C 
ATOM     18  C   UNL     1      48.516   8.448  17.380  0.00  0.00    +0.000 A 
ATOM     19  C   UNL     1      48.710   7.105  17.059  0.00  0.00    +0.000 A 
ATOM     20  C   UNL     1      49.358   6.771  15.872  0.00  0.00    +0.000 A 
ATOM     21  C   UNL     1      49.774   7.803  15.048  0.00  0.00    +0.000 A 
ATOM     22  N   UNL     1      49.719   9.104  15.387  0.00  0.00    +0.000 NA
ATOM     23  C   UNL     1      49.084   9.398  16.540  0.00  0.00    +0.000 A 
ENDBRANCH  16  21
ENDBRANCH  13  16
ENDBRANCH   1  13
TORSDOF 4
ENDMDL
