MODEL 1
REMARK VINA RESULT:    -7.781      0.000      0.000
REMARK INTER + INTRA:         -12.839
REMARK INTER:                 -11.875
REMARK INTRA:                  -0.964
REMARK UNBOUND:                -0.964
REMARK  Name = 
REMARK  10 active torsions:
REMARK  status: ('A' for Active; 'I' for Inactive)
REMARK    1  A    between atoms: C_2  and  C_3
REMARK    2  A    between atoms: C_3  and  N_4
REMARK    3  A    between atoms: C_3  and  C_22
REMARK    4  A    between atoms: N_4  and  C_5
REMARK    5  A    between atoms: C_5  and  C_6
REMARK    6  A    between atoms: C_9  and  C_10
REMARK    7  A    between atoms: C_10  and  N_11
REMARK    8  A    between atoms: N_11  and  C_12
REMARK    9  A    between atoms: N_11  and  C_13
REMARK   10  A    between atoms: C_13  and  C_14
REMARK                            x       y       z     vdW  Elec       q    Type
REMARK                         _______ _______ _______ _____ _____    ______ ____
ROOT
ATOM      1  C   UNL     1      48.728   6.552  15.003  0.00  0.00    +0.000 C 
ENDROOT
BRANCH   1   2
ATOM      2  C   UNL     1      47.706   6.187  13.960  0.00  0.00    +0.000 A 
ATOM      3  C   UNL     1      46.877   5.072  14.142  0.00  0.00    +0.000 A 
ATOM      4  C   UNL     1      45.916   4.746  13.189  0.00  0.00    +0.000 A 
ATOM      5  C   UNL     1      45.722   5.565  12.067  0.00  0.00    +0.000 A 
ATOM      6  C   UNL     1      46.559   6.674  11.881  0.00  0.00    +0.000 A 
ATOM      7  C   UNL     1      47.547   6.977  12.817  0.00  0.00    +0.000 A 
BRANCH   5   8
ATOM      8  C   UNL     1      44.605   5.282  11.084  0.00  0.00    +0.000 C 
BRANCH   8   9
ATOM      9  N   UNL     1      44.623   3.899  10.563  0.00  0.00    +0.000 NA
ATOM     10  C   UNL     1      43.585   3.070  11.187  0.00  0.00    +0.000 C 
BRANCH   9  11
ATOM     11  C   UNL     1      44.450   3.909   9.093  0.00  0.00    +0.000 C 
BRANCH  11  12
ATOM     12  C   UNL     1      45.478   3.087   8.329  0.00  0.00    +0.000 A 
ATOM     13  C   UNL     1      46.315   3.687   7.388  0.00  0.00    +0.000 A 
ATOM     14  C   UNL     1      47.302   2.918   6.779  0.00  0.00    +0.000 A 
ATOM     15  C   UNL     1      47.406   1.568   7.092  0.00  0.00    +0.000 A 
ATOM     16  C   UNL     1      46.501   1.036   7.995  0.00  0.00    +0.000 A 
ATOM     17  N   UNL     1      45.549   1.761   8.622  0.00  0.00    +0.000 NA
ENDBRANCH  11  12
ENDBRANCH   9  11
ENDBRANCH   8   9
ENDBRANCH   5   8
ENDBRANCH   1   2
BRANCH   1  18
ATOM     18  N   UNL     1      49.002   5.427  15.894  0.00  0.00    +0.000 NA
ATOM     19  H   UNL     1      49.748   4.867  15.484  0.00  0.00    +0.000 HD
BRANCH  18  20
ATOM     20  C   UNL     1      49.416   5.877  17.233  0.00  0.00    +0.000 C 
BRANCH  20  21
ATOM     21  C   UNL     1      50.700   5.145  17.573  0.00  0.00    +0.000 A 
ATOM     22  C   UNL     1      51.844   5.800  18.019  0.00  0.00    +0.000 A 
ATOM     23  S   UNL     1      53.139   4.755  18.371  0.00  0.00    +0.000 S 
ATOM     24  C   UNL     1      52.222   3.384  17.957  0.00  0.00    +0.000 A 
ATOM     25  N   UNL     1      52.761   2.141  18.070  0.00  0.00    +0.000 NA
ATOM     26  C   UNL     1      51.947   1.181  17.787  0.00  0.00    +0.000 A 
ATOM     27  N   UNL     1      50.650   1.353  17.376  0.00  0.00    +0.000 N 
ATOM     28  C   UNL     1      50.105   2.596  17.117  0.00  0.00    +0.000 A 
ATOM     29  O   UNL     1      49.018   2.706  16.560  0.00  0.00    +0.000 OA
ATOM     30  C   UNL     1      50.948   3.714  17.523  0.00  0.00    +0.000 A 
ATOM     31  H   UNL     1      50.088   0.556  17.119  0.00  0.00    +0.000 HD
ENDBRANCH  20  21
BRANCH  20  33
ATOM     32  C   UNL     1      47.428   5.296  18.931  0.00  0.00    +0.000 C 
ATOM     33  C   UNL     1      48.357   5.552  18.225  0.00  0.00    +0.000 C 
ENDBRANCH  20  33
ENDBRANCH  18  20
ENDBRANCH   1  18
TORSDOF 9
ENDMDL
MODEL 2
REMARK VINA RESULT:    -7.710      2.323      3.080
REMARK INTER + INTRA:         -12.731
REMARK INTER:                 -11.294
REMARK INTRA:                  -1.436
REMARK UNBOUND:                -0.964
REMARK  Name = 
REMARK  10 active torsions:
REMARK  status: ('A' for Active; 'I' for Inactive)
REMARK    1  A    between atoms: C_2  and  C_3
REMARK    2  A    between atoms: C_3  and  N_4
REMARK    3  A    between atoms: C_3  and  C_22
REMARK    4  A    between atoms: N_4  and  C_5
REMARK    5  A    between atoms: C_5  and  C_6
REMARK    6  A    between atoms: C_9  and  C_10
REMARK    7  A    between atoms: C_10  and  N_11
REMARK    8  A    between atoms: N_11  and  C_12
REMARK    9  A    between atoms: N_11  and  C_13
REMARK   10  A    between atoms: C_13  and  C_14
REMARK                            x       y       z     vdW  Elec       q    Type
REMARK                         _______ _______ _______ _____ _____    ______ ____
ROOT
ATOM      1  C   UNL     1      47.381   8.642  13.238  0.00  0.00    +0.000 C 
ENDROOT
BRANCH   1   2
ATOM      2  C   UNL     1      46.514   7.697  12.450  0.00  0.00    +0.000 A 
ATOM      3  C   UNL     1      47.096   6.715  11.638  0.00  0.00    +0.000 A 
ATOM      4  C   UNL     1      46.295   5.825  10.926  0.00  0.00    +0.000 A 
ATOM      5  C   UNL     1      44.900   5.861  11.061  0.00  0.00    +0.000 A 
ATOM      6  C   UNL     1      44.319   6.851  11.865  0.00  0.00    +0.000 A 
ATOM      7  C   UNL     1      45.120   7.765  12.548  0.00  0.00    +0.000 A 
BRANCH   5   8
ATOM      8  C   UNL     1      44.027   4.826  10.380  0.00  0.00    +0.000 C 
BRANCH   8   9
ATOM      9  N   UNL     1      44.534   3.447  10.532  0.00  0.00    +0.000 NA
ATOM     10  C   UNL     1      43.951   2.779  11.702  0.00  0.00    +0.000 C 
BRANCH   9  11
ATOM     11  C   UNL     1      44.249   2.665   9.307  0.00  0.00    +0.000 C 
BRANCH  11  12
ATOM     12  C   UNL     1      45.459   2.419   8.417  0.00  0.00    +0.000 A 
ATOM     13  C   UNL     1      46.025   3.458   7.678  0.00  0.00    +0.000 A 
ATOM     14  C   UNL     1      47.185   3.210   6.949  0.00  0.00    +0.000 A 
ATOM     15  C   UNL     1      47.728   1.931   6.944  0.00  0.00    +0.000 A 
ATOM     16  C   UNL     1      47.075   0.942   7.660  0.00  0.00    +0.000 A 
ATOM     17  N   UNL     1      45.963   1.156   8.397  0.00  0.00    +0.000 NA
ENDBRANCH  11  12
ENDBRANCH   9  11
ENDBRANCH   8   9
ENDBRANCH   5   8
ENDBRANCH   1   2
BRANCH   1  18
ATOM     18  N   UNL     1      47.681   8.106  14.564  0.00  0.00    +0.000 NA
ATOM     19  H   UNL     1      46.962   7.424  14.804  0.00  0.00    +0.000 HD
BRANCH  18  20
ATOM     20  C   UNL     1      49.000   7.454  14.604  0.00  0.00    +0.000 C 
BRANCH  20  21
ATOM     21  C   UNL     1      49.081   6.693  15.913  0.00  0.00    +0.000 A 
ATOM     22  C   UNL     1      49.839   7.134  16.994  0.00  0.00    +0.000 A 
ATOM     23  S   UNL     1      49.735   6.127  18.361  0.00  0.00    +0.000 S 
ATOM     24  C   UNL     1      48.664   5.068  17.572  0.00  0.00    +0.000 A 
ATOM     25  N   UNL     1      48.165   3.986  18.227  0.00  0.00    +0.000 NA
ATOM     26  C   UNL     1      47.315   3.296  17.545  0.00  0.00    +0.000 A 
ATOM     27  N   UNL     1      46.939   3.577  16.256  0.00  0.00    +0.000 N 
ATOM     28  C   UNL     1      47.520   4.581  15.508  0.00  0.00    +0.000 A 
ATOM     29  O   UNL     1      47.308   4.675  14.303  0.00  0.00    +0.000 OA
ATOM     30  C   UNL     1      48.406   5.455  16.267  0.00  0.00    +0.000 A 
ATOM     31  H   UNL     1      46.308   2.960  15.766  0.00  0.00    +0.000 HD
ENDBRANCH  20  21
BRANCH  20  33
ATOM     32  C   UNL     1      50.857   9.375  14.420  0.00  0.00    +0.000 C 
ATOM     33  C   UNL     1      50.074   8.480  14.534  0.00  0.00    +0.000 C 
ENDBRANCH  20  33
ENDBRANCH  18  20
ENDBRANCH   1  18
TORSDOF 9
ENDMDL
MODEL 3
REMARK VINA RESULT:    -7.401      1.765      2.259
REMARK INTER + INTRA:         -12.260
REMARK INTER:                 -11.208
REMARK INTRA:                  -1.052
REMARK UNBOUND:                -0.964
REMARK  Name = 
REMARK  10 active torsions:
REMARK  status: ('A' for Active; 'I' for Inactive)
REMARK    1  A    between atoms: C_2  and  C_3
REMARK    2  A    between atoms: C_3  and  N_4
REMARK    3  A    between atoms: C_3  and  C_22
REMARK    4  A    between atoms: N_4  and  C_5
REMARK    5  A    between atoms: C_5  and  C_6
REMARK    6  A    between atoms: C_9  and  C_10
REMARK    7  A    between atoms: C_10  and  N_11
REMARK    8  A    between atoms: N_11  and  C_12
REMARK    9  A    between atoms: N_11  and  C_13
REMARK   10  A    between atoms: C_13  and  C_14
REMARK                            x       y       z     vdW  Elec       q    Type
REMARK                         _______ _______ _______ _____ _____    ______ ____
ROOT
ATOM      1  C   UNL     1      48.825   6.910  14.988  0.00  0.00    +0.000 C 
ENDROOT
BRANCH   1   2
ATOM      2  C   UNL     1      47.823   6.592  13.910  0.00  0.00    +0.000 A 
ATOM      3  C   UNL     1      47.325   5.289  13.769  0.00  0.00    +0.000 A 
ATOM      4  C   UNL     1      46.381   4.999  12.788  0.00  0.00    +0.000 A 
ATOM      5  C   UNL     1      45.870   6.017  11.970  0.00  0.00    +0.000 A 
ATOM      6  C   UNL     1      46.376   7.317  12.106  0.00  0.00    +0.000 A 
ATOM      7  C   UNL     1      47.349   7.599  13.063  0.00  0.00    +0.000 A 
BRANCH   5   8
ATOM      8  C   UNL     1      44.761   5.732  10.977  0.00  0.00    +0.000 C 
BRANCH   8   9
ATOM      9  N   UNL     1      44.342   4.315  10.964  0.00  0.00    +0.000 NA
ATOM     10  C   UNL     1      43.222   4.071  11.880  0.00  0.00    +0.000 C 
BRANCH   9  11
ATOM     11  C   UNL     1      43.972   3.909   9.589  0.00  0.00    +0.000 C 
BRANCH  11  12
ATOM     12  C   UNL     1      45.113   3.316   8.775  0.00  0.00    +0.000 A 
ATOM     13  C   UNL     1      45.421   1.959   8.860  0.00  0.00    +0.000 A 
ATOM     14  C   UNL     1      46.411   1.440   8.031  0.00  0.00    +0.000 A 
ATOM     15  C   UNL     1      47.093   2.290   7.169  0.00  0.00    +0.000 A 
ATOM     16  C   UNL     1      46.766   3.635   7.184  0.00  0.00    +0.000 A 
ATOM     17  N   UNL     1      45.793   4.164   7.958  0.00  0.00    +0.000 NA
ENDBRANCH  11  12
ENDBRANCH   9  11
ENDBRANCH   8   9
ENDBRANCH   5   8
ENDBRANCH   1   2
BRANCH   1  18
ATOM     18  N   UNL     1      48.167   7.409  16.193  0.00  0.00    +0.000 NA
ATOM     19  H   UNL     1      47.198   7.090  16.185  0.00  0.00    +0.000 HD
BRANCH  18  20
ATOM     20  C   UNL     1      48.826   6.924  17.416  0.00  0.00    +0.000 C 
BRANCH  20  21
ATOM     21  C   UNL     1      48.679   5.415  17.434  0.00  0.00    +0.000 A 
ATOM     22  C   UNL     1      47.444   4.778  17.383  0.00  0.00    +0.000 A 
ATOM     23  S   UNL     1      47.546   3.081  17.376  0.00  0.00    +0.000 S 
ATOM     24  C   UNL     1      49.245   3.124  17.426  0.00  0.00    +0.000 A 
ATOM     25  N   UNL     1      49.960   1.968  17.411  0.00  0.00    +0.000 NA
ATOM     26  C   UNL     1      51.239   2.134  17.388  0.00  0.00    +0.000 A 
ATOM     27  N   UNL     1      51.868   3.352  17.404  0.00  0.00    +0.000 N 
ATOM     28  C   UNL     1      51.187   4.545  17.556  0.00  0.00    +0.000 A 
ATOM     29  O   UNL     1      51.788   5.593  17.770  0.00  0.00    +0.000 OA
ATOM     30  C   UNL     1      49.737   4.418  17.479  0.00  0.00    +0.000 A 
ATOM     31  H   UNL     1      52.875   3.404  17.439  0.00  0.00    +0.000 HD
ENDBRANCH  20  21
BRANCH  20  33
ATOM     32  C   UNL     1      47.740   8.083  19.573  0.00  0.00    +0.000 C 
ATOM     33  C   UNL     1      48.175   7.521  18.612  0.00  0.00    +0.000 C 
ENDBRANCH  20  33
ENDBRANCH  18  20
ENDBRANCH   1  18
TORSDOF 9
ENDMDL
MODEL 4
REMARK VINA RESULT:    -7.219      2.536      3.362
REMARK INTER + INTRA:         -11.981
REMARK INTER:                 -11.059
REMARK INTRA:                  -0.922
REMARK UNBOUND:                -0.964
REMARK  Name = 
REMARK  10 active torsions:
REMARK  status: ('A' for Active; 'I' for Inactive)
REMARK    1  A    between atoms: C_2  and  C_3
REMARK    2  A    between atoms: C_3  and  N_4
REMARK    3  A    between atoms: C_3  and  C_22
REMARK    4  A    between atoms: N_4  and  C_5
REMARK    5  A    between atoms: C_5  and  C_6
REMARK    6  A    between atoms: C_9  and  C_10
REMARK    7  A    between atoms: C_10  and  N_11
REMARK    8  A    between atoms: N_11  and  C_12
REMARK    9  A    between atoms: N_11  and  C_13
REMARK   10  A    between atoms: C_13  and  C_14
REMARK                            x       y       z     vdW  Elec       q    Type
REMARK                         _______ _______ _______ _____ _____    ______ ____
ROOT
ATOM      1  C   UNL     1      48.879   6.912  14.559  0.00  0.00    +0.000 C 
ENDROOT
BRANCH   1   2
ATOM      2  C   UNL     1      47.825   6.472  13.578  0.00  0.00    +0.000 A 
ATOM      3  C   UNL     1      47.157   5.254  13.758  0.00  0.00    +0.000 A 
ATOM      4  C   UNL     1      46.165   4.857  12.864  0.00  0.00    +0.000 A 
ATOM      5  C   UNL     1      45.779   5.698  11.811  0.00  0.00    +0.000 A 
ATOM      6  C   UNL     1      46.456   6.912  11.627  0.00  0.00    +0.000 A 
ATOM      7  C   UNL     1      47.475   7.291  12.499  0.00  0.00    +0.000 A 
BRANCH   5   8
ATOM      8  C   UNL     1      44.625   5.326  10.902  0.00  0.00    +0.000 C 
BRANCH   8   9
ATOM      9  N   UNL     1      44.637   3.903  10.501  0.00  0.00    +0.000 NA
ATOM     10  C   UNL     1      43.634   3.123  11.236  0.00  0.00    +0.000 C 
BRANCH   9  11
ATOM     11  C   UNL     1      44.403   3.787   9.044  0.00  0.00    +0.000 C 
BRANCH  11  12
ATOM     12  C   UNL     1      45.472   3.007   8.291  0.00  0.00    +0.000 A 
ATOM     13  C   UNL     1      46.343   3.652   7.415  0.00  0.00    +0.000 A 
ATOM     14  C   UNL     1      47.363   2.918   6.817  0.00  0.00    +0.000 A 
ATOM     15  C   UNL     1      47.466   1.557   7.078  0.00  0.00    +0.000 A 
ATOM     16  C   UNL     1      46.528   0.980   7.917  0.00  0.00    +0.000 A 
ATOM     17  N   UNL     1      45.543   1.670   8.531  0.00  0.00    +0.000 NA
ENDBRANCH  11  12
ENDBRANCH   9  11
ENDBRANCH   8   9
ENDBRANCH   5   8
ENDBRANCH   1   2
BRANCH   1  18
ATOM     18  N   UNL     1      48.294   7.235  15.858  0.00  0.00    +0.000 NA
ATOM     19  H   UNL     1      47.284   7.110  15.795  0.00  0.00    +0.000 HD
BRANCH  18  20
ATOM     20  C   UNL     1      48.822   6.371  16.926  0.00  0.00    +0.000 C 
BRANCH  20  21
ATOM     21  C   UNL     1      48.386   6.976  18.246  0.00  0.00    +0.000 A 
ATOM     22  C   UNL     1      48.034   8.315  18.381  0.00  0.00    +0.000 A 
ATOM     23  S   UNL     1      47.543   8.742  19.952  0.00  0.00    +0.000 S 
ATOM     24  C   UNL     1      47.766   7.153  20.516  0.00  0.00    +0.000 A 
ATOM     25  N   UNL     1      47.484   6.840  21.808  0.00  0.00    +0.000 NA
ATOM     26  C   UNL     1      47.633   5.591  22.098  0.00  0.00    +0.000 A 
ATOM     27  N   UNL     1      48.062   4.632  21.217  0.00  0.00    +0.000 N 
ATOM     28  C   UNL     1      48.489   4.928  19.936  0.00  0.00    +0.000 A 
ATOM     29  O   UNL     1      49.054   4.085  19.248  0.00  0.00    +0.000 OA
ATOM     30  C   UNL     1      48.240   6.305  19.528  0.00  0.00    +0.000 A 
ATOM     31  H   UNL     1      48.207   3.684  21.529  0.00  0.00    +0.000 HD
ENDBRANCH  20  21
BRANCH  20  33
ATOM     32  C   UNL     1      51.492   6.179  16.854  0.00  0.00    +0.000 C 
ATOM     33  C   UNL     1      50.306   6.319  16.846  0.00  0.00    +0.000 C 
ENDBRANCH  20  33
ENDBRANCH  18  20
ENDBRANCH   1  18
TORSDOF 9
ENDMDL
MODEL 5
REMARK VINA RESULT:    -7.183      2.734      3.845
REMARK INTER + INTRA:         -11.927
REMARK INTER:                 -10.538
REMARK INTRA:                  -1.389
REMARK UNBOUND:                -0.964
REMARK  Name = 
REMARK  10 active torsions:
REMARK  status: ('A' for Active; 'I' for Inactive)
REMARK    1  A    between atoms: C_2  and  C_3
REMARK    2  A    between atoms: C_3  and  N_4
REMARK    3  A    between atoms: C_3  and  C_22
REMARK    4  A    between atoms: N_4  and  C_5
REMARK    5  A    between atoms: C_5  and  C_6
REMARK    6  A    between atoms: C_9  and  C_10
REMARK    7  A    between atoms: C_10  and  N_11
REMARK    8  A    between atoms: N_11  and  C_12
REMARK    9  A    between atoms: N_11  and  C_13
REMARK   10  A    between atoms: C_13  and  C_14
REMARK                            x       y       z     vdW  Elec       q    Type
REMARK                         _______ _______ _______ _____ _____    ______ ____
ROOT
ATOM      1  C   UNL     1      48.737   7.864  13.381  0.00  0.00    +0.000 C 
ENDROOT
BRANCH   1   2
ATOM      2  C   UNL     1      47.446   7.197  12.989  0.00  0.00    +0.000 A 
ATOM      3  C   UNL     1      46.475   7.904  12.267  0.00  0.00    +0.000 A 
ATOM      4  C   UNL     1      45.290   7.280  11.885  0.00  0.00    +0.000 A 
ATOM      5  C   UNL     1      45.080   5.922  12.162  0.00  0.00    +0.000 A 
ATOM      6  C   UNL     1      46.048   5.219  12.893  0.00  0.00    +0.000 A 
ATOM      7  C   UNL     1      47.217   5.854  13.308  0.00  0.00    +0.000 A 
BRANCH   5   8
ATOM      8  C   UNL     1      43.845   5.207  11.651  0.00  0.00    +0.000 C 
BRANCH   8   9
ATOM      9  N   UNL     1      44.141   3.884  11.061  0.00  0.00    +0.000 NA
ATOM     10  C   UNL     1      43.310   2.829  11.653  0.00  0.00    +0.000 C 
BRANCH   9  11
ATOM     11  C   UNL     1      43.939   3.927   9.595  0.00  0.00    +0.000 C 
BRANCH  11  12
ATOM     12  C   UNL     1      45.102   3.378   8.780  0.00  0.00    +0.000 A 
ATOM     13  C   UNL     1      45.422   2.021   8.818  0.00  0.00    +0.000 A 
ATOM     14  C   UNL     1      46.433   1.545   7.988  0.00  0.00    +0.000 A 
ATOM     15  C   UNL     1      47.122   2.435   7.173  0.00  0.00    +0.000 A 
ATOM     16  C   UNL     1      46.780   3.775   7.235  0.00  0.00    +0.000 A 
ATOM     17  N   UNL     1      45.788   4.264   8.010  0.00  0.00    +0.000 NA
ENDBRANCH  11  12
ENDBRANCH   9  11
ENDBRANCH   8   9
ENDBRANCH   5   8
ENDBRANCH   1   2
BRANCH   1  18
ATOM     18  N   UNL     1      49.658   6.915  14.002  0.00  0.00    +0.000 NA
ATOM     19  H   UNL     1      50.169   6.433  13.263  0.00  0.00    +0.000 HD
BRANCH  18  20
ATOM     20  C   UNL     1      50.615   7.586  14.896  0.00  0.00    +0.000 C 
BRANCH  20  21
ATOM     21  C   UNL     1      49.833   8.072  16.101  0.00  0.00    +0.000 A 
ATOM     22  C   UNL     1      49.805   9.407  16.492  0.00  0.00    +0.000 A 
ATOM     23  S   UNL     1      48.827   9.704  17.851  0.00  0.00    +0.000 S 
ATOM     24  C   UNL     1      48.388   8.066  17.966  0.00  0.00    +0.000 A 
ATOM     25  N   UNL     1      47.524   7.655  18.932  0.00  0.00    +0.000 NA
ATOM     26  C   UNL     1      47.220   6.402  18.877  0.00  0.00    +0.000 A 
ATOM     27  N   UNL     1      47.723   5.518  17.957  0.00  0.00    +0.000 N 
ATOM     28  C   UNL     1      48.705   5.860  17.047  0.00  0.00    +0.000 A 
ATOM     29  O   UNL     1      49.275   5.003  16.381  0.00  0.00    +0.000 OA
ATOM     30  C   UNL     1      49.002   7.287  16.999  0.00  0.00    +0.000 A 
ATOM     31  H   UNL     1      47.482   4.539  18.008  0.00  0.00    +0.000 HD
ENDBRANCH  20  21
BRANCH  20  33
ATOM     32  C   UNL     1      51.856   9.620  13.673  0.00  0.00    +0.000 C 
ATOM     33  C   UNL     1      51.245   8.734  14.191  0.00  0.00    +0.000 C 
ENDBRANCH  20  33
ENDBRANCH  18  20
ENDBRANCH   1  18
TORSDOF 9
ENDMDL
MODEL 6
REMARK VINA RESULT:    -6.924      2.987      3.864
REMARK INTER + INTRA:         -11.532
REMARK INTER:                 -10.253
REMARK INTRA:                  -1.278
REMARK UNBOUND:                -0.964
REMARK  Name = 
REMARK  10 active torsions:
REMARK  status: ('A' for Active; 'I' for Inactive)
REMARK    1  A    between atoms: C_2  and  C_3
REMARK    2  A    between atoms: C_3  and  N_4
REMARK    3  A    between atoms: C_3  and  C_22
REMARK    4  A    between atoms: N_4  and  C_5
REMARK    5  A    between atoms: C_5  and  C_6
REMARK    6  A    between atoms: C_9  and  C_10
REMARK    7  A    between atoms: C_10  and  N_11
REMARK    8  A    between atoms: N_11  and  C_12
REMARK    9  A    between atoms: N_11  and  C_13
REMARK   10  A    between atoms: C_13  and  C_14
REMARK                            x       y       z     vdW  Elec       q    Type
REMARK                         _______ _______ _______ _____ _____    ______ ____
ROOT
ATOM      1  C   UNL     1      49.109   8.301  13.734  0.00  0.00    +0.000 C 
ENDROOT
BRANCH   1   2
ATOM      2  C   UNL     1      47.817   7.693  13.256  0.00  0.00    +0.000 A 
ATOM      3  C   UNL     1      46.639   8.451  13.248  0.00  0.00    +0.000 A 
ATOM      4  C   UNL     1      45.448   7.896  12.785  0.00  0.00    +0.000 A 
ATOM      5  C   UNL     1      45.426   6.595  12.264  0.00  0.00    +0.000 A 
ATOM      6  C   UNL     1      46.603   5.834  12.282  0.00  0.00    +0.000 A 
ATOM      7  C   UNL     1      47.786   6.377  12.781  0.00  0.00    +0.000 A 
BRANCH   5   8
ATOM      8  C   UNL     1      44.162   6.024  11.654  0.00  0.00    +0.000 C 
BRANCH   8   9
ATOM      9  N   UNL     1      44.286   4.599  11.284  0.00  0.00    +0.000 NA
ATOM     10  C   UNL     1      43.458   3.742  12.142  0.00  0.00    +0.000 C 
BRANCH   9  11
ATOM     11  C   UNL     1      43.912   4.410   9.865  0.00  0.00    +0.000 C 
BRANCH  11  12
ATOM     12  C   UNL     1      44.953   3.678   9.028  0.00  0.00    +0.000 A 
ATOM     13  C   UNL     1      45.142   2.304   9.166  0.00  0.00    +0.000 A 
ATOM     14  C   UNL     1      46.039   1.660   8.318  0.00  0.00    +0.000 A 
ATOM     15  C   UNL     1      46.749   2.404   7.383  0.00  0.00    +0.000 A 
ATOM     16  C   UNL     1      46.544   3.773   7.348  0.00  0.00    +0.000 A 
ATOM     17  N   UNL     1      45.663   4.423   8.139  0.00  0.00    +0.000 NA
ENDBRANCH  11  12
ENDBRANCH   9  11
ENDBRANCH   8   9
ENDBRANCH   5   8
ENDBRANCH   1   2
BRANCH   1  18
ATOM     18  N   UNL     1      49.277   8.125  15.175  0.00  0.00    +0.000 NA
ATOM     19  H   UNL     1      48.367   8.238  15.620  0.00  0.00    +0.000 HD
BRANCH  18  20
ATOM     20  C   UNL     1      49.817   6.797  15.504  0.00  0.00    +0.000 C 
BRANCH  20  21
ATOM     21  C   UNL     1      48.894   6.185  16.541  0.00  0.00    +0.000 A 
ATOM     22  C   UNL     1      48.266   4.958  16.359  0.00  0.00    +0.000 A 
ATOM     23  S   UNL     1      47.314   4.471  17.681  0.00  0.00    +0.000 S 
ATOM     24  C   UNL     1      47.713   5.871  18.559  0.00  0.00    +0.000 A 
ATOM     25  N   UNL     1      47.228   6.052  19.816  0.00  0.00    +0.000 NA
ATOM     26  C   UNL     1      47.652   7.121  20.401  0.00  0.00    +0.000 A 
ATOM     27  N   UNL     1      48.497   8.039  19.831  0.00  0.00    +0.000 N 
ATOM     28  C   UNL     1      48.904   7.966  18.513  0.00  0.00    +0.000 A 
ATOM     29  O   UNL     1      49.489   8.903  17.979  0.00  0.00    +0.000 OA
ATOM     30  C   UNL     1      48.539   6.723  17.844  0.00  0.00    +0.000 A 
ATOM     31  H   UNL     1      48.744   8.881  20.330  0.00  0.00    +0.000 HD
ENDBRANCH  20  21
BRANCH  20  33
ATOM     32  C   UNL     1      52.309   7.139  16.424  0.00  0.00    +0.000 C 
ATOM     33  C   UNL     1      51.193   6.931  16.051  0.00  0.00    +0.000 C 
ENDBRANCH  20  33
ENDBRANCH  18  20
ENDBRANCH   1  18
TORSDOF 9
ENDMDL
MODEL 7
REMARK VINA RESULT:    -6.865      2.015      2.862
REMARK INTER + INTRA:         -11.441
REMARK INTER:                 -10.482
REMARK INTRA:                  -0.959
REMARK UNBOUND:                -0.964
REMARK  Name = 
REMARK  10 active torsions:
REMARK  status: ('A' for Active; 'I' for Inactive)
REMARK    1  A    between atoms: C_2  and  C_3
REMARK    2  A    between atoms: C_3  and  N_4
REMARK    3  A    between atoms: C_3  and  C_22
REMARK    4  A    between atoms: N_4  and  C_5
REMARK    5  A    between atoms: C_5  and  C_6
REMARK    6  A    between atoms: C_9  and  C_10
REMARK    7  A    between atoms: C_10  and  N_11
REMARK    8  A    between atoms: N_11  and  C_12
REMARK    9  A    between atoms: N_11  and  C_13
REMARK   10  A    between atoms: C_13  and  C_14
REMARK                            x       y       z     vdW  Elec       q    Type
REMARK                         _______ _______ _______ _____ _____    ______ ____
ROOT
ATOM      1  C   UNL     1      48.928   7.876  13.221  0.00  0.00    +0.000 C 
ENDROOT
BRANCH   1   2
ATOM      2  C   UNL     1      47.625   7.147  13.027  0.00  0.00    +0.000 A 
ATOM      3  C   UNL     1      46.491   7.835  12.576  0.00  0.00    +0.000 A 
ATOM      4  C   UNL     1      45.291   7.158  12.375  0.00  0.00    +0.000 A 
ATOM      5  C   UNL     1      45.219   5.770  12.560  0.00  0.00    +0.000 A 
ATOM      6  C   UNL     1      46.351   5.085  13.021  0.00  0.00    +0.000 A 
ATOM      7  C   UNL     1      47.541   5.770  13.259  0.00  0.00    +0.000 A 
BRANCH   5   8
ATOM      8  C   UNL     1      43.950   5.008  12.234  0.00  0.00    +0.000 C 
BRANCH   8   9
ATOM      9  N   UNL     1      44.183   3.830  11.373  0.00  0.00    +0.000 NA
ATOM     10  C   UNL     1      43.257   2.736  11.688  0.00  0.00    +0.000 C 
BRANCH   9  11
ATOM     11  C   UNL     1      44.052   4.211   9.948  0.00  0.00    +0.000 C 
BRANCH  11  12
ATOM     12  C   UNL     1      45.087   3.582   9.027  0.00  0.00    +0.000 A 
ATOM     13  C   UNL     1      45.332   2.209   9.060  0.00  0.00    +0.000 A 
ATOM     14  C   UNL     1      46.221   1.663   8.138  0.00  0.00    +0.000 A 
ATOM     15  C   UNL     1      46.868   2.498   7.236  0.00  0.00    +0.000 A 
ATOM     16  C   UNL     1      46.611   3.856   7.305  0.00  0.00    +0.000 A 
ATOM     17  N   UNL     1      45.737   4.414   8.170  0.00  0.00    +0.000 NA
ENDBRANCH  11  12
ENDBRANCH   9  11
ENDBRANCH   8   9
ENDBRANCH   5   8
ENDBRANCH   1   2
BRANCH   1  18
ATOM     18  N   UNL     1      49.906   7.039  13.914  0.00  0.00    +0.000 NA
ATOM     19  H   UNL     1      50.728   6.945  13.318  0.00  0.00    +0.000 HD
BRANCH  18  20
ATOM     20  C   UNL     1      50.307   7.621  15.204  0.00  0.00    +0.000 C 
BRANCH  20  21
ATOM     21  C   UNL     1      50.091   6.554  16.261  0.00  0.00    +0.000 A 
ATOM     22  C   UNL     1      48.826   6.157  16.682  0.00  0.00    +0.000 A 
ATOM     23  S   UNL     1      48.847   4.918  17.846  0.00  0.00    +0.000 S 
ATOM     24  C   UNL     1      50.546   4.849  17.827  0.00  0.00    +0.000 A 
ATOM     25  N   UNL     1      51.203   3.948  18.603  0.00  0.00    +0.000 NA
ATOM     26  C   UNL     1      52.484   3.950  18.454  0.00  0.00    +0.000 A 
ATOM     27  N   UNL     1      53.170   4.791  17.615  0.00  0.00    +0.000 N 
ATOM     28  C   UNL     1      52.557   5.811  16.912  0.00  0.00    +0.000 A 
ATOM     29  O   UNL     1      53.220   6.667  16.334  0.00  0.00    +0.000 OA
ATOM     30  C   UNL     1      51.101   5.781  16.965  0.00  0.00    +0.000 A 
ATOM     31  H   UNL     1      54.178   4.773  17.589  0.00  0.00    +0.000 HD
ENDBRANCH  20  21
BRANCH  20  33
ATOM     32  C   UNL     1      48.810   9.745  15.854  0.00  0.00    +0.000 C 
ATOM     33  C   UNL     1      49.475   8.817  15.500  0.00  0.00    +0.000 C 
ENDBRANCH  20  33
ENDBRANCH  18  20
ENDBRANCH   1  18
TORSDOF 9
ENDMDL
MODEL 8
REMARK VINA RESULT:    -6.827      2.424      3.149
REMARK INTER + INTRA:         -11.384
REMARK INTER:                 -10.119
REMARK INTRA:                  -1.265
REMARK UNBOUND:                -0.964
REMARK  Name = 
REMARK  10 active torsions:
REMARK  status: ('A' for Active; 'I' for Inactive)
REMARK    1  A    between atoms: C_2  and  C_3
REMARK    2  A    between atoms: C_3  and  N_4
REMARK    3  A    between atoms: C_3  and  C_22
REMARK    4  A    between atoms: N_4  and  C_5
REMARK    5  A    between atoms: C_5  and  C_6
REMARK    6  A    between atoms: C_9  and  C_10
REMARK    7  A    between atoms: C_10  and  N_11
REMARK    8  A    between atoms: N_11  and  C_12
REMARK    9  A    between atoms: N_11  and  C_13
REMARK   10  A    between atoms: C_13  and  C_14
REMARK                            x       y       z     vdW  Elec       q    Type
REMARK                         _______ _______ _______ _____ _____    ______ ____
ROOT
ATOM      1  C   UNL     1      48.966   7.598  14.427  0.00  0.00    +0.000 C 
ENDROOT
BRANCH   1   2
ATOM      2  C   UNL     1      47.755   7.176  13.639  0.00  0.00    +0.000 A 
ATOM      3  C   UNL     1      46.730   8.093  13.370  0.00  0.00    +0.000 A 
ATOM      4  C   UNL     1      45.620   7.709  12.622  0.00  0.00    +0.000 A 
ATOM      5  C   UNL     1      45.544   6.421  12.074  0.00  0.00    +0.000 A 
ATOM      6  C   UNL     1      46.564   5.501  12.352  0.00  0.00    +0.000 A 
ATOM      7  C   UNL     1      47.656   5.875  13.134  0.00  0.00    +0.000 A 
BRANCH   5   8
ATOM      8  C   UNL     1      44.396   6.031  11.165  0.00  0.00    +0.000 C 
BRANCH   8   9
ATOM      9  N   UNL     1      44.245   4.568  11.014  0.00  0.00    +0.000 NA
ATOM     10  C   UNL     1      43.222   4.031  11.920  0.00  0.00    +0.000 C 
BRANCH   9  11
ATOM     11  C   UNL     1      43.905   4.237   9.611  0.00  0.00    +0.000 C 
BRANCH  11  12
ATOM     12  C   UNL     1      45.027   3.570   8.829  0.00  0.00    +0.000 A 
ATOM     13  C   UNL     1      45.263   2.200   8.946  0.00  0.00    +0.000 A 
ATOM     14  C   UNL     1      46.239   1.615   8.144  0.00  0.00    +0.000 A 
ATOM     15  C   UNL     1      46.978   2.411   7.278  0.00  0.00    +0.000 A 
ATOM     16  C   UNL     1      46.721   3.771   7.262  0.00  0.00    +0.000 A 
ATOM     17  N   UNL     1      45.764   4.365   8.008  0.00  0.00    +0.000 NA
ENDBRANCH  11  12
ENDBRANCH   9  11
ENDBRANCH   8   9
ENDBRANCH   5   8
ENDBRANCH   1   2
BRANCH   1  18
ATOM     18  N   UNL     1      49.509   6.485  15.202  0.00  0.00    +0.000 NA
ATOM     19  H   UNL     1      50.498   6.666  15.373  0.00  0.00    +0.000 HD
BRANCH  18  20
ATOM     20  C   UNL     1      48.816   6.325  16.490  0.00  0.00    +0.000 C 
BRANCH  20  21
ATOM     21  C   UNL     1      49.876   6.355  17.574  0.00  0.00    +0.000 A 
ATOM     22  C   UNL     1      51.216   6.076  17.325  0.00  0.00    +0.000 A 
ATOM     23  S   UNL     1      52.213   6.215  18.696  0.00  0.00    +0.000 S 
ATOM     24  C   UNL     1      50.900   6.669  19.676  0.00  0.00    +0.000 A 
ATOM     25  N   UNL     1      51.096   6.964  20.989  0.00  0.00    +0.000 NA
ATOM     26  C   UNL     1      50.036   7.355  21.611  0.00  0.00    +0.000 A 
ATOM     27  N   UNL     1      48.791   7.453  21.044  0.00  0.00    +0.000 N 
ATOM     28  C   UNL     1      48.519   7.035  19.755  0.00  0.00    +0.000 A 
ATOM     29  O   UNL     1      47.365   6.947  19.350  0.00  0.00    +0.000 OA
ATOM     30  C   UNL     1      49.703   6.686  18.979  0.00  0.00    +0.000 A 
ATOM     31  H   UNL     1      47.996   7.716  21.606  0.00  0.00    +0.000 HD
ENDBRANCH  20  21
BRANCH  20  33
ATOM     32  C   UNL     1      47.473   4.009  16.419  0.00  0.00    +0.000 C 
ATOM     33  C   UNL     1      48.088   5.029  16.515  0.00  0.00    +0.000 C 
ENDBRANCH  20  33
ENDBRANCH  18  20
ENDBRANCH   1  18
TORSDOF 9
ENDMDL
MODEL 9
REMARK VINA RESULT:    -6.599      3.620      8.402
REMARK INTER + INTRA:         -11.036
REMARK INTER:                  -8.775
REMARK INTRA:                  -2.261
REMARK UNBOUND:                -0.964
REMARK  Name = 
REMARK  10 active torsions:
REMARK  status: ('A' for Active; 'I' for Inactive)
REMARK    1  A    between atoms: C_2  and  C_3
REMARK    2  A    between atoms: C_3  and  N_4
REMARK    3  A    between atoms: C_3  and  C_22
REMARK    4  A    between atoms: N_4  and  C_5
REMARK    5  A    between atoms: C_5  and  C_6
REMARK    6  A    between atoms: C_9  and  C_10
REMARK    7  A    between atoms: C_10  and  N_11
REMARK    8  A    between atoms: N_11  and  C_12
REMARK    9  A    between atoms: N_11  and  C_13
REMARK   10  A    between atoms: C_13  and  C_14
REMARK                            x       y       z     vdW  Elec       q    Type
REMARK                         _______ _______ _______ _____ _____    ______ ____
ROOT
ATOM      1  C   UNL     1      48.192   9.110  14.689  0.00  0.00    +0.000 C 
ENDROOT
BRANCH   1   2
ATOM      2  C   UNL     1      49.236   8.456  15.554  0.00  0.00    +0.000 A 
ATOM      3  C   UNL     1      49.172   8.570  16.949  0.00  0.00    +0.000 A 
ATOM      4  C   UNL     1      50.125   7.946  17.751  0.00  0.00    +0.000 A 
ATOM      5  C   UNL     1      51.121   7.144  17.176  0.00  0.00    +0.000 A 
ATOM      6  C   UNL     1      51.190   7.039  15.781  0.00  0.00    +0.000 A 
ATOM      7  C   UNL     1      50.259   7.695  14.977  0.00  0.00    +0.000 A 
BRANCH   5   8
ATOM      8  C   UNL     1      52.092   6.371  18.046  0.00  0.00    +0.000 C 
BRANCH   8   9
ATOM      9  N   UNL     1      51.989   4.907  17.872  0.00  0.00    +0.000 NA
ATOM     10  C   UNL     1      53.283   4.244  18.078  0.00  0.00    +0.000 C 
BRANCH   9  11
ATOM     11  C   UNL     1      50.982   4.356  18.806  0.00  0.00    +0.000 C 
BRANCH  11  12
ATOM     12  C   UNL     1      49.636   4.038  18.170  0.00  0.00    +0.000 A 
ATOM     13  C   UNL     1      48.501   4.782  18.491  0.00  0.00    +0.000 A 
ATOM     14  C   UNL     1      47.311   4.517  17.819  0.00  0.00    +0.000 A 
ATOM     15  C   UNL     1      47.273   3.497  16.875  0.00  0.00    +0.000 A 
ATOM     16  C   UNL     1      48.429   2.769  16.655  0.00  0.00    +0.000 A 
ATOM     17  N   UNL     1      49.604   3.018  17.271  0.00  0.00    +0.000 NA
ENDBRANCH  11  12
ENDBRANCH   9  11
ENDBRANCH   8   9
ENDBRANCH   5   8
ENDBRANCH   1   2
BRANCH   1  18
ATOM     18  N   UNL     1      47.214   8.136  14.210  0.00  0.00    +0.000 NA
ATOM     19  H   UNL     1      46.340   8.282  14.715  0.00  0.00    +0.000 HD
BRANCH  18  20
ATOM     20  C   UNL     1      46.968   8.274  12.766  0.00  0.00    +0.000 C 
BRANCH  20  21
ATOM     21  C   UNL     1      45.896   7.265  12.398  0.00  0.00    +0.000 A 
ATOM     22  C   UNL     1      44.752   7.609  11.686  0.00  0.00    +0.000 A 
ATOM     23  S   UNL     1      43.723   6.293  11.363  0.00  0.00    +0.000 S 
ATOM     24  C   UNL     1      44.770   5.207  12.147  0.00  0.00    +0.000 A 
ATOM     25  N   UNL     1      44.470   3.882  12.197  0.00  0.00    +0.000 NA
ATOM     26  C   UNL     1      45.371   3.153  12.763  0.00  0.00    +0.000 A 
ATOM     27  N   UNL     1      46.535   3.634  13.306  0.00  0.00    +0.000 N 
ATOM     28  C   UNL     1      46.817   4.983  13.400  0.00  0.00    +0.000 A 
ATOM     29  O   UNL     1      47.763   5.386  14.069  0.00  0.00    +0.000 OA
ATOM     30  C   UNL     1      45.882   5.839  12.680  0.00  0.00    +0.000 A 
ATOM     31  H   UNL     1      47.170   3.010  13.782  0.00  0.00    +0.000 HD
ENDBRANCH  20  21
BRANCH  20  33
ATOM     32  C   UNL     1      49.266   7.882  11.447  0.00  0.00    +0.000 C 
ATOM     33  C   UNL     1      48.218   7.998  12.011  0.00  0.00    +0.000 C 
ENDBRANCH  20  33
ENDBRANCH  18  20
ENDBRANCH   1  18
TORSDOF 9
ENDMDL
