MODEL 1
REMARK VINA RESULT:    -8.306      0.000      0.000
REMARK INTER + INTRA:         -13.277
REMARK INTER:                 -12.434
REMARK INTRA:                  -0.843
REMARK UNBOUND:                -0.843
REMARK  Name = 
REMARK  9 active torsions:
REMARK  status: ('A' for Active; 'I' for Inactive)
REMARK    1  A    between atoms: C_2  and  C_22
REMARK    2  A    between atoms: N_3  and  C_4
REMARK    3  A    between atoms: C_4  and  C_5
REMARK    4  A    between atoms: C_8  and  C_9
REMARK    5  A    between atoms: C_9  and  N_10
REMARK    6  A    between atoms: N_10  and  CA_11
REMARK    7  A    between atoms: CA_11  and  C_12
REMARK    8  A    between atoms: CA_11  and  C_14
REMARK    9  A    between atoms: C_12  and  O_13
REMARK                            x       y       z     vdW  Elec       q    Type
REMARK                         _______ _______ _______ _____ _____    ______ ____
ROOT
ATOM      1  C   UNL     1      46.166   7.851  12.911  0.00  0.00    +0.000 A 
ATOM      2  C   UNL     1      45.464   8.509  11.907  0.00  0.00    +0.000 A 
ATOM      3  C   UNL     1      44.409   7.849  11.280  0.00  0.00    +0.000 A 
ATOM      4  C   UNL     1      44.065   6.551  11.671  0.00  0.00    +0.000 A 
ATOM      5  C   UNL     1      44.814   5.981  12.693  0.00  0.00    +0.000 A 
ATOM      6  N   UNL     1      45.849   6.593  13.315  0.00  0.00    +0.000 NA
ENDROOT
BRANCH   1   7
ATOM      7  C   UNL     1      47.288   8.552  13.638  0.00  0.00    +0.000 C 
BRANCH   7  10
ATOM      8  O   UNL     1      49.190   6.490  13.729  0.00  0.00    +0.000 OA
ATOM      9  C   UNL     1      48.678   6.864  14.781  0.00  0.00    +0.000 C 
ATOM     10  N   UNL     1      47.700   7.821  14.817  0.00  0.00    +0.000 N 
ATOM     11  H   UNL     1      47.471   8.267  15.699  0.00  0.00    +0.000 HD
BRANCH   9  12
ATOM     12  C   UNL     1      49.051   6.264  16.067  0.00  0.00    +0.000 A 
ATOM     13  C   UNL     1      50.013   6.874  16.862  0.00  0.00    +0.000 A 
ATOM     14  S   UNL     1      50.327   6.041  18.317  0.00  0.00    +0.000 S 
ATOM     15  C   UNL     1      49.158   4.860  17.957  0.00  0.00    +0.000 A 
ATOM     16  N   UNL     1      48.889   3.851  18.831  0.00  0.00    +0.000 NA
ATOM     17  C   UNL     1      47.952   3.051  18.448  0.00  0.00    +0.000 A 
ATOM     18  N   UNL     1      47.267   3.156  17.265  0.00  0.00    +0.000 N 
ATOM     19  C   UNL     1      47.551   4.118  16.324  0.00  0.00    +0.000 A 
ATOM     20  O   UNL     1      47.002   4.115  15.230  0.00  0.00    +0.000 OA
ATOM     21  C   UNL     1      48.561   5.076  16.726  0.00  0.00    +0.000 A 
ATOM     22  H   UNL     1      46.566   2.480  17.008  0.00  0.00    +0.000 HD
ENDBRANCH   9  12
ENDBRANCH   7  10
ENDBRANCH   1   7
BRANCH   4  23
ATOM     23  C   UNL     1      42.913   5.814  11.037  0.00  0.00    +0.000 C 
BRANCH  23  24
ATOM     24  N   UNL     1      43.390   4.916   9.988  0.00  0.00    +0.000 NA
ATOM     25  H   UNL     1      43.894   5.477   9.299  0.00  0.00    +0.000 HD
BRANCH  24  26
ATOM     26  CA  UNL     1      44.321   3.864  10.457  0.00  0.00    +0.000 C 
BRANCH  26  27
ATOM     27  C   UNL     1      45.176   3.368   9.288  0.00  0.00    +0.000 A 
ATOM     28  C   UNL     1      45.399   1.994   9.108  0.00  0.00    +0.000 A 
ATOM     29  C   UNL     1      46.158   1.531   8.028  0.00  0.00    +0.000 A 
ATOM     30  C   UNL     1      46.707   2.432   7.117  0.00  0.00    +0.000 A 
ATOM     31  C   UNL     1      46.493   3.798   7.279  0.00  0.00    +0.000 A 
ATOM     32  C   UNL     1      45.728   4.259   8.349  0.00  0.00    +0.000 A 
ENDBRANCH  26  27
BRANCH  26  33
ATOM     33  C   UNL     1      43.599   2.665  11.130  0.00  0.00    +0.000 C 
BRANCH  33  34
ATOM     34  O   UNL     1      44.046   2.445  12.469  0.00  0.00    +0.000 OA
ATOM     35  H   UNL     1      44.620   3.205  12.684  0.00  0.00    +0.000 HD
ENDBRANCH  33  34
ENDBRANCH  26  33
ENDBRANCH  24  26
ENDBRANCH  23  24
ENDBRANCH   4  23
TORSDOF 9
ENDMDL
MODEL 2
REMARK VINA RESULT:    -8.119      1.655      2.114
REMARK INTER + INTRA:         -12.996
REMARK INTER:                 -12.023
REMARK INTRA:                  -0.973
REMARK UNBOUND:                -0.843
REMARK  Name = 
REMARK  9 active torsions:
REMARK  status: ('A' for Active; 'I' for Inactive)
REMARK    1  A    between atoms: C_2  and  C_22
REMARK    2  A    between atoms: N_3  and  C_4
REMARK    3  A    between atoms: C_4  and  C_5
REMARK    4  A    between atoms: C_8  and  C_9
REMARK    5  A    between atoms: C_9  and  N_10
REMARK    6  A    between atoms: N_10  and  CA_11
REMARK    7  A    between atoms: CA_11  and  C_12
REMARK    8  A    between atoms: CA_11  and  C_14
REMARK    9  A    between atoms: C_12  and  O_13
REMARK                            x       y       z     vdW  Elec       q    Type
REMARK                         _______ _______ _______ _____ _____    ______ ____
ROOT
ATOM      1  C   UNL     1      47.177   6.358  13.161  0.00  0.00    +0.000 A 
ATOM      2  C   UNL     1      47.044   6.926  11.898  0.00  0.00    +0.000 A 
ATOM      3  C   UNL     1      45.821   6.824  11.239  0.00  0.00    +0.000 A 
ATOM      4  C   UNL     1      44.748   6.169  11.853  0.00  0.00    +0.000 A 
ATOM      5  C   UNL     1      44.971   5.648  13.122  0.00  0.00    +0.000 A 
ATOM      6  N   UNL     1      46.150   5.723  13.783  0.00  0.00    +0.000 NA
ENDROOT
BRANCH   1   7
ATOM      7  C   UNL     1      48.477   6.486  13.919  0.00  0.00    +0.000 C 
BRANCH   7  10
ATOM      8  O   UNL     1      50.433   6.331  15.924  0.00  0.00    +0.000 OA
ATOM      9  C   UNL     1      49.278   6.592  16.249  0.00  0.00    +0.000 C 
ATOM     10  N   UNL     1      48.254   6.626  15.341  0.00  0.00    +0.000 N 
ATOM     11  H   UNL     1      47.376   7.066  15.596  0.00  0.00    +0.000 HD
BRANCH   9  12
ATOM     12  C   UNL     1      48.915   6.832  17.651  0.00  0.00    +0.000 A 
ATOM     13  C   UNL     1      48.578   8.113  18.068  0.00  0.00    +0.000 A 
ATOM     14  S   UNL     1      48.189   8.212  19.726  0.00  0.00    +0.000 S 
ATOM     15  C   UNL     1      48.414   6.539  19.935  0.00  0.00    +0.000 A 
ATOM     16  N   UNL     1      48.197   5.949  21.143  0.00  0.00    +0.000 NA
ATOM     17  C   UNL     1      48.367   4.670  21.147  0.00  0.00    +0.000 A 
ATOM     18  N   UNL     1      48.747   3.926  20.060  0.00  0.00    +0.000 N 
ATOM     19  C   UNL     1      49.042   4.488  18.840  0.00  0.00    +0.000 A 
ATOM     20  O   UNL     1      49.490   3.813  17.923  0.00  0.00    +0.000 OA
ATOM     21  C   UNL     1      48.817   5.918  18.765  0.00  0.00    +0.000 A 
ATOM     22  H   UNL     1      48.893   2.932  20.135  0.00  0.00    +0.000 HD
ENDBRANCH   9  12
ENDBRANCH   7  10
ENDBRANCH   1   7
BRANCH   4  23
ATOM     23  C   UNL     1      43.400   6.062  11.187  0.00  0.00    +0.000 C 
BRANCH  23  24
ATOM     24  N   UNL     1      43.389   4.966  10.221  0.00  0.00    +0.000 NA
ATOM     25  H   UNL     1      43.743   5.326   9.332  0.00  0.00    +0.000 HD
BRANCH  24  26
ATOM     26  CA  UNL     1      44.238   3.812  10.592  0.00  0.00    +0.000 C 
BRANCH  26  27
ATOM     27  C   UNL     1      45.069   3.369   9.385  0.00  0.00    +0.000 A 
ATOM     28  C   UNL     1      45.599   4.323   8.502  0.00  0.00    +0.000 A 
ATOM     29  C   UNL     1      46.380   3.929   7.412  0.00  0.00    +0.000 A 
ATOM     30  C   UNL     1      46.641   2.578   7.186  0.00  0.00    +0.000 A 
ATOM     31  C   UNL     1      46.126   1.618   8.053  0.00  0.00    +0.000 A 
ATOM     32  C   UNL     1      45.356   2.012   9.146  0.00  0.00    +0.000 A 
ENDBRANCH  26  27
BRANCH  26  33
ATOM     33  C   UNL     1      43.427   2.608  11.146  0.00  0.00    +0.000 C 
BRANCH  33  34
ATOM     34  O   UNL     1      43.736   2.329  12.512  0.00  0.00    +0.000 OA
ATOM     35  H   UNL     1      43.129   1.613  12.779  0.00  0.00    +0.000 HD
ENDBRANCH  33  34
ENDBRANCH  26  33
ENDBRANCH  24  26
ENDBRANCH  23  24
ENDBRANCH   4  23
TORSDOF 9
ENDMDL
MODEL 3
REMARK VINA RESULT:    -8.016      2.806      3.661
REMARK INTER + INTRA:         -12.842
REMARK INTER:                 -12.143
REMARK INTRA:                  -0.699
REMARK UNBOUND:                -0.843
REMARK  Name = 
REMARK  9 active torsions:
REMARK  status: ('A' for Active; 'I' for Inactive)
REMARK    1  A    between atoms: C_2  and  C_22
REMARK    2  A    between atoms: N_3  and  C_4
REMARK    3  A    between atoms: C_4  and  C_5
REMARK    4  A    between atoms: C_8  and  C_9
REMARK    5  A    between atoms: C_9  and  N_10
REMARK    6  A    between atoms: N_10  and  CA_11
REMARK    7  A    between atoms: CA_11  and  C_12
REMARK    8  A    between atoms: CA_11  and  C_14
REMARK    9  A    between atoms: C_12  and  O_13
REMARK                            x       y       z     vdW  Elec       q    Type
REMARK                         _______ _______ _______ _____ _____    ______ ____
ROOT
ATOM      1  C   UNL     1      48.094   5.741  15.117  0.00  0.00    +0.000 A 
ATOM      2  C   UNL     1      47.686   6.239  13.884  0.00  0.00    +0.000 A 
ATOM      3  C   UNL     1      46.909   5.433  13.055  0.00  0.00    +0.000 A 
ATOM      4  C   UNL     1      46.542   4.149  13.473  0.00  0.00    +0.000 A 
ATOM      5  C   UNL     1      46.983   3.744  14.727  0.00  0.00    +0.000 A 
ATOM      6  N   UNL     1      47.746   4.501  15.550  0.00  0.00    +0.000 NA
ENDROOT
BRANCH   1   7
ATOM      7  C   UNL     1      48.903   6.604  16.055  0.00  0.00    +0.000 C 
BRANCH   7  10
ATOM      8  O   UNL     1      49.087   5.481  18.621  0.00  0.00    +0.000 OA
ATOM      9  C   UNL     1      50.022   5.322  17.842  0.00  0.00    +0.000 C 
ATOM     10  N   UNL     1      50.038   5.887  16.594  0.00  0.00    +0.000 N 
ATOM     11  H   UNL     1      50.700   5.551  15.903  0.00  0.00    +0.000 HD
BRANCH   9  12
ATOM     12  C   UNL     1      51.213   4.554  18.224  0.00  0.00    +0.000 A 
ATOM     13  C   UNL     1      52.205   5.151  18.992  0.00  0.00    +0.000 A 
ATOM     14  S   UNL     1      53.516   4.117  19.338  0.00  0.00    +0.000 S 
ATOM     15  C   UNL     1      52.785   2.822  18.514  0.00  0.00    +0.000 A 
ATOM     16  N   UNL     1      53.380   1.598  18.464  0.00  0.00    +0.000 NA
ATOM     17  C   UNL     1      52.696   0.700  17.840  0.00  0.00    +0.000 A 
ATOM     18  N   UNL     1      51.478   0.913  17.249  0.00  0.00    +0.000 N 
ATOM     19  C   UNL     1      50.872   2.147  17.217  0.00  0.00    +0.000 A 
ATOM     20  O   UNL     1      49.842   2.330  16.582  0.00  0.00    +0.000 OA
ATOM     21  C   UNL     1      51.574   3.182  17.948  0.00  0.00    +0.000 A 
ATOM     22  H   UNL     1      51.006   0.176  16.748  0.00  0.00    +0.000 HD
ENDBRANCH   9  12
ENDBRANCH   7  10
ENDBRANCH   1   7
BRANCH   4  23
ATOM     23  C   UNL     1      45.678   3.257  12.619  0.00  0.00    +0.000 C 
BRANCH  23  24
ATOM     24  N   UNL     1      44.267   3.427  12.960  0.00  0.00    +0.000 NA
ATOM     25  H   UNL     1      44.201   4.163  13.666  0.00  0.00    +0.000 HD
BRANCH  24  26
ATOM     26  CA  UNL     1      43.406   3.832  11.826  0.00  0.00    +0.000 C 
BRANCH  26  27
ATOM     27  C   UNL     1      44.175   3.686  10.511  0.00  0.00    +0.000 A 
ATOM     28  C   UNL     1      44.813   4.796   9.936  0.00  0.00    +0.000 A 
ATOM     29  C   UNL     1      45.539   4.666   8.748  0.00  0.00    +0.000 A 
ATOM     30  C   UNL     1      45.634   3.427   8.116  0.00  0.00    +0.000 A 
ATOM     31  C   UNL     1      45.010   2.315   8.672  0.00  0.00    +0.000 A 
ATOM     32  C   UNL     1      44.295   2.442   9.862  0.00  0.00    +0.000 A 
ENDBRANCH  26  27
BRANCH  26  33
ATOM     33  C   UNL     1      42.859   5.280  11.960  0.00  0.00    +0.000 C 
BRANCH  33  34
ATOM     34  O   UNL     1      42.851   5.733  13.315  0.00  0.00    +0.000 OA
ATOM     35  H   UNL     1      43.751   5.567  13.654  0.00  0.00    +0.000 HD
ENDBRANCH  33  34
ENDBRANCH  26  33
ENDBRANCH  24  26
ENDBRANCH  23  24
ENDBRANCH   4  23
TORSDOF 9
ENDMDL
MODEL 4
REMARK VINA RESULT:    -7.761      2.672      3.383
REMARK INTER + INTRA:         -12.460
REMARK INTER:                 -11.681
REMARK INTRA:                  -0.780
REMARK UNBOUND:                -0.843
REMARK  Name = 
REMARK  9 active torsions:
REMARK  status: ('A' for Active; 'I' for Inactive)
REMARK    1  A    between atoms: C_2  and  C_22
REMARK    2  A    between atoms: N_3  and  C_4
REMARK    3  A    between atoms: C_4  and  C_5
REMARK    4  A    between atoms: C_8  and  C_9
REMARK    5  A    between atoms: C_9  and  N_10
REMARK    6  A    between atoms: N_10  and  CA_11
REMARK    7  A    between atoms: CA_11  and  C_12
REMARK    8  A    between atoms: CA_11  and  C_14
REMARK    9  A    between atoms: C_12  and  O_13
REMARK                            x       y       z     vdW  Elec       q    Type
REMARK                         _______ _______ _______ _____ _____    ______ ____
ROOT
ATOM      1  C   UNL     1      47.436   5.687  13.978  0.00  0.00    +0.000 A 
ATOM      2  C   UNL     1      46.567   6.330  13.102  0.00  0.00    +0.000 A 
ATOM      3  C   UNL     1      45.657   5.566  12.375  0.00  0.00    +0.000 A 
ATOM      4  C   UNL     1      45.620   4.178  12.541  0.00  0.00    +0.000 A 
ATOM      5  C   UNL     1      46.515   3.627  13.450  0.00  0.00    +0.000 A 
ATOM      6  N   UNL     1      47.417   4.342  14.163  0.00  0.00    +0.000 NA
ENDROOT
BRANCH   1   7
ATOM      7  C   UNL     1      48.407   6.490  14.811  0.00  0.00    +0.000 C 
BRANCH   7  10
ATOM      8  O   UNL     1      50.270   5.449  16.634  0.00  0.00    +0.000 OA
ATOM      9  C   UNL     1      49.179   5.822  17.057  0.00  0.00    +0.000 C 
ATOM     10  N   UNL     1      48.193   6.285  16.227  0.00  0.00    +0.000 N 
ATOM     11  H   UNL     1      47.409   6.794  16.619  0.00  0.00    +0.000 HD
BRANCH   9  12
ATOM     12  C   UNL     1      48.846   5.743  18.483  0.00  0.00    +0.000 A 
ATOM     13  C   UNL     1      49.105   4.575  19.191  0.00  0.00    +0.000 A 
ATOM     14  S   UNL     1      48.650   4.656  20.833  0.00  0.00    +0.000 S 
ATOM     15  C   UNL     1      48.133   6.267  20.668  0.00  0.00    +0.000 A 
ATOM     16  N   UNL     1      47.656   6.963  21.737  0.00  0.00    +0.000 NA
ATOM     17  C   UNL     1      47.338   8.186  21.476  0.00  0.00    +0.000 A 
ATOM     18  N   UNL     1      47.438   8.776  20.243  0.00  0.00    +0.000 N 
ATOM     19  C   UNL     1      47.849   8.093  19.123  0.00  0.00    +0.000 A 
ATOM     20  O   UNL     1      47.816   8.613  18.016  0.00  0.00    +0.000 OA
ATOM     21  C   UNL     1      48.269   6.727  19.369  0.00  0.00    +0.000 A 
ATOM     22  H   UNL     1      47.143   9.728  20.096  0.00  0.00    +0.000 HD
ENDBRANCH   9  12
ENDBRANCH   7  10
ENDBRANCH   1   7
BRANCH   4  23
ATOM     23  C   UNL     1      44.631   3.319  11.795  0.00  0.00    +0.000 C 
BRANCH  23  24
ATOM     24  N   UNL     1      45.277   2.652  10.666  0.00  0.00    +0.000 NA
ATOM     25  H   UNL     1      45.130   1.646  10.770  0.00  0.00    +0.000 HD
BRANCH  24  26
ATOM     26  CA  UNL     1      44.746   3.036   9.339  0.00  0.00    +0.000 C 
BRANCH  26  27
ATOM     27  C   UNL     1      45.668   2.507   8.238  0.00  0.00    +0.000 A 
ATOM     28  C   UNL     1      46.074   3.349   7.190  0.00  0.00    +0.000 A 
ATOM     29  C   UNL     1      46.936   2.881   6.193  0.00  0.00    +0.000 A 
ATOM     30  C   UNL     1      47.401   1.567   6.227  0.00  0.00    +0.000 A 
ATOM     31  C   UNL     1      47.011   0.720   7.258  0.00  0.00    +0.000 A 
ATOM     32  C   UNL     1      46.160   1.188   8.258  0.00  0.00    +0.000 A 
ENDBRANCH  26  27
BRANCH  26  33
ATOM     33  C   UNL     1      44.554   4.568   9.177  0.00  0.00    +0.000 C 
BRANCH  33  34
ATOM     34  O   UNL     1      43.260   5.000   9.601  0.00  0.00    +0.000 OA
ATOM     35  H   UNL     1      43.284   4.988  10.577  0.00  0.00    +0.000 HD
ENDBRANCH  33  34
ENDBRANCH  26  33
ENDBRANCH  24  26
ENDBRANCH  23  24
ENDBRANCH   4  23
TORSDOF 9
ENDMDL
MODEL 5
REMARK VINA RESULT:    -7.493      3.054      7.707
REMARK INTER + INTRA:         -12.059
REMARK INTER:                 -10.529
REMARK INTRA:                  -1.530
REMARK UNBOUND:                -0.843
REMARK  Name = 
REMARK  9 active torsions:
REMARK  status: ('A' for Active; 'I' for Inactive)
REMARK    1  A    between atoms: C_2  and  C_22
REMARK    2  A    between atoms: N_3  and  C_4
REMARK    3  A    between atoms: C_4  and  C_5
REMARK    4  A    between atoms: C_8  and  C_9
REMARK    5  A    between atoms: C_9  and  N_10
REMARK    6  A    between atoms: N_10  and  CA_11
REMARK    7  A    between atoms: CA_11  and  C_12
REMARK    8  A    between atoms: CA_11  and  C_14
REMARK    9  A    between atoms: C_12  and  O_13
REMARK                            x       y       z     vdW  Elec       q    Type
REMARK                         _______ _______ _______ _____ _____    ______ ____
ROOT
ATOM      1  C   UNL     1      48.593   7.924  13.548  0.00  0.00    +0.000 A 
ATOM      2  C   UNL     1      48.115   9.013  14.270  0.00  0.00    +0.000 A 
ATOM      3  C   UNL     1      48.239   9.008  15.658  0.00  0.00    +0.000 A 
ATOM      4  C   UNL     1      48.846   7.924  16.301  0.00  0.00    +0.000 A 
ATOM      5  C   UNL     1      49.306   6.890  15.495  0.00  0.00    +0.000 A 
ATOM      6  N   UNL     1      49.192   6.863  14.146  0.00  0.00    +0.000 NA
ENDROOT
BRANCH   1   7
ATOM      7  C   UNL     1      48.510   7.918  12.040  0.00  0.00    +0.000 C 
BRANCH   7  10
ATOM      8  O   UNL     1      45.720   7.915  11.733  0.00  0.00    +0.000 OA
ATOM      9  C   UNL     1      46.350   6.921  11.383  0.00  0.00    +0.000 C 
ATOM     10  N   UNL     1      47.705   6.818  11.555  0.00  0.00    +0.000 N 
ATOM     11  H   UNL     1      48.218   6.101  11.053  0.00  0.00    +0.000 HD
BRANCH   9  12
ATOM     12  C   UNL     1      45.676   5.754  10.804  0.00  0.00    +0.000 A 
ATOM     13  C   UNL     1      45.815   5.475   9.451  0.00  0.00    +0.000 A 
ATOM     14  S   UNL     1      44.960   4.088   8.947  0.00  0.00    +0.000 S 
ATOM     15  C   UNL     1      44.410   3.785  10.527  0.00  0.00    +0.000 A 
ATOM     16  N   UNL     1      43.643   2.695  10.805  0.00  0.00    +0.000 NA
ATOM     17  C   UNL     1      43.331   2.568  12.051  0.00  0.00    +0.000 A 
ATOM     18  N   UNL     1      43.702   3.437  13.044  0.00  0.00    +0.000 N 
ATOM     19  C   UNL     1      44.419   4.585  12.799  0.00  0.00    +0.000 A 
ATOM     20  O   UNL     1      44.635   5.398  13.687  0.00  0.00    +0.000 OA
ATOM     21  C   UNL     1      44.841   4.750  11.422  0.00  0.00    +0.000 A 
ATOM     22  H   UNL     1      43.400   3.299  13.996  0.00  0.00    +0.000 HD
ENDBRANCH   9  12
ENDBRANCH   7  10
ENDBRANCH   1   7
BRANCH   4  23
ATOM     23  C   UNL     1      49.025   7.892  17.797  0.00  0.00    +0.000 C 
BRANCH  23  24
ATOM     24  N   UNL     1      47.938   7.149  18.430  0.00  0.00    +0.000 NA
ATOM     25  H   UNL     1      47.340   6.775  17.690  0.00  0.00    +0.000 HD
BRANCH  24  26
ATOM     26  CA  UNL     1      48.377   6.002  19.256  0.00  0.00    +0.000 C 
BRANCH  26  27
ATOM     27  C   UNL     1      48.493   4.748  18.385  0.00  0.00    +0.000 A 
ATOM     28  C   UNL     1      47.372   4.261  17.694  0.00  0.00    +0.000 A 
ATOM     29  C   UNL     1      47.475   3.131  16.876  0.00  0.00    +0.000 A 
ATOM     30  C   UNL     1      48.696   2.471  16.741  0.00  0.00    +0.000 A 
ATOM     31  C   UNL     1      49.817   2.942  17.416  0.00  0.00    +0.000 A 
ATOM     32  C   UNL     1      49.718   4.074  18.223  0.00  0.00    +0.000 A 
ENDBRANCH  26  27
BRANCH  26  33
ATOM     33  C   UNL     1      47.440   5.722  20.463  0.00  0.00    +0.000 C 
BRANCH  33  34
ATOM     34  O   UNL     1      47.861   4.590  21.225  0.00  0.00    +0.000 OA
ATOM     35  H   UNL     1      48.336   4.011  20.598  0.00  0.00    +0.000 HD
ENDBRANCH  33  34
ENDBRANCH  26  33
ENDBRANCH  24  26
ENDBRANCH  23  24
ENDBRANCH   4  23
TORSDOF 9
ENDMDL
MODEL 6
REMARK VINA RESULT:    -7.330      2.273      2.651
REMARK INTER + INTRA:         -11.815
REMARK INTER:                 -11.377
REMARK INTRA:                  -0.438
REMARK UNBOUND:                -0.843
REMARK  Name = 
REMARK  9 active torsions:
REMARK  status: ('A' for Active; 'I' for Inactive)
REMARK    1  A    between atoms: C_2  and  C_22
REMARK    2  A    between atoms: N_3  and  C_4
REMARK    3  A    between atoms: C_4  and  C_5
REMARK    4  A    between atoms: C_8  and  C_9
REMARK    5  A    between atoms: C_9  and  N_10
REMARK    6  A    between atoms: N_10  and  CA_11
REMARK    7  A    between atoms: CA_11  and  C_12
REMARK    8  A    between atoms: CA_11  and  C_14
REMARK    9  A    between atoms: C_12  and  O_13
REMARK                            x       y       z     vdW  Elec       q    Type
REMARK                         _______ _______ _______ _____ _____    ______ ____
ROOT
ATOM      1  C   UNL     1      47.599   6.242  13.762  0.00  0.00    +0.000 A 
ATOM      2  C   UNL     1      46.459   6.789  13.183  0.00  0.00    +0.000 A 
ATOM      3  C   UNL     1      45.412   5.941  12.827  0.00  0.00    +0.000 A 
ATOM      4  C   UNL     1      45.513   4.567  13.065  0.00  0.00    +0.000 A 
ATOM      5  C   UNL     1      46.684   4.115  13.663  0.00  0.00    +0.000 A 
ATOM      6  N   UNL     1      47.721   4.912  14.010  0.00  0.00    +0.000 NA
ENDROOT
BRANCH   1   7
ATOM      7  C   UNL     1      48.735   7.137  14.195  0.00  0.00    +0.000 C 
BRANCH   7  10
ATOM      8  O   UNL     1      49.992   5.874  16.363  0.00  0.00    +0.000 OA
ATOM      9  C   UNL     1      49.312   6.873  16.579  0.00  0.00    +0.000 C 
ATOM     10  N   UNL     1      48.618   7.513  15.587  0.00  0.00    +0.000 N 
ATOM     11  H   UNL     1      48.266   8.450  15.750  0.00  0.00    +0.000 HD
BRANCH   9  12
ATOM     12  C   UNL     1      49.161   7.415  17.934  0.00  0.00    +0.000 A 
ATOM     13  C   UNL     1      49.705   8.654  18.249  0.00  0.00    +0.000 A 
ATOM     14  S   UNL     1      49.440   9.126  19.867  0.00  0.00    +0.000 S 
ATOM     15  C   UNL     1      48.550   7.714  20.191  0.00  0.00    +0.000 A 
ATOM     16  N   UNL     1      47.988   7.505  21.414  0.00  0.00    +0.000 NA
ATOM     17  C   UNL     1      47.308   6.413  21.506  0.00  0.00    +0.000 A 
ATOM     18  N   UNL     1      47.148   5.501  20.496  0.00  0.00    +0.000 N 
ATOM     19  C   UNL     1      47.752   5.637  19.268  0.00  0.00    +0.000 A 
ATOM     20  O   UNL     1      47.686   4.751  18.428  0.00  0.00    +0.000 OA
ATOM     21  C   UNL     1      48.487   6.874  19.092  0.00  0.00    +0.000 A 
ATOM     22  H   UNL     1      46.629   4.649  20.641  0.00  0.00    +0.000 HD
ENDBRANCH   9  12
ENDBRANCH   7  10
ENDBRANCH   1   7
BRANCH   4  23
ATOM     23  C   UNL     1      44.392   3.620  12.722  0.00  0.00    +0.000 C 
BRANCH  23  24
ATOM     24  N   UNL     1      44.762   2.771  11.592  0.00  0.00    +0.000 NA
ATOM     25  H   UNL     1      44.476   1.814  11.810  0.00  0.00    +0.000 HD
BRANCH  24  26
ATOM     26  CA  UNL     1      44.116   3.137  10.311  0.00  0.00    +0.000 C 
BRANCH  26  27
ATOM     27  C   UNL     1      45.114   2.979   9.161  0.00  0.00    +0.000 A 
ATOM     28  C   UNL     1      45.612   1.710   8.827  0.00  0.00    +0.000 A 
ATOM     29  C   UNL     1      46.505   1.553   7.762  0.00  0.00    +0.000 A 
ATOM     30  C   UNL     1      46.914   2.660   7.019  0.00  0.00    +0.000 A 
ATOM     31  C   UNL     1      46.428   3.925   7.336  0.00  0.00    +0.000 A 
ATOM     32  C   UNL     1      45.530   4.080   8.390  0.00  0.00    +0.000 A 
ENDBRANCH  26  27
BRANCH  26  33
ATOM     33  C   UNL     1      43.531   4.576  10.310  0.00  0.00    +0.000 C 
BRANCH  33  34
ATOM     34  O   UNL     1      42.302   4.662  11.033  0.00  0.00    +0.000 OA
ATOM     35  H   UNL     1      42.336   5.513  11.511  0.00  0.00    +0.000 HD
ENDBRANCH  33  34
ENDBRANCH  26  33
ENDBRANCH  24  26
ENDBRANCH  23  24
ENDBRANCH   4  23
TORSDOF 9
ENDMDL
MODEL 7
REMARK VINA RESULT:    -7.142      1.511      2.342
REMARK INTER + INTRA:         -11.534
REMARK INTER:                 -10.488
REMARK INTRA:                  -1.046
REMARK UNBOUND:                -0.843
REMARK  Name = 
REMARK  9 active torsions:
REMARK  status: ('A' for Active; 'I' for Inactive)
REMARK    1  A    between atoms: C_2  and  C_22
REMARK    2  A    between atoms: N_3  and  C_4
REMARK    3  A    between atoms: C_4  and  C_5
REMARK    4  A    between atoms: C_8  and  C_9
REMARK    5  A    between atoms: C_9  and  N_10
REMARK    6  A    between atoms: N_10  and  CA_11
REMARK    7  A    between atoms: CA_11  and  C_12
REMARK    8  A    between atoms: CA_11  and  C_14
REMARK    9  A    between atoms: C_12  and  O_13
REMARK                            x       y       z     vdW  Elec       q    Type
REMARK                         _______ _______ _______ _____ _____    ______ ____
ROOT
ATOM      1  C   UNL     1      48.364   8.030  13.189  0.00  0.00    +0.000 A 
ATOM      2  C   UNL     1      48.260   7.574  11.879  0.00  0.00    +0.000 A 
ATOM      3  C   UNL     1      47.023   7.636  11.241  0.00  0.00    +0.000 A 
ATOM      4  C   UNL     1      45.915   8.161  11.914  0.00  0.00    +0.000 A 
ATOM      5  C   UNL     1      46.120   8.606  13.214  0.00  0.00    +0.000 A 
ATOM      6  N   UNL     1      47.306   8.550  13.863  0.00  0.00    +0.000 NA
ENDROOT
BRANCH   1   7
ATOM      7  C   UNL     1      49.699   8.013  13.895  0.00  0.00    +0.000 C 
BRANCH   7  10
ATOM      8  O   UNL     1      49.285   8.568  16.615  0.00  0.00    +0.000 OA
ATOM      9  C   UNL     1      49.452   7.400  16.272  0.00  0.00    +0.000 C 
ATOM     10  N   UNL     1      49.719   7.051  14.976  0.00  0.00    +0.000 N 
ATOM     11  H   UNL     1      49.620   6.083  14.689  0.00  0.00    +0.000 HD
BRANCH   9  12
ATOM     12  C   UNL     1      49.426   6.306  17.250  0.00  0.00    +0.000 A 
ATOM     13  C   UNL     1      50.170   6.404  18.419  0.00  0.00    +0.000 A 
ATOM     14  S   UNL     1      50.028   5.043  19.436  0.00  0.00    +0.000 S 
ATOM     15  C   UNL     1      48.932   4.294  18.374  0.00  0.00    +0.000 A 
ATOM     16  N   UNL     1      48.378   3.087  18.675  0.00  0.00    +0.000 NA
ATOM     17  C   UNL     1      47.534   2.657  17.799  0.00  0.00    +0.000 A 
ATOM     18  N   UNL     1      47.203   3.312  16.641  0.00  0.00    +0.000 N 
ATOM     19  C   UNL     1      47.788   4.498  16.264  0.00  0.00    +0.000 A 
ATOM     20  O   UNL     1      47.557   4.998  15.172  0.00  0.00    +0.000 OA
ATOM     21  C   UNL     1      48.706   5.054  17.238  0.00  0.00    +0.000 A 
ATOM     22  H   UNL     1      46.559   2.907  15.980  0.00  0.00    +0.000 HD
ENDBRANCH   9  12
ENDBRANCH   7  10
ENDBRANCH   1   7
BRANCH   4  23
ATOM     23  C   UNL     1      44.566   8.272  11.250  0.00  0.00    +0.000 C 
BRANCH  23  24
ATOM     24  N   UNL     1      43.868   6.989  11.284  0.00  0.00    +0.000 NA
ATOM     25  H   UNL     1      43.552   6.778  10.335  0.00  0.00    +0.000 HD
BRANCH  24  26
ATOM     26  CA  UNL     1      44.699   5.849  11.730  0.00  0.00    +0.000 C 
BRANCH  26  27
ATOM     27  C   UNL     1      44.780   4.798  10.620  0.00  0.00    +0.000 A 
ATOM     28  C   UNL     1      45.430   5.094   9.411  0.00  0.00    +0.000 A 
ATOM     29  C   UNL     1      45.531   4.132   8.402  0.00  0.00    +0.000 A 
ATOM     30  C   UNL     1      44.980   2.863   8.583  0.00  0.00    +0.000 A 
ATOM     31  C   UNL     1      44.334   2.552   9.775  0.00  0.00    +0.000 A 
ATOM     32  C   UNL     1      44.243   3.507  10.786  0.00  0.00    +0.000 A 
ENDBRANCH  26  27
BRANCH  26  33
ATOM     33  C   UNL     1      44.186   5.194  13.041  0.00  0.00    +0.000 C 
BRANCH  33  34
ATOM     34  O   UNL     1      42.873   5.634  13.389  0.00  0.00    +0.000 OA
ATOM     35  H   UNL     1      42.779   5.457  14.345  0.00  0.00    +0.000 HD
ENDBRANCH  33  34
ENDBRANCH  26  33
ENDBRANCH  24  26
ENDBRANCH  23  24
ENDBRANCH   4  23
TORSDOF 9
ENDMDL
MODEL 8
REMARK VINA RESULT:    -6.920      3.330      5.819
REMARK INTER + INTRA:         -11.202
REMARK INTER:                 -10.605
REMARK INTRA:                  -0.597
REMARK UNBOUND:                -0.843
REMARK  Name = 
REMARK  9 active torsions:
REMARK  status: ('A' for Active; 'I' for Inactive)
REMARK    1  A    between atoms: C_2  and  C_22
REMARK    2  A    between atoms: N_3  and  C_4
REMARK    3  A    between atoms: C_4  and  C_5
REMARK    4  A    between atoms: C_8  and  C_9
REMARK    5  A    between atoms: C_9  and  N_10
REMARK    6  A    between atoms: N_10  and  CA_11
REMARK    7  A    between atoms: CA_11  and  C_12
REMARK    8  A    between atoms: CA_11  and  C_14
REMARK    9  A    between atoms: C_12  and  O_13
REMARK                            x       y       z     vdW  Elec       q    Type
REMARK                         _______ _______ _______ _____ _____    ______ ____
ROOT
ATOM      1  C   UNL     1      47.646   6.623  13.964  0.00  0.00    +0.000 A 
ATOM      2  C   UNL     1      47.695   5.476  14.750  0.00  0.00    +0.000 A 
ATOM      3  C   UNL     1      46.999   4.343  14.333  0.00  0.00    +0.000 A 
ATOM      4  C   UNL     1      46.278   4.368  13.134  0.00  0.00    +0.000 A 
ATOM      5  C   UNL     1      46.302   5.553  12.409  0.00  0.00    +0.000 A 
ATOM      6  N   UNL     1      46.960   6.672  12.794  0.00  0.00    +0.000 NA
ENDROOT
BRANCH   1   7
ATOM      7  C   UNL     1      48.421   7.854  14.369  0.00  0.00    +0.000 C 
BRANCH   7  10
ATOM      8  O   UNL     1      49.373   8.874  11.934  0.00  0.00    +0.000 OA
ATOM      9  C   UNL     1      48.422   9.433  12.474  0.00  0.00    +0.000 C 
ATOM     10  N   UNL     1      47.936   9.036  13.691  0.00  0.00    +0.000 N 
ATOM     11  H   UNL     1      47.023   9.359  13.992  0.00  0.00    +0.000 HD
BRANCH   9  12
ATOM     12  C   UNL     1      47.779  10.604  11.865  0.00  0.00    +0.000 A 
ATOM     13  C   UNL     1      48.557  11.596  11.282  0.00  0.00    +0.000 A 
ATOM     14  S   UNL     1      47.648  12.883  10.630  0.00  0.00    +0.000 S 
ATOM     15  C   UNL     1      46.181  12.139  11.063  0.00  0.00    +0.000 A 
ATOM     16  N   UNL     1      44.986  12.712  10.750  0.00  0.00    +0.000 NA
ATOM     17  C   UNL     1      43.956  12.019  11.103  0.00  0.00    +0.000 A 
ATOM     18  N   UNL     1      44.008  10.814  11.754  0.00  0.00    +0.000 N 
ATOM     19  C   UNL     1      45.190  10.232  12.149  0.00  0.00    +0.000 A 
ATOM     20  O   UNL     1      45.198   9.214  12.829  0.00  0.00    +0.000 OA
ATOM     21  C   UNL     1      46.381  10.943  11.731  0.00  0.00    +0.000 A 
ATOM     22  H   UNL     1      43.165  10.335  12.031  0.00  0.00    +0.000 HD
ENDBRANCH   9  12
ENDBRANCH   7  10
ENDBRANCH   1   7
BRANCH   4  23
ATOM     23  C   UNL     1      45.536   3.155  12.633  0.00  0.00    +0.000 C 
BRANCH  23  24
ATOM     24  N   UNL     1      44.111   3.261  12.938  0.00  0.00    +0.000 NA
ATOM     25  H   UNL     1      43.994   3.989  13.645  0.00  0.00    +0.000 HD
BRANCH  24  26
ATOM     26  CA  UNL     1      43.262   3.633  11.785  0.00  0.00    +0.000 C 
BRANCH  26  27
ATOM     27  C   UNL     1      44.049   3.464  10.483  0.00  0.00    +0.000 A 
ATOM     28  C   UNL     1      44.313   2.181   9.977  0.00  0.00    +0.000 A 
ATOM     29  C   UNL     1      45.009   2.018   8.776  0.00  0.00    +0.000 A 
ATOM     30  C   UNL     1      45.454   3.132   8.065  0.00  0.00    +0.000 A 
ATOM     31  C   UNL     1      45.200   4.410   8.550  0.00  0.00    +0.000 A 
ATOM     32  C   UNL     1      44.496   4.574   9.742  0.00  0.00    +0.000 A 
ENDBRANCH  26  27
BRANCH  26  33
ATOM     33  C   UNL     1      42.701   5.079  11.879  0.00  0.00    +0.000 C 
BRANCH  33  34
ATOM     34  O   UNL     1      42.821   5.622  13.195  0.00  0.00    +0.000 OA
ATOM     35  H   UNL     1      41.908   5.718  13.525  0.00  0.00    +0.000 HD
ENDBRANCH  33  34
ENDBRANCH  26  33
ENDBRANCH  24  26
ENDBRANCH  23  24
ENDBRANCH   4  23
TORSDOF 9
ENDMDL
MODEL 9
REMARK VINA RESULT:    -6.878      2.943      8.200
REMARK INTER + INTRA:         -11.139
REMARK INTER:                 -10.091
REMARK INTRA:                  -1.048
REMARK UNBOUND:                -0.843
REMARK  Name = 
REMARK  9 active torsions:
REMARK  status: ('A' for Active; 'I' for Inactive)
REMARK    1  A    between atoms: C_2  and  C_22
REMARK    2  A    between atoms: N_3  and  C_4
REMARK    3  A    between atoms: C_4  and  C_5
REMARK    4  A    between atoms: C_8  and  C_9
REMARK    5  A    between atoms: C_9  and  N_10
REMARK    6  A    between atoms: N_10  and  CA_11
REMARK    7  A    between atoms: CA_11  and  C_12
REMARK    8  A    between atoms: CA_11  and  C_14
REMARK    9  A    between atoms: C_12  and  O_13
REMARK                            x       y       z     vdW  Elec       q    Type
REMARK                         _______ _______ _______ _____ _____    ______ ____
ROOT
ATOM      1  C   UNL     1      48.247   7.781  13.865  0.00  0.00    +0.000 A 
ATOM      2  C   UNL     1      47.849   8.774  14.755  0.00  0.00    +0.000 A 
ATOM      3  C   UNL     1      48.433   8.819  16.019  0.00  0.00    +0.000 A 
ATOM      4  C   UNL     1      49.411   7.884  16.371  0.00  0.00    +0.000 A 
ATOM      5  C   UNL     1      49.756   6.940  15.411  0.00  0.00    +0.000 A 
ATOM      6  N   UNL     1      49.200   6.865  14.179  0.00  0.00    +0.000 NA
ENDROOT
BRANCH   1   7
ATOM      7  C   UNL     1      47.663   7.729  12.474  0.00  0.00    +0.000 C 
BRANCH   7  10
ATOM      8  O   UNL     1      44.972   7.557  11.696  0.00  0.00    +0.000 OA
ATOM      9  C   UNL     1      45.615   6.518  11.822  0.00  0.00    +0.000 C 
ATOM     10  N   UNL     1      46.913   6.511  12.256  0.00  0.00    +0.000 N 
ATOM     11  H   UNL     1      47.478   5.678  12.126  0.00  0.00    +0.000 HD
BRANCH   9  12
ATOM     12  C   UNL     1      45.007   5.208  11.563  0.00  0.00    +0.000 A 
ATOM     13  C   UNL     1      44.291   4.566  12.566  0.00  0.00    +0.000 A 
ATOM     14  S   UNL     1      43.660   3.054  12.095  0.00  0.00    +0.000 S 
ATOM     15  C   UNL     1      44.281   3.222  10.522  0.00  0.00    +0.000 A 
ATOM     16  N   UNL     1      44.058   2.269   9.575  0.00  0.00    +0.000 NA
ATOM     17  C   UNL     1      44.553   2.546   8.415  0.00  0.00    +0.000 A 
ATOM     18  N   UNL     1      45.264   3.679   8.117  0.00  0.00    +0.000 N 
ATOM     19  C   UNL     1      45.571   4.634   9.057  0.00  0.00    +0.000 A 
ATOM     20  O   UNL     1      46.305   5.575   8.788  0.00  0.00    +0.000 OA
ATOM     21  C   UNL     1      44.994   4.399  10.366  0.00  0.00    +0.000 A 
ATOM     22  H   UNL     1      45.652   3.823   7.198  0.00  0.00    +0.000 HD
ENDBRANCH   9  12
ENDBRANCH   7  10
ENDBRANCH   1   7
BRANCH   4  23
ATOM     23  C   UNL     1      50.088   7.916  17.718  0.00  0.00    +0.000 C 
BRANCH  23  24
ATOM     24  N   UNL     1      49.346   7.113  18.686  0.00  0.00    +0.000 NA
ATOM     25  H   UNL     1      48.425   6.915  18.290  0.00  0.00    +0.000 HD
BRANCH  24  26
ATOM     26  CA  UNL     1      49.970   5.811  19.011  0.00  0.00    +0.000 C 
BRANCH  26  27
ATOM     27  C   UNL     1      49.296   4.696  18.207  0.00  0.00    +0.000 A 
ATOM     28  C   UNL     1      50.034   3.575  17.794  0.00  0.00    +0.000 A 
ATOM     29  C   UNL     1      49.420   2.541  17.081  0.00  0.00    +0.000 A 
ATOM     30  C   UNL     1      48.063   2.613  16.767  0.00  0.00    +0.000 A 
ATOM     31  C   UNL     1      47.316   3.715  17.170  0.00  0.00    +0.000 A 
ATOM     32  C   UNL     1      47.925   4.742  17.890  0.00  0.00    +0.000 A 
ENDBRANCH  26  27
BRANCH  26  33
ATOM     33  C   UNL     1      49.924   5.471  20.526  0.00  0.00    +0.000 C 
BRANCH  33  34
ATOM     34  O   UNL     1      49.180   4.281  20.792  0.00  0.00    +0.000 OA
ATOM     35  H   UNL     1      49.453   3.993  21.684  0.00  0.00    +0.000 HD
ENDBRANCH  33  34
ENDBRANCH  26  33
ENDBRANCH  24  26
ENDBRANCH  23  24
ENDBRANCH   4  23
TORSDOF 9
ENDMDL
