MODEL 1
REMARK VINA RESULT:    -8.438      0.000      0.000
REMARK INTER + INTRA:         -12.321
REMARK INTER:                 -11.398
REMARK INTRA:                  -0.922
REMARK UNBOUND:                -0.922
REMARK  Name = 
REMARK  7 active torsions:
REMARK  status: ('A' for Active; 'I' for Inactive)
REMARK    1  A    between atoms: C_1  and  N_2
REMARK    2  A    between atoms: N_2  and  C_3
REMARK    3  A    between atoms: C_3  and  C_4
REMARK    4  A    between atoms: C_7  and  C_8
REMARK    5  A    between atoms: C_8  and  N_9
REMARK    6  A    between atoms: C_10  and  C_12
REMARK    7  A    between atoms: C_24  and  C_26
REMARK                            x       y       z     vdW  Elec       q    Type
REMARK                         _______ _______ _______ _____ _____    ______ ____
ROOT
ATOM      1  C   UNL     1      46.458   4.704  13.408  0.00  0.00    +0.000 A 
ATOM      2  C   UNL     1      46.756   4.279  14.713  0.00  0.00    +0.000 A 
ATOM      3  C   UNL     1      47.641   5.002  15.511  0.00  0.00    +0.000 A 
ATOM      4  C   UNL     1      48.230   6.174  15.026  0.00  0.00    +0.000 A 
ATOM      5  C   UNL     1      47.936   6.596  13.722  0.00  0.00    +0.000 A 
ATOM      6  C   UNL     1      47.051   5.873  12.921  0.00  0.00    +0.000 A 
ENDROOT
BRANCH   1   7
ATOM      7  C   UNL     1      45.537   3.885  12.542  0.00  0.00    +0.000 C 
BRANCH   7   9
ATOM      8  C   UNL     1      43.364   5.144  12.910  0.00  0.00    +0.000 C 
ATOM      9  N   UNL     1      44.323   4.507  12.011  0.00  0.00    +0.000 N 
ATOM     10  C   UNL     1      43.963   4.515  10.650  0.00  0.00    +0.000 C 
ATOM     11  O   UNL     1      42.935   5.081  10.269  0.00  0.00    +0.000 OA
BRANCH  10  12
ATOM     12  C   UNL     1      44.811   3.892   9.582  0.00  0.00    +0.000 A 
ATOM     13  C   UNL     1      45.628   4.601   8.695  0.00  0.00    +0.000 A 
ATOM     14  C   UNL     1      46.365   3.940   7.709  0.00  0.00    +0.000 A 
ATOM     15  C   UNL     1      46.362   2.550   7.649  0.00  0.00    +0.000 A 
ATOM     16  C   UNL     1      45.624   1.822   8.578  0.00  0.00    +0.000 A 
ATOM     17  C   UNL     1      44.848   2.488   9.532  0.00  0.00    +0.000 A 
ENDBRANCH  10  12
ENDBRANCH   7   9
ENDBRANCH   1   7
BRANCH   4  18
ATOM     18  C   UNL     1      49.216   6.941  15.865  0.00  0.00    +0.000 C 
BRANCH  18  19
ATOM     19  N   UNL     1      50.258   6.068  16.345  0.00  0.00    +0.000 N 
ATOM     20  C   UNL     1      50.249   5.602  17.633  0.00  0.00    +0.000 C 
ATOM     21  O   UNL     1      49.343   5.873  18.416  0.00  0.00    +0.000 OA
ATOM     22  H   UNL     1      51.109   6.011  15.794  0.00  0.00    +0.000 HD
BRANCH  20  23
ATOM     23  C   UNL     1      51.347   4.706  18.013  0.00  0.00    +0.000 A 
ATOM     24  C   UNL     1      52.464   5.227  18.651  0.00  0.00    +0.000 A 
ATOM     25  S   UNL     1      53.625   4.052  19.070  0.00  0.00    +0.000 S 
ATOM     26  C   UNL     1      52.700   2.810  18.368  0.00  0.00    +0.000 A 
ATOM     27  N   UNL     1      53.149   1.526  18.361  0.00  0.00    +0.000 NA
ATOM     28  C   UNL     1      52.365   0.690  17.766  0.00  0.00    +0.000 A 
ATOM     29  N   UNL     1      51.167   1.020  17.186  0.00  0.00    +0.000 N 
ATOM     30  C   UNL     1      50.659   2.301  17.197  0.00  0.00    +0.000 A 
ATOM     31  O   UNL     1      49.563   2.550  16.706  0.00  0.00    +0.000 OA
ATOM     32  C   UNL     1      51.511   3.280  17.840  0.00  0.00    +0.000 A 
ATOM     33  H   UNL     1      50.597   0.315  16.746  0.00  0.00    +0.000 HD
ENDBRANCH  20  23
ENDBRANCH  18  19
ENDBRANCH   4  18
TORSDOF 6
ENDMDL
MODEL 2
REMARK VINA RESULT:    -8.314      2.501      3.028
REMARK INTER + INTRA:         -12.153
REMARK INTER:                 -11.353
REMARK INTRA:                  -0.800
REMARK UNBOUND:                -0.922
REMARK  Name = 
REMARK  7 active torsions:
REMARK  status: ('A' for Active; 'I' for Inactive)
REMARK    1  A    between atoms: C_1  and  N_2
REMARK    2  A    between atoms: N_2  and  C_3
REMARK    3  A    between atoms: C_3  and  C_4
REMARK    4  A    between atoms: C_7  and  C_8
REMARK    5  A    between atoms: C_8  and  N_9
REMARK    6  A    between atoms: C_10  and  C_12
REMARK    7  A    between atoms: C_24  and  C_26
REMARK                            x       y       z     vdW  Elec       q    Type
REMARK                         _______ _______ _______ _____ _____    ______ ____
ROOT
ATOM      1  C   UNL     1      45.328   6.758  11.321  0.00  0.00    +0.000 A 
ATOM      2  C   UNL     1      44.921   7.903  12.027  0.00  0.00    +0.000 A 
ATOM      3  C   UNL     1      45.780   8.522  12.933  0.00  0.00    +0.000 A 
ATOM      4  C   UNL     1      47.070   8.019  13.137  0.00  0.00    +0.000 A 
ATOM      5  C   UNL     1      47.474   6.874  12.436  0.00  0.00    +0.000 A 
ATOM      6  C   UNL     1      46.615   6.253  11.529  0.00  0.00    +0.000 A 
ENDROOT
BRANCH   1   7
ATOM      7  C   UNL     1      44.369   6.075  10.382  0.00  0.00    +0.000 C 
BRANCH   7   9
ATOM      8  C   UNL     1      42.689   4.925  11.899  0.00  0.00    +0.000 C 
ATOM      9  N   UNL     1      43.682   4.862  10.829  0.00  0.00    +0.000 N 
ATOM     10  C   UNL     1      43.932   3.573  10.322  0.00  0.00    +0.000 C 
ATOM     11  O   UNL     1      43.297   2.596  10.729  0.00  0.00    +0.000 OA
BRANCH  10  12
ATOM     12  C   UNL     1      44.932   3.307   9.236  0.00  0.00    +0.000 A 
ATOM     13  C   UNL     1      45.552   4.293   8.462  0.00  0.00    +0.000 A 
ATOM     14  C   UNL     1      46.453   3.954   7.449  0.00  0.00    +0.000 A 
ATOM     15  C   UNL     1      46.812   2.624   7.251  0.00  0.00    +0.000 A 
ATOM     16  C   UNL     1      46.273   1.635   8.069  0.00  0.00    +0.000 A 
ATOM     17  C   UNL     1      45.333   1.974   9.048  0.00  0.00    +0.000 A 
ENDBRANCH  10  12
ENDBRANCH   7   9
ENDBRANCH   1   7
BRANCH   4  18
ATOM     18  C   UNL     1      47.992   8.656  14.141  0.00  0.00    +0.000 C 
BRANCH  18  19
ATOM     19  N   UNL     1      48.199   7.779  15.265  0.00  0.00    +0.000 N 
ATOM     20  C   UNL     1      49.357   7.060  15.393  0.00  0.00    +0.000 C 
ATOM     21  O   UNL     1      50.276   7.158  14.585  0.00  0.00    +0.000 OA
ATOM     22  H   UNL     1      47.384   7.524  15.814  0.00  0.00    +0.000 HD
BRANCH  20  23
ATOM     23  C   UNL     1      49.474   6.211  16.584  0.00  0.00    +0.000 A 
ATOM     24  C   UNL     1      50.431   6.509  17.544  0.00  0.00    +0.000 A 
ATOM     25  S   UNL     1      50.406   5.460  18.887  0.00  0.00    +0.000 S 
ATOM     26  C   UNL     1      49.149   4.537  18.210  0.00  0.00    +0.000 A 
ATOM     27  N   UNL     1      48.660   3.444  18.856  0.00  0.00    +0.000 NA
ATOM     28  C   UNL     1      47.732   2.817  18.216  0.00  0.00    +0.000 A 
ATOM     29  N   UNL     1      47.241   3.187  16.991  0.00  0.00    +0.000 N 
ATOM     30  C   UNL     1      47.682   4.303  16.315  0.00  0.00    +0.000 A 
ATOM     31  O   UNL     1      47.188   4.629  15.241  0.00  0.00    +0.000 OA
ATOM     32  C   UNL     1      48.737   5.034  16.986  0.00  0.00    +0.000 A 
ATOM     33  H   UNL     1      46.505   2.656  16.549  0.00  0.00    +0.000 HD
ENDBRANCH  20  23
ENDBRANCH  18  19
ENDBRANCH   4  18
TORSDOF 6
ENDMDL
MODEL 3
REMARK VINA RESULT:    -7.809      3.638      8.712
REMARK INTER + INTRA:         -11.471
REMARK INTER:                  -9.496
REMARK INTRA:                  -1.974
REMARK UNBOUND:                -0.922
REMARK  Name = 
REMARK  7 active torsions:
REMARK  status: ('A' for Active; 'I' for Inactive)
REMARK    1  A    between atoms: C_1  and  N_2
REMARK    2  A    between atoms: N_2  and  C_3
REMARK    3  A    between atoms: C_3  and  C_4
REMARK    4  A    between atoms: C_7  and  C_8
REMARK    5  A    between atoms: C_8  and  N_9
REMARK    6  A    between atoms: C_10  and  C_12
REMARK    7  A    between atoms: C_24  and  C_26
REMARK                            x       y       z     vdW  Elec       q    Type
REMARK                         _______ _______ _______ _____ _____    ______ ____
ROOT
ATOM      1  C   UNL     1      49.181   7.811  16.460  0.00  0.00    +0.000 A 
ATOM      2  C   UNL     1      49.663   6.864  15.542  0.00  0.00    +0.000 A 
ATOM      3  C   UNL     1      49.226   6.871  14.218  0.00  0.00    +0.000 A 
ATOM      4  C   UNL     1      48.313   7.838  13.783  0.00  0.00    +0.000 A 
ATOM      5  C   UNL     1      47.829   8.781  14.701  0.00  0.00    +0.000 A 
ATOM      6  C   UNL     1      48.265   8.775  16.026  0.00  0.00    +0.000 A 
ENDROOT
BRANCH   1   7
ATOM      7  C   UNL     1      49.628   7.759  17.898  0.00  0.00    +0.000 C 
BRANCH   7   9
ATOM      8  C   UNL     1      48.237   8.619  19.839  0.00  0.00    +0.000 C 
ATOM      9  N   UNL     1      48.628   7.534  18.942  0.00  0.00    +0.000 N 
ATOM     10  C   UNL     1      48.007   6.296  19.196  0.00  0.00    +0.000 C 
ATOM     11  O   UNL     1      47.152   6.184  20.079  0.00  0.00    +0.000 OA
BRANCH  10  12
ATOM     12  C   UNL     1      48.296   5.063  18.395  0.00  0.00    +0.000 A 
ATOM     13  C   UNL     1      49.417   4.243  18.566  0.00  0.00    +0.000 A 
ATOM     14  C   UNL     1      49.623   3.125  17.753  0.00  0.00    +0.000 A 
ATOM     15  C   UNL     1      48.666   2.761  16.811  0.00  0.00    +0.000 A 
ATOM     16  C   UNL     1      47.501   3.513  16.685  0.00  0.00    +0.000 A 
ATOM     17  C   UNL     1      47.323   4.661  17.465  0.00  0.00    +0.000 A 
ENDBRANCH  10  12
ENDBRANCH   7   9
ENDBRANCH   1   7
BRANCH   4  18
ATOM     18  C   UNL     1      47.806   7.831  12.366  0.00  0.00    +0.000 C 
BRANCH  18  19
ATOM     19  N   UNL     1      47.080   6.616  12.095  0.00  0.00    +0.000 N 
ATOM     20  C   UNL     1      45.715   6.574  12.193  0.00  0.00    +0.000 C 
ATOM     21  O   UNL     1      45.053   7.568  12.476  0.00  0.00    +0.000 OA
ATOM     22  H   UNL     1      47.611   5.751  12.073  0.00  0.00    +0.000 HD
BRANCH  20  23
ATOM     23  C   UNL     1      45.074   5.292  11.877  0.00  0.00    +0.000 A 
ATOM     24  C   UNL     1      44.393   4.606  12.873  0.00  0.00    +0.000 A 
ATOM     25  S   UNL     1      43.665   3.162  12.337  0.00  0.00    +0.000 S 
ATOM     26  C   UNL     1      44.277   3.375  10.764  0.00  0.00    +0.000 A 
ATOM     27  N   UNL     1      44.036   2.455   9.792  0.00  0.00    +0.000 NA
ATOM     28  C   UNL     1      44.586   2.722   8.656  0.00  0.00    +0.000 A 
ATOM     29  N   UNL     1      45.350   3.832   8.400  0.00  0.00    +0.000 N 
ATOM     30  C   UNL     1      45.593   4.805   9.344  0.00  0.00    +0.000 A 
ATOM     31  O   UNL     1      46.244   5.807   9.066  0.00  0.00    +0.000 OA
ATOM     32  C   UNL     1      45.009   4.542  10.643  0.00  0.00    +0.000 A 
ATOM     33  H   UNL     1      45.743   3.987   7.484  0.00  0.00    +0.000 HD
ENDBRANCH  20  23
ENDBRANCH  18  19
ENDBRANCH   4  18
TORSDOF 6
ENDMDL
MODEL 4
REMARK VINA RESULT:    -7.738      3.801      8.519
REMARK INTER + INTRA:         -11.375
REMARK INTER:                  -9.622
REMARK INTRA:                  -1.752
REMARK UNBOUND:                -0.922
REMARK  Name = 
REMARK  7 active torsions:
REMARK  status: ('A' for Active; 'I' for Inactive)
REMARK    1  A    between atoms: C_1  and  N_2
REMARK    2  A    between atoms: N_2  and  C_3
REMARK    3  A    between atoms: C_3  and  C_4
REMARK    4  A    between atoms: C_7  and  C_8
REMARK    5  A    between atoms: C_8  and  N_9
REMARK    6  A    between atoms: C_10  and  C_12
REMARK    7  A    between atoms: C_24  and  C_26
REMARK                            x       y       z     vdW  Elec       q    Type
REMARK                         _______ _______ _______ _____ _____    ______ ____
ROOT
ATOM      1  C   UNL     1      49.002   7.730  16.300  0.00  0.00    +0.000 A 
ATOM      2  C   UNL     1      48.443   8.933  15.839  0.00  0.00    +0.000 A 
ATOM      3  C   UNL     1      48.149   9.107  14.487  0.00  0.00    +0.000 A 
ATOM      4  C   UNL     1      48.393   8.075  13.574  0.00  0.00    +0.000 A 
ATOM      5  C   UNL     1      48.956   6.876  14.035  0.00  0.00    +0.000 A 
ATOM      6  C   UNL     1      49.250   6.700  15.387  0.00  0.00    +0.000 A 
ENDROOT
BRANCH   1   7
ATOM      7  C   UNL     1      49.357   7.576  17.756  0.00  0.00    +0.000 C 
BRANCH   7   9
ATOM      8  C   UNL     1      47.738   8.365  19.544  0.00  0.00    +0.000 C 
ATOM      9  N   UNL     1      48.292   7.294  18.719  0.00  0.00    +0.000 N 
ATOM     10  C   UNL     1      47.753   6.016  18.959  0.00  0.00    +0.000 C 
ATOM     11  O   UNL     1      46.837   5.855  19.770  0.00  0.00    +0.000 OA
BRANCH  10  12
ATOM     12  C   UNL     1      48.210   4.791  18.225  0.00  0.00    +0.000 A 
ATOM     13  C   UNL     1      49.403   4.106  18.478  0.00  0.00    +0.000 A 
ATOM     14  C   UNL     1      49.766   2.987  17.724  0.00  0.00    +0.000 A 
ATOM     15  C   UNL     1      48.898   2.485  16.759  0.00  0.00    +0.000 A 
ATOM     16  C   UNL     1      47.666   3.100  16.552  0.00  0.00    +0.000 A 
ATOM     17  C   UNL     1      47.330   4.250  17.274  0.00  0.00    +0.000 A 
ENDBRANCH  10  12
ENDBRANCH   7   9
ENDBRANCH   1   7
BRANCH   4  18
ATOM     18  C   UNL     1      48.116   8.267  12.108  0.00  0.00    +0.000 C 
BRANCH  18  19
ATOM     19  N   UNL     1      47.481   7.098  11.556  0.00  0.00    +0.000 N 
ATOM     20  C   UNL     1      46.121   7.041  11.404  0.00  0.00    +0.000 C 
ATOM     21  O   UNL     1      45.394   7.987  11.693  0.00  0.00    +0.000 OA
ATOM     22  H   UNL     1      48.030   6.245  11.515  0.00  0.00    +0.000 HD
BRANCH  20  23
ATOM     23  C   UNL     1      45.579   5.811  10.815  0.00  0.00    +0.000 A 
ATOM     24  C   UNL     1      45.791   5.548   9.469  0.00  0.00    +0.000 A 
ATOM     25  S   UNL     1      45.141   4.060   8.950  0.00  0.00    +0.000 S 
ATOM     26  C   UNL     1      44.507   3.738  10.495  0.00  0.00    +0.000 A 
ATOM     27  N   UNL     1      43.793   2.604  10.733  0.00  0.00    +0.000 NA
ATOM     28  C   UNL     1      43.343   2.501  11.938  0.00  0.00    +0.000 A 
ATOM     29  N   UNL     1      43.547   3.424  12.931  0.00  0.00    +0.000 N 
ATOM     30  C   UNL     1      44.289   4.570  12.744  0.00  0.00    +0.000 A 
ATOM     31  O   UNL     1      44.489   5.352  13.668  0.00  0.00    +0.000 OA
ATOM     32  C   UNL     1      44.805   4.739  11.401  0.00  0.00    +0.000 A 
ATOM     33  H   UNL     1      43.175   3.276  13.856  0.00  0.00    +0.000 HD
ENDBRANCH  20  23
ENDBRANCH  18  19
ENDBRANCH   4  18
TORSDOF 6
ENDMDL
MODEL 5
REMARK VINA RESULT:    -7.731      1.788      3.090
REMARK INTER + INTRA:         -11.364
REMARK INTER:                 -10.047
REMARK INTRA:                  -1.318
REMARK UNBOUND:                -0.922
REMARK  Name = 
REMARK  7 active torsions:
REMARK  status: ('A' for Active; 'I' for Inactive)
REMARK    1  A    between atoms: C_1  and  N_2
REMARK    2  A    between atoms: N_2  and  C_3
REMARK    3  A    between atoms: C_3  and  C_4
REMARK    4  A    between atoms: C_7  and  C_8
REMARK    5  A    between atoms: C_8  and  N_9
REMARK    6  A    between atoms: C_10  and  C_12
REMARK    7  A    between atoms: C_24  and  C_26
REMARK                            x       y       z     vdW  Elec       q    Type
REMARK                         _______ _______ _______ _____ _____    ______ ____
ROOT
ATOM      1  C   UNL     1      47.376   5.640  13.606  0.00  0.00    +0.000 A 
ATOM      2  C   UNL     1      48.001   6.169  14.747  0.00  0.00    +0.000 A 
ATOM      3  C   UNL     1      48.117   5.410  15.910  0.00  0.00    +0.000 A 
ATOM      4  C   UNL     1      47.627   4.100  15.948  0.00  0.00    +0.000 A 
ATOM      5  C   UNL     1      47.000   3.573  14.810  0.00  0.00    +0.000 A 
ATOM      6  C   UNL     1      46.883   4.332  13.645  0.00  0.00    +0.000 A 
ENDROOT
BRANCH   1   7
ATOM      7  C   UNL     1      47.217   6.491  12.373  0.00  0.00    +0.000 C 
BRANCH   7   9
ATOM      8  C   UNL     1      45.808   8.560  12.791  0.00  0.00    +0.000 C 
ATOM      9  N   UNL     1      45.975   7.241  12.186  0.00  0.00    +0.000 N 
ATOM     10  C   UNL     1      44.858   6.766  11.471  0.00  0.00    +0.000 C 
ATOM     11  O   UNL     1      43.850   7.464  11.331  0.00  0.00    +0.000 OA
BRANCH  10  12
ATOM     12  C   UNL     1      44.835   5.426  10.799  0.00  0.00    +0.000 A 
ATOM     13  C   UNL     1      44.166   4.299  11.287  0.00  0.00    +0.000 A 
ATOM     14  C   UNL     1      44.220   3.078  10.608  0.00  0.00    +0.000 A 
ATOM     15  C   UNL     1      44.876   2.989   9.384  0.00  0.00    +0.000 A 
ATOM     16  C   UNL     1      45.474   4.121   8.838  0.00  0.00    +0.000 A 
ATOM     17  C   UNL     1      45.461   5.328   9.545  0.00  0.00    +0.000 A 
ENDBRANCH  10  12
ENDBRANCH   7   9
ENDBRANCH   1   7
BRANCH   4  18
ATOM     18  C   UNL     1      47.712   3.286  17.211  0.00  0.00    +0.000 C 
BRANCH  18  19
ATOM     19  N   UNL     1      49.085   3.126  17.618  0.00  0.00    +0.000 N 
ATOM     20  C   UNL     1      49.919   2.263  16.959  0.00  0.00    +0.000 C 
ATOM     21  O   UNL     1      49.550   1.623  15.979  0.00  0.00    +0.000 OA
ATOM     22  H   UNL     1      49.342   3.474  18.537  0.00  0.00    +0.000 HD
BRANCH  20  23
ATOM     23  C   UNL     1      51.302   2.190  17.444  0.00  0.00    +0.000 A 
ATOM     24  C   UNL     1      51.893   0.949  17.637  0.00  0.00    +0.000 A 
ATOM     25  S   UNL     1      53.514   1.033  18.155  0.00  0.00    +0.000 S 
ATOM     26  C   UNL     1      53.470   2.733  18.189  0.00  0.00    +0.000 A 
ATOM     27  N   UNL     1      54.557   3.451  18.582  0.00  0.00    +0.000 NA
ATOM     28  C   UNL     1      54.377   4.729  18.594  0.00  0.00    +0.000 A 
ATOM     29  N   UNL     1      53.210   5.356  18.240  0.00  0.00    +0.000 N 
ATOM     30  C   UNL     1      52.096   4.672  17.806  0.00  0.00    +0.000 A 
ATOM     31  O   UNL     1      51.083   5.270  17.456  0.00  0.00    +0.000 OA
ATOM     32  C   UNL     1      52.243   3.232  17.791  0.00  0.00    +0.000 A 
ATOM     33  H   UNL     1      53.139   6.362  18.262  0.00  0.00    +0.000 HD
ENDBRANCH  20  23
ENDBRANCH  18  19
ENDBRANCH   4  18
TORSDOF 6
ENDMDL
MODEL 6
REMARK VINA RESULT:    -7.665      3.456     10.133
REMARK INTER + INTRA:         -11.276
REMARK INTER:                  -9.668
REMARK INTRA:                  -1.608
REMARK UNBOUND:                -0.922
REMARK  Name = 
REMARK  7 active torsions:
REMARK  status: ('A' for Active; 'I' for Inactive)
REMARK    1  A    between atoms: C_1  and  N_2
REMARK    2  A    between atoms: N_2  and  C_3
REMARK    3  A    between atoms: C_3  and  C_4
REMARK    4  A    between atoms: C_7  and  C_8
REMARK    5  A    between atoms: C_8  and  N_9
REMARK    6  A    between atoms: C_10  and  C_12
REMARK    7  A    between atoms: C_24  and  C_26
REMARK                            x       y       z     vdW  Elec       q    Type
REMARK                         _______ _______ _______ _____ _____    ______ ____
ROOT
ATOM      1  C   UNL     1      51.519   3.876  17.675  0.00  0.00    +0.000 A 
ATOM      2  C   UNL     1      50.940   2.610  17.488  0.00  0.00    +0.000 A 
ATOM      3  C   UNL     1      49.579   2.483  17.218  0.00  0.00    +0.000 A 
ATOM      4  C   UNL     1      48.773   3.622  17.112  0.00  0.00    +0.000 A 
ATOM      5  C   UNL     1      49.349   4.886  17.303  0.00  0.00    +0.000 A 
ATOM      6  C   UNL     1      50.712   5.014  17.574  0.00  0.00    +0.000 A 
ENDROOT
BRANCH   1   7
ATOM      7  C   UNL     1      52.982   3.991  18.013  0.00  0.00    +0.000 C 
BRANCH   7   9
ATOM      8  C   UNL     1      54.278   2.182  19.234  0.00  0.00    +0.000 C 
ATOM      9  N   UNL     1      53.470   3.399  19.259  0.00  0.00    +0.000 N 
ATOM     10  C   UNL     1      53.185   3.900  20.544  0.00  0.00    +0.000 C 
ATOM     11  O   UNL     1      53.651   3.363  21.552  0.00  0.00    +0.000 OA
BRANCH  10  12
ATOM     12  C   UNL     1      52.353   5.126  20.771  0.00  0.00    +0.000 A 
ATOM     13  C   UNL     1      52.771   6.435  20.508  0.00  0.00    +0.000 A 
ATOM     14  C   UNL     1      51.939   7.526  20.777  0.00  0.00    +0.000 A 
ATOM     15  C   UNL     1      50.642   7.317  21.235  0.00  0.00    +0.000 A 
ATOM     16  C   UNL     1      50.176   6.018  21.420  0.00  0.00    +0.000 A 
ATOM     17  C   UNL     1      51.029   4.932  21.198  0.00  0.00    +0.000 A 
ENDBRANCH  10  12
ENDBRANCH   7   9
ENDBRANCH   1   7
BRANCH   4  18
ATOM     18  C   UNL     1      47.295   3.495  16.860  0.00  0.00    +0.000 C 
BRANCH  18  19
ATOM     19  N   UNL     1      46.863   4.466  15.886  0.00  0.00    +0.000 N 
ATOM     20  C   UNL     1      46.859   4.169  14.549  0.00  0.00    +0.000 C 
ATOM     21  O   UNL     1      47.184   3.063  14.128  0.00  0.00    +0.000 OA
ATOM     22  H   UNL     1      46.800   5.433  16.189  0.00  0.00    +0.000 HD
BRANCH  20  23
ATOM     23  C   UNL     1      46.383   5.222  13.645  0.00  0.00    +0.000 A 
ATOM     24  C   UNL     1      47.191   6.322  13.393  0.00  0.00    +0.000 A 
ATOM     25  S   UNL     1      46.518   7.430  12.287  0.00  0.00    +0.000 S 
ATOM     26  C   UNL     1      45.098   6.504  12.143  0.00  0.00    +0.000 A 
ATOM     27  N   UNL     1      44.074   6.917  11.348  0.00  0.00    +0.000 NA
ATOM     28  C   UNL     1      43.045   6.140  11.358  0.00  0.00    +0.000 A 
ATOM     29  N   UNL     1      42.948   4.980  12.083  0.00  0.00    +0.000 N 
ATOM     30  C   UNL     1      43.970   4.508  12.876  0.00  0.00    +0.000 A 
ATOM     31  O   UNL     1      43.865   3.443  13.477  0.00  0.00    +0.000 OA
ATOM     32  C   UNL     1      45.144   5.355  12.912  0.00  0.00    +0.000 A 
ATOM     33  H   UNL     1      42.116   4.412  12.037  0.00  0.00    +0.000 HD
ENDBRANCH  20  23
ENDBRANCH  18  19
ENDBRANCH   4  18
TORSDOF 6
ENDMDL
MODEL 7
REMARK VINA RESULT:    -7.559      3.256      3.967
REMARK INTER + INTRA:         -11.133
REMARK INTER:                 -10.064
REMARK INTRA:                  -1.069
REMARK UNBOUND:                -0.922
REMARK  Name = 
REMARK  7 active torsions:
REMARK  status: ('A' for Active; 'I' for Inactive)
REMARK    1  A    between atoms: C_1  and  N_2
REMARK    2  A    between atoms: N_2  and  C_3
REMARK    3  A    between atoms: C_3  and  C_4
REMARK    4  A    between atoms: C_7  and  C_8
REMARK    5  A    between atoms: C_8  and  N_9
REMARK    6  A    between atoms: C_10  and  C_12
REMARK    7  A    between atoms: C_24  and  C_26
REMARK                            x       y       z     vdW  Elec       q    Type
REMARK                         _______ _______ _______ _____ _____    ______ ____
ROOT
ATOM      1  C   UNL     1      46.395   4.548  13.276  0.00  0.00    +0.000 A 
ATOM      2  C   UNL     1      46.829   5.760  12.713  0.00  0.00    +0.000 A 
ATOM      3  C   UNL     1      47.642   6.629  13.438  0.00  0.00    +0.000 A 
ATOM      4  C   UNL     1      48.054   6.294  14.732  0.00  0.00    +0.000 A 
ATOM      5  C   UNL     1      47.617   5.087  15.296  0.00  0.00    +0.000 A 
ATOM      6  C   UNL     1      46.802   4.215  14.572  0.00  0.00    +0.000 A 
ENDROOT
BRANCH   1   7
ATOM      7  C   UNL     1      45.478   3.643  12.496  0.00  0.00    +0.000 C 
BRANCH   7   9
ATOM      8  C   UNL     1      43.210   4.723  12.866  0.00  0.00    +0.000 C 
ATOM      9  N   UNL     1      44.228   4.189  11.964  0.00  0.00    +0.000 N 
ATOM     10  C   UNL     1      43.888   4.213  10.598  0.00  0.00    +0.000 C 
ATOM     11  O   UNL     1      42.826   4.712  10.217  0.00  0.00    +0.000 OA
BRANCH  10  12
ATOM     12  C   UNL     1      44.796   3.690   9.526  0.00  0.00    +0.000 A 
ATOM     13  C   UNL     1      45.586   4.485   8.689  0.00  0.00    +0.000 A 
ATOM     14  C   UNL     1      46.384   3.914   7.694  0.00  0.00    +0.000 A 
ATOM     15  C   UNL     1      46.470   2.530   7.577  0.00  0.00    +0.000 A 
ATOM     16  C   UNL     1      45.760   1.718   8.458  0.00  0.00    +0.000 A 
ATOM     17  C   UNL     1      44.923   2.295   9.419  0.00  0.00    +0.000 A 
ENDBRANCH  10  12
ENDBRANCH   7   9
ENDBRANCH   1   7
BRANCH   4  18
ATOM     18  C   UNL     1      48.900   7.243  15.538  0.00  0.00    +0.000 C 
BRANCH  18  19
ATOM     19  N   UNL     1      48.450   7.284  16.906  0.00  0.00    +0.000 N 
ATOM     20  C   UNL     1      48.879   8.266  17.759  0.00  0.00    +0.000 C 
ATOM     21  O   UNL     1      49.627   9.166  17.390  0.00  0.00    +0.000 OA
ATOM     22  H   UNL     1      48.016   6.446  17.279  0.00  0.00    +0.000 HD
BRANCH  20  23
ATOM     23  C   UNL     1      48.346   8.225  19.126  0.00  0.00    +0.000 A 
ATOM     24  C   UNL     1      47.970   9.408  19.747  0.00  0.00    +0.000 A 
ATOM     25  S   UNL     1      47.326   9.188  21.309  0.00  0.00    +0.000 S 
ATOM     26  C   UNL     1      47.575   7.507  21.233  0.00  0.00    +0.000 A 
ATOM     27  N   UNL     1      47.253   6.707  22.285  0.00  0.00    +0.000 NA
ATOM     28  C   UNL     1      47.525   5.458  22.107  0.00  0.00    +0.000 A 
ATOM     29  N   UNL     1      48.081   4.934  20.968  0.00  0.00    +0.000 N 
ATOM     30  C   UNL     1      48.393   5.701  19.868  0.00  0.00    +0.000 A 
ATOM     31  O   UNL     1      48.848   5.191  18.849  0.00  0.00    +0.000 OA
ATOM     32  C   UNL     1      48.121   7.115  20.024  0.00  0.00    +0.000 A 
ATOM     33  H   UNL     1      48.258   3.944  20.890  0.00  0.00    +0.000 HD
ENDBRANCH  20  23
ENDBRANCH  18  19
ENDBRANCH   4  18
TORSDOF 6
ENDMDL
MODEL 8
REMARK VINA RESULT:    -7.336      3.949      8.400
REMARK INTER + INTRA:         -10.831
REMARK INTER:                  -8.757
REMARK INTRA:                  -2.074
REMARK UNBOUND:                -0.922
REMARK  Name = 
REMARK  7 active torsions:
REMARK  status: ('A' for Active; 'I' for Inactive)
REMARK    1  A    between atoms: C_1  and  N_2
REMARK    2  A    between atoms: N_2  and  C_3
REMARK    3  A    between atoms: C_3  and  C_4
REMARK    4  A    between atoms: C_7  and  C_8
REMARK    5  A    between atoms: C_8  and  N_9
REMARK    6  A    between atoms: C_10  and  C_12
REMARK    7  A    between atoms: C_24  and  C_26
REMARK                            x       y       z     vdW  Elec       q    Type
REMARK                         _______ _______ _______ _____ _____    ______ ____
ROOT
ATOM      1  C   UNL     1      49.812   7.357  17.466  0.00  0.00    +0.000 A 
ATOM      2  C   UNL     1      49.811   6.699  16.225  0.00  0.00    +0.000 A 
ATOM      3  C   UNL     1      49.155   7.255  15.127  0.00  0.00    +0.000 A 
ATOM      4  C   UNL     1      48.504   8.487  15.245  0.00  0.00    +0.000 A 
ATOM      5  C   UNL     1      48.502   9.141  16.486  0.00  0.00    +0.000 A 
ATOM      6  C   UNL     1      49.157   8.586  17.586  0.00  0.00    +0.000 A 
ENDROOT
BRANCH   1   7
ATOM      7  C   UNL     1      50.485   6.719  18.654  0.00  0.00    +0.000 C 
BRANCH   7   9
ATOM      8  C   UNL     1      49.850   7.076  21.085  0.00  0.00    +0.000 C 
ATOM      9  N   UNL     1      49.676   6.365  19.821  0.00  0.00    +0.000 N 
ATOM     10  C   UNL     1      48.725   5.326  19.845  0.00  0.00    +0.000 C 
ATOM     11  O   UNL     1      48.060   5.099  20.859  0.00  0.00    +0.000 OA
BRANCH  10  12
ATOM     12  C   UNL     1      48.424   4.473  18.650  0.00  0.00    +0.000 A 
ATOM     13  C   UNL     1      47.309   4.626  17.819  0.00  0.00    +0.000 A 
ATOM     14  C   UNL     1      47.091   3.765  16.740  0.00  0.00    +0.000 A 
ATOM     15  C   UNL     1      48.032   2.789  16.424  0.00  0.00    +0.000 A 
ATOM     16  C   UNL     1      49.192   2.678  17.185  0.00  0.00    +0.000 A 
ATOM     17  C   UNL     1      49.382   3.508  18.295  0.00  0.00    +0.000 A 
ENDBRANCH  10  12
ENDBRANCH   7   9
ENDBRANCH   1   7
BRANCH   4  18
ATOM     18  C   UNL     1      47.761   9.077  14.078  0.00  0.00    +0.000 C 
BRANCH  18  19
ATOM     19  N   UNL     1      46.684   8.210  13.674  0.00  0.00    +0.000 N 
ATOM     20  C   UNL     1      46.715   7.562  12.468  0.00  0.00    +0.000 C 
ATOM     21  O   UNL     1      47.669   7.660  11.702  0.00  0.00    +0.000 OA
ATOM     22  H   UNL     1      45.809   8.285  14.183  0.00  0.00    +0.000 HD
BRANCH  20  23
ATOM     23  C   UNL     1      45.576   6.689  12.162  0.00  0.00    +0.000 A 
ATOM     24  C   UNL     1      44.431   7.232  11.598  0.00  0.00    +0.000 A 
ATOM     25  S   UNL     1      43.220   6.082  11.258  0.00  0.00    +0.000 S 
ATOM     26  C   UNL     1      44.163   4.822  11.902  0.00  0.00    +0.000 A 
ATOM     27  N   UNL     1      43.689   3.547  11.943  0.00  0.00    +0.000 NA
ATOM     28  C   UNL     1      44.492   2.696  12.487  0.00  0.00    +0.000 A 
ATOM     29  N   UNL     1      45.731   3.002  12.987  0.00  0.00    +0.000 N 
ATOM     30  C   UNL     1      46.265   4.270  12.939  0.00  0.00    +0.000 A 
ATOM     31  O   UNL     1      47.396   4.498  13.356  0.00  0.00    +0.000 OA
ATOM     32  C   UNL     1      45.394   5.266  12.350  0.00  0.00    +0.000 A 
ATOM     33  H   UNL     1      46.314   2.284  13.391  0.00  0.00    +0.000 HD
ENDBRANCH  20  23
ENDBRANCH  18  19
ENDBRANCH   4  18
TORSDOF 6
ENDMDL
MODEL 9
REMARK VINA RESULT:    -7.278      3.712      9.120
REMARK INTER + INTRA:         -10.754
REMARK INTER:                  -8.793
REMARK INTRA:                  -1.961
REMARK UNBOUND:                -0.922
REMARK  Name = 
REMARK  7 active torsions:
REMARK  status: ('A' for Active; 'I' for Inactive)
REMARK    1  A    between atoms: C_1  and  N_2
REMARK    2  A    between atoms: N_2  and  C_3
REMARK    3  A    between atoms: C_3  and  C_4
REMARK    4  A    between atoms: C_7  and  C_8
REMARK    5  A    between atoms: C_8  and  N_9
REMARK    6  A    between atoms: C_10  and  C_12
REMARK    7  A    between atoms: C_24  and  C_26
REMARK                            x       y       z     vdW  Elec       q    Type
REMARK                         _______ _______ _______ _____ _____    ______ ____
ROOT
ATOM      1  C   UNL     1      50.203   5.368  19.159  0.00  0.00    +0.000 A 
ATOM      2  C   UNL     1      48.901   5.891  19.091  0.00  0.00    +0.000 A 
ATOM      3  C   UNL     1      47.929   5.279  18.302  0.00  0.00    +0.000 A 
ATOM      4  C   UNL     1      48.236   4.120  17.580  0.00  0.00    +0.000 A 
ATOM      5  C   UNL     1      49.537   3.600  17.644  0.00  0.00    +0.000 A 
ATOM      6  C   UNL     1      50.511   4.213  18.434  0.00  0.00    +0.000 A 
ENDROOT
BRANCH   1   7
ATOM      7  C   UNL     1      51.253   6.070  19.980  0.00  0.00    +0.000 C 
BRANCH   7   9
ATOM      8  C   UNL     1      53.790   6.147  19.950  0.00  0.00    +0.000 C 
ATOM      9  N   UNL     1      52.505   6.471  19.336  0.00  0.00    +0.000 N 
ATOM     10  C   UNL     1      52.583   7.208  18.138  0.00  0.00    +0.000 C 
ATOM     11  O   UNL     1      53.675   7.490  17.637  0.00  0.00    +0.000 OA
BRANCH  10  12
ATOM     12  C   UNL     1      51.370   7.649  17.375  0.00  0.00    +0.000 A 
ATOM     13  C   UNL     1      50.583   8.759  17.698  0.00  0.00    +0.000 A 
ATOM     14  C   UNL     1      49.450   9.082  16.946  0.00  0.00    +0.000 A 
ATOM     15  C   UNL     1      49.135   8.347  15.808  0.00  0.00    +0.000 A 
ATOM     16  C   UNL     1      49.955   7.291  15.419  0.00  0.00    +0.000 A 
ATOM     17  C   UNL     1      51.059   6.940  16.203  0.00  0.00    +0.000 A 
ENDBRANCH  10  12
ENDBRANCH   7   9
ENDBRANCH   1   7
BRANCH   4  18
ATOM     18  C   UNL     1      47.206   3.473  16.694  0.00  0.00    +0.000 C 
BRANCH  18  19
ATOM     19  N   UNL     1      46.671   4.429  15.758  0.00  0.00    +0.000 N 
ATOM     20  C   UNL     1      46.756   4.218  14.409  0.00  0.00    +0.000 C 
ATOM     21  O   UNL     1      47.253   3.197  13.941  0.00  0.00    +0.000 OA
ATOM     22  H   UNL     1      46.457   5.357  16.111  0.00  0.00    +0.000 HD
BRANCH  20  23
ATOM     23  C   UNL     1      46.163   5.245  13.545  0.00  0.00    +0.000 A 
ATOM     24  C   UNL     1      46.851   6.430  13.323  0.00  0.00    +0.000 A 
ATOM     25  S   UNL     1      46.054   7.498  12.261  0.00  0.00    +0.000 S 
ATOM     26  C   UNL     1      44.735   6.436  12.098  0.00  0.00    +0.000 A 
ATOM     27  N   UNL     1      43.665   6.767  11.326  0.00  0.00    +0.000 NA
ATOM     28  C   UNL     1      42.721   5.887  11.318  0.00  0.00    +0.000 A 
ATOM     29  N   UNL     1      42.753   4.701  12.005  0.00  0.00    +0.000 N 
ATOM     30  C   UNL     1      43.828   4.311  12.772  0.00  0.00    +0.000 A 
ATOM     31  O   UNL     1      43.840   3.222  13.337  0.00  0.00    +0.000 OA
ATOM     32  C   UNL     1      44.909   5.273  12.827  0.00  0.00    +0.000 A 
ATOM     33  H   UNL     1      41.984   4.051  11.946  0.00  0.00    +0.000 HD
ENDBRANCH  20  23
ENDBRANCH  18  19
ENDBRANCH   4  18
TORSDOF 6
ENDMDL
