MODEL 1
REMARK VINA RESULT:    -7.232      0.000      0.000
REMARK INTER + INTRA:         -14.614
REMARK INTER:                 -12.306
REMARK INTRA:                  -2.309
REMARK UNBOUND:                -2.309
REMARK  Name = 
REMARK  14 active torsions:
REMARK  status: ('A' for Active; 'I' for Inactive)
REMARK    1  A    between atoms: C_1  and  C_2
REMARK    2  A    between atoms: C_2  and  N_3
REMARK    3  A    between atoms: C_2  and  C_21
REMARK    4  A    between atoms: N_3  and  C_4
REMARK    5  A    between atoms: C_4  and  C_5
REMARK    6  A    between atoms: C_8  and  C_9
REMARK    7  A    between atoms: C_9  and  N_10
REMARK    8  A    between atoms: N_10  and  C_11
REMARK    9  A    between atoms: N_10  and  C_12
REMARK   10  A    between atoms: C_12  and  C_13
REMARK   11  A    between atoms: C_24  and  C_25
REMARK   12  A    between atoms: C_25  and  N_26
REMARK   13  A    between atoms: N_26  and  C_27
REMARK   14  A    between atoms: C_27  and  C_28
REMARK                            x       y       z     vdW  Elec       q    Type
REMARK                         _______ _______ _______ _____ _____    ______ ____
ROOT
ATOM      1  N   UNL     1      49.481   6.797  13.071  0.00  0.00    +0.000 NA
ATOM      2  H   UNL     1      50.204   6.286  12.569  0.00  0.00    +0.000 HD
ENDROOT
BRANCH   1   4
ATOM      3  C   UNL     1      48.430   8.799  12.113  0.00  0.00    +0.000 C 
ATOM      4  C   UNL     1      48.459   7.267  12.118  0.00  0.00    +0.000 C 
BRANCH   4   5
ATOM      5  C   UNL     1      47.078   6.731  12.441  0.00  0.00    +0.000 A 
ATOM      6  C   UNL     1      45.935   7.354  11.925  0.00  0.00    +0.000 A 
ATOM      7  C   UNL     1      44.670   6.803  12.145  0.00  0.00    +0.000 A 
ATOM      8  C   UNL     1      44.523   5.614  12.876  0.00  0.00    +0.000 A 
ATOM      9  C   UNL     1      45.661   5.004  13.413  0.00  0.00    +0.000 A 
ATOM     10  C   UNL     1      46.922   5.557  13.201  0.00  0.00    +0.000 A 
BRANCH   8  11
ATOM     11  C   UNL     1      43.161   4.982  13.055  0.00  0.00    +0.000 C 
BRANCH  11  12
ATOM     12  N   UNL     1      42.720   4.378  11.802  0.00  0.00    +0.000 NA
ATOM     13  H   UNL     1      42.970   5.003  11.034  0.00  0.00    +0.000 HD
BRANCH  12  14
ATOM     14  C   UNL     1      43.366   3.084  11.559  0.00  0.00    +0.000 C 
BRANCH  14  15
ATOM     15  C   UNL     1      44.159   3.095  10.263  0.00  0.00    +0.000 A 
ATOM     16  C   UNL     1      44.536   4.307   9.676  0.00  0.00    +0.000 A 
ATOM     17  C   UNL     1      45.302   4.284   8.516  0.00  0.00    +0.000 A 
ATOM     18  C   UNL     1      45.667   3.063   7.965  0.00  0.00    +0.000 A 
ATOM     19  C   UNL     1      45.245   1.907   8.601  0.00  0.00    +0.000 A 
ATOM     20  N   UNL     1      44.507   1.895   9.733  0.00  0.00    +0.000 NA
ENDBRANCH  14  15
ENDBRANCH  12  14
ENDBRANCH  11  12
ENDBRANCH   8  11
ENDBRANCH   4   5
ENDBRANCH   1   4
BRANCH   1  21
ATOM     21  C   UNL     1      50.119   7.903  13.789  0.00  0.00    +0.000 C 
BRANCH  21  22
ATOM     22  C   UNL     1      50.116   7.652  15.278  0.00  0.00    +0.000 A 
ATOM     23  C   UNL     1      48.986   7.949  16.051  0.00  0.00    +0.000 A 
ATOM     24  C   UNL     1      48.976   7.679  17.421  0.00  0.00    +0.000 A 
ATOM     25  C   UNL     1      50.087   7.084  18.036  0.00  0.00    +0.000 A 
ATOM     26  C   UNL     1      51.226   6.815  17.268  0.00  0.00    +0.000 A 
ATOM     27  C   UNL     1      51.240   7.097  15.903  0.00  0.00    +0.000 A 
BRANCH  25  28
ATOM     28  C   UNL     1      50.053   6.715  19.504  0.00  0.00    +0.000 C 
BRANCH  28  29
ATOM     29  N   UNL     1      50.230   5.265  19.745  0.00  0.00    +0.000 NA
ATOM     30  C   UNL     1      50.935   5.012  21.007  0.00  0.00    +0.000 C 
BRANCH  29  31
ATOM     31  C   UNL     1      48.916   4.583  19.768  0.00  0.00    +0.000 C 
BRANCH  31  32
ATOM     32  C   UNL     1      48.509   3.999  18.433  0.00  0.00    +0.000 A 
ATOM     33  C   UNL     1      49.325   3.071  17.790  0.00  0.00    +0.000 A 
ATOM     34  N   UNL     1      49.058   2.588  16.553  0.00  0.00    +0.000 NA
ATOM     35  C   UNL     1      47.938   3.074  15.976  0.00  0.00    +0.000 A 
ATOM     36  C   UNL     1      47.112   3.985  16.610  0.00  0.00    +0.000 A 
ATOM     37  N   UNL     1      47.373   4.467  17.847  0.00  0.00    +0.000 NA
ENDBRANCH  31  32
ENDBRANCH  29  31
ENDBRANCH  28  29
ENDBRANCH  25  28
ENDBRANCH  21  22
ENDBRANCH   1  21
TORSDOF 12
ENDMDL
MODEL 2
REMARK VINA RESULT:    -7.197      1.659      2.232
REMARK INTER + INTRA:         -14.554
REMARK INTER:                 -12.778
REMARK INTRA:                  -1.776
REMARK UNBOUND:                -2.309
REMARK  Name = 
REMARK  14 active torsions:
REMARK  status: ('A' for Active; 'I' for Inactive)
REMARK    1  A    between atoms: C_1  and  C_2
REMARK    2  A    between atoms: C_2  and  N_3
REMARK    3  A    between atoms: C_2  and  C_21
REMARK    4  A    between atoms: N_3  and  C_4
REMARK    5  A    between atoms: C_4  and  C_5
REMARK    6  A    between atoms: C_8  and  C_9
REMARK    7  A    between atoms: C_9  and  N_10
REMARK    8  A    between atoms: N_10  and  C_11
REMARK    9  A    between atoms: N_10  and  C_12
REMARK   10  A    between atoms: C_12  and  C_13
REMARK   11  A    between atoms: C_24  and  C_25
REMARK   12  A    between atoms: C_25  and  N_26
REMARK   13  A    between atoms: N_26  and  C_27
REMARK   14  A    between atoms: C_27  and  C_28
REMARK                            x       y       z     vdW  Elec       q    Type
REMARK                         _______ _______ _______ _____ _____    ______ ____
ROOT
ATOM      1  N   UNL     1      47.353   7.998  14.083  0.00  0.00    +0.000 NA
ATOM      2  H   UNL     1      47.056   7.427  14.872  0.00  0.00    +0.000 HD
ENDROOT
BRANCH   1   4
ATOM      3  C   UNL     1      48.332   7.976  11.832  0.00  0.00    +0.000 C 
ATOM      4  C   UNL     1      47.756   7.124  12.968  0.00  0.00    +0.000 C 
BRANCH   4   5
ATOM      5  C   UNL     1      46.606   6.285  12.445  0.00  0.00    +0.000 A 
ATOM      6  C   UNL     1      46.262   6.318  11.088  0.00  0.00    +0.000 A 
ATOM      7  C   UNL     1      45.265   5.474  10.593  0.00  0.00    +0.000 A 
ATOM      8  C   UNL     1      44.600   4.574  11.440  0.00  0.00    +0.000 A 
ATOM      9  C   UNL     1      44.927   4.557  12.799  0.00  0.00    +0.000 A 
ATOM     10  C   UNL     1      45.914   5.404  13.296  0.00  0.00    +0.000 A 
BRANCH   8  11
ATOM     11  C   UNL     1      43.571   3.613  10.889  0.00  0.00    +0.000 C 
BRANCH  11  12
ATOM     12  N   UNL     1      43.911   3.244   9.519  0.00  0.00    +0.000 NA
ATOM     13  H   UNL     1      44.429   4.015   9.094  0.00  0.00    +0.000 HD
BRANCH  12  14
ATOM     14  C   UNL     1      44.759   2.048   9.466  0.00  0.00    +0.000 C 
BRANCH  14  15
ATOM     15  C   UNL     1      45.747   2.119   8.315  0.00  0.00    +0.000 A 
ATOM     16  C   UNL     1      45.905   3.306   7.591  0.00  0.00    +0.000 A 
ATOM     17  C   UNL     1      46.852   3.354   6.574  0.00  0.00    +0.000 A 
ATOM     18  C   UNL     1      47.610   2.224   6.296  0.00  0.00    +0.000 A 
ATOM     19  C   UNL     1      47.387   1.085   7.051  0.00  0.00    +0.000 A 
ATOM     20  N   UNL     1      46.481   1.008   8.052  0.00  0.00    +0.000 NA
ENDBRANCH  14  15
ENDBRANCH  12  14
ENDBRANCH  11  12
ENDBRANCH   8  11
ENDBRANCH   4   5
ENDBRANCH   1   4
BRANCH   1  21
ATOM     21  C   UNL     1      48.447   8.863  14.533  0.00  0.00    +0.000 C 
BRANCH  21  22
ATOM     22  C   UNL     1      49.377   8.118  15.461  0.00  0.00    +0.000 A 
ATOM     23  C   UNL     1      50.615   7.646  15.004  0.00  0.00    +0.000 A 
ATOM     24  C   UNL     1      51.488   6.991  15.876  0.00  0.00    +0.000 A 
ATOM     25  C   UNL     1      51.146   6.819  17.225  0.00  0.00    +0.000 A 
ATOM     26  C   UNL     1      49.896   7.264  17.673  0.00  0.00    +0.000 A 
ATOM     27  C   UNL     1      49.021   7.906  16.798  0.00  0.00    +0.000 A 
BRANCH  25  28
ATOM     28  C   UNL     1      52.119   6.181  18.193  0.00  0.00    +0.000 C 
BRANCH  28  29
ATOM     29  N   UNL     1      52.472   4.788  17.832  0.00  0.00    +0.000 NA
ATOM     30  C   UNL     1      53.902   4.528  18.031  0.00  0.00    +0.000 C 
BRANCH  29  31
ATOM     31  C   UNL     1      51.679   3.831  18.637  0.00  0.00    +0.000 C 
BRANCH  31  32
ATOM     32  C   UNL     1      50.483   3.262  17.904  0.00  0.00    +0.000 A 
ATOM     33  C   UNL     1      50.644   2.215  16.999  0.00  0.00    +0.000 A 
ATOM     34  N   UNL     1      49.627   1.731  16.246  0.00  0.00    +0.000 NA
ATOM     35  C   UNL     1      48.436   2.340  16.430  0.00  0.00    +0.000 A 
ATOM     36  C   UNL     1      48.261   3.370  17.337  0.00  0.00    +0.000 A 
ATOM     37  N   UNL     1      49.273   3.854  18.093  0.00  0.00    +0.000 NA
ENDBRANCH  31  32
ENDBRANCH  29  31
ENDBRANCH  28  29
ENDBRANCH  25  28
ENDBRANCH  21  22
ENDBRANCH   1  21
TORSDOF 12
ENDMDL
MODEL 3
REMARK VINA RESULT:    -6.741      1.276      8.119
REMARK INTER + INTRA:         -13.779
REMARK INTER:                 -11.541
REMARK INTRA:                  -2.238
REMARK UNBOUND:                -2.309
REMARK  Name = 
REMARK  14 active torsions:
REMARK  status: ('A' for Active; 'I' for Inactive)
REMARK    1  A    between atoms: C_1  and  C_2
REMARK    2  A    between atoms: C_2  and  N_3
REMARK    3  A    between atoms: C_2  and  C_21
REMARK    4  A    between atoms: N_3  and  C_4
REMARK    5  A    between atoms: C_4  and  C_5
REMARK    6  A    between atoms: C_8  and  C_9
REMARK    7  A    between atoms: C_9  and  N_10
REMARK    8  A    between atoms: N_10  and  C_11
REMARK    9  A    between atoms: N_10  and  C_12
REMARK   10  A    between atoms: C_12  and  C_13
REMARK   11  A    between atoms: C_24  and  C_25
REMARK   12  A    between atoms: C_25  and  N_26
REMARK   13  A    between atoms: N_26  and  C_27
REMARK   14  A    between atoms: C_27  and  C_28
REMARK                            x       y       z     vdW  Elec       q    Type
REMARK                         _______ _______ _______ _____ _____    ______ ____
ROOT
ATOM      1  N   UNL     1      50.154   7.042  14.060  0.00  0.00    +0.000 NA
ATOM      2  H   UNL     1      49.501   6.450  14.569  0.00  0.00    +0.000 HD
ENDROOT
BRANCH   1   4
ATOM      3  C   UNL     1      52.241   7.995  14.935  0.00  0.00    +0.000 C 
ATOM      4  C   UNL     1      50.710   8.058  14.971  0.00  0.00    +0.000 C 
BRANCH   4   5
ATOM      5  C   UNL     1      50.226   7.883  16.397  0.00  0.00    +0.000 A 
ATOM      6  C   UNL     1      48.872   8.046  16.715  0.00  0.00    +0.000 A 
ATOM      7  C   UNL     1      48.415   7.791  18.011  0.00  0.00    +0.000 A 
ATOM      8  C   UNL     1      49.299   7.359  19.011  0.00  0.00    +0.000 A 
ATOM      9  C   UNL     1      50.655   7.219  18.702  0.00  0.00    +0.000 A 
ATOM     10  C   UNL     1      51.114   7.482  17.413  0.00  0.00    +0.000 A 
BRANCH   8  11
ATOM     11  C   UNL     1      48.792   7.018  20.394  0.00  0.00    +0.000 C 
BRANCH  11  12
ATOM     12  N   UNL     1      47.892   5.870  20.329  0.00  0.00    +0.000 NA
ATOM     13  H   UNL     1      47.264   5.994  19.534  0.00  0.00    +0.000 HD
BRANCH  12  14
ATOM     14  C   UNL     1      48.621   4.612  20.136  0.00  0.00    +0.000 C 
BRANCH  14  15
ATOM     15  C   UNL     1      48.376   4.036  18.752  0.00  0.00    +0.000 A 
ATOM     16  C   UNL     1      47.300   4.486  17.980  0.00  0.00    +0.000 A 
ATOM     17  C   UNL     1      47.130   3.975  16.698  0.00  0.00    +0.000 A 
ATOM     18  C   UNL     1      48.024   3.027  16.219  0.00  0.00    +0.000 A 
ATOM     19  C   UNL     1      49.058   2.626  17.049  0.00  0.00    +0.000 A 
ATOM     20  N   UNL     1      49.256   3.109  18.295  0.00  0.00    +0.000 NA
ENDBRANCH  14  15
ENDBRANCH  12  14
ENDBRANCH  11  12
ENDBRANCH   8  11
ENDBRANCH   4   5
ENDBRANCH   1   4
BRANCH   1  21
ATOM     21  C   UNL     1      49.440   7.641  12.930  0.00  0.00    +0.000 C 
BRANCH  21  22
ATOM     22  C   UNL     1      48.134   6.927  12.677  0.00  0.00    +0.000 A 
ATOM     23  C   UNL     1      47.743   5.846  13.480  0.00  0.00    +0.000 A 
ATOM     24  C   UNL     1      46.516   5.214  13.265  0.00  0.00    +0.000 A 
ATOM     25  C   UNL     1      45.649   5.667  12.261  0.00  0.00    +0.000 A 
ATOM     26  C   UNL     1      46.054   6.727  11.441  0.00  0.00    +0.000 A 
ATOM     27  C   UNL     1      47.285   7.350  11.647  0.00  0.00    +0.000 A 
BRANCH  25  28
ATOM     28  C   UNL     1      44.285   5.038  12.074  0.00  0.00    +0.000 C 
BRANCH  28  29
ATOM     29  N   UNL     1      44.328   3.772  11.306  0.00  0.00    +0.000 NA
ATOM     30  C   UNL     1      43.399   2.779  11.857  0.00  0.00    +0.000 C 
BRANCH  29  31
ATOM     31  C   UNL     1      43.998   4.022   9.884  0.00  0.00    +0.000 C 
BRANCH  31  32
ATOM     32  C   UNL     1      45.009   3.450   8.914  0.00  0.00    +0.000 A 
ATOM     33  C   UNL     1      45.332   2.095   8.950  0.00  0.00    +0.000 A 
ATOM     34  N   UNL     1      46.296   1.548   8.172  0.00  0.00    +0.000 NA
ATOM     35  C   UNL     1      46.933   2.413   7.353  0.00  0.00    +0.000 A 
ATOM     36  C   UNL     1      46.611   3.758   7.298  0.00  0.00    +0.000 A 
ATOM     37  N   UNL     1      45.646   4.307   8.072  0.00  0.00    +0.000 NA
ENDBRANCH  31  32
ENDBRANCH  29  31
ENDBRANCH  28  29
ENDBRANCH  25  28
ENDBRANCH  21  22
ENDBRANCH   1  21
TORSDOF 12
ENDMDL
MODEL 4
REMARK VINA RESULT:    -6.716      1.642      2.328
REMARK INTER + INTRA:         -13.736
REMARK INTER:                 -11.239
REMARK INTRA:                  -2.497
REMARK UNBOUND:                -2.309
REMARK  Name = 
REMARK  14 active torsions:
REMARK  status: ('A' for Active; 'I' for Inactive)
REMARK    1  A    between atoms: C_1  and  C_2
REMARK    2  A    between atoms: C_2  and  N_3
REMARK    3  A    between atoms: C_2  and  C_21
REMARK    4  A    between atoms: N_3  and  C_4
REMARK    5  A    between atoms: C_4  and  C_5
REMARK    6  A    between atoms: C_8  and  C_9
REMARK    7  A    between atoms: C_9  and  N_10
REMARK    8  A    between atoms: N_10  and  C_11
REMARK    9  A    between atoms: N_10  and  C_12
REMARK   10  A    between atoms: C_12  and  C_13
REMARK   11  A    between atoms: C_24  and  C_25
REMARK   12  A    between atoms: C_25  and  N_26
REMARK   13  A    between atoms: N_26  and  C_27
REMARK   14  A    between atoms: C_27  and  C_28
REMARK                            x       y       z     vdW  Elec       q    Type
REMARK                         _______ _______ _______ _____ _____    ______ ____
ROOT
ATOM      1  N   UNL     1      50.365   9.390  13.050  0.00  0.00    +0.000 NA
ATOM      2  H   UNL     1      49.399   9.694  13.148  0.00  0.00    +0.000 HD
ENDROOT
BRANCH   1   4
ATOM      3  C   UNL     1      51.055   7.943  11.190  0.00  0.00    +0.000 C 
ATOM      4  C   UNL     1      50.397   7.996  12.573  0.00  0.00    +0.000 C 
BRANCH   4   5
ATOM      5  C   UNL     1      49.015   7.376  12.504  0.00  0.00    +0.000 A 
ATOM      6  C   UNL     1      48.217   7.543  11.366  0.00  0.00    +0.000 A 
ATOM      7  C   UNL     1      46.984   6.892  11.268  0.00  0.00    +0.000 A 
ATOM      8  C   UNL     1      46.531   6.054  12.298  0.00  0.00    +0.000 A 
ATOM      9  C   UNL     1      47.316   5.906  13.445  0.00  0.00    +0.000 A 
ATOM     10  C   UNL     1      48.541   6.561  13.549  0.00  0.00    +0.000 A 
BRANCH   8  11
ATOM     11  C   UNL     1      45.229   5.296  12.160  0.00  0.00    +0.000 C 
BRANCH  11  12
ATOM     12  N   UNL     1      44.475   5.798  11.015  0.00  0.00    +0.000 NA
ATOM     13  H   UNL     1      45.131   6.215  10.352  0.00  0.00    +0.000 HD
BRANCH  12  14
ATOM     14  C   UNL     1      43.753   4.727  10.321  0.00  0.00    +0.000 C 
BRANCH  14  15
ATOM     15  C   UNL     1      44.680   3.920   9.428  0.00  0.00    +0.000 A 
ATOM     16  C   UNL     1      44.730   2.527   9.536  0.00  0.00    +0.000 A 
ATOM     17  C   UNL     1      45.552   1.813   8.672  0.00  0.00    +0.000 A 
ATOM     18  C   UNL     1      46.309   2.498   7.730  0.00  0.00    +0.000 A 
ATOM     19  C   UNL     1      46.211   3.879   7.693  0.00  0.00    +0.000 A 
ATOM     20  N   UNL     1      45.415   4.602   8.513  0.00  0.00    +0.000 NA
ENDBRANCH  14  15
ENDBRANCH  12  14
ENDBRANCH  11  12
ENDBRANCH   8  11
ENDBRANCH   4   5
ENDBRANCH   1   4
BRANCH   1  21
ATOM     21  C   UNL     1      51.028   9.549  14.347  0.00  0.00    +0.000 C 
BRANCH  21  22
ATOM     22  C   UNL     1      50.120   9.115  15.473  0.00  0.00    +0.000 A 
ATOM     23  C   UNL     1      50.500   8.082  16.340  0.00  0.00    +0.000 A 
ATOM     24  C   UNL     1      49.673   7.711  17.403  0.00  0.00    +0.000 A 
ATOM     25  C   UNL     1      48.463   8.383  17.629  0.00  0.00    +0.000 A 
ATOM     26  C   UNL     1      48.071   9.394  16.743  0.00  0.00    +0.000 A 
ATOM     27  C   UNL     1      48.891   9.755  15.675  0.00  0.00    +0.000 A 
BRANCH  25  28
ATOM     28  C   UNL     1      47.599   8.040  18.824  0.00  0.00    +0.000 C 
BRANCH  28  29
ATOM     29  N   UNL     1      47.919   6.719  19.413  0.00  0.00    +0.000 NA
ATOM     30  C   UNL     1      47.863   6.758  20.879  0.00  0.00    +0.000 C 
BRANCH  29  31
ATOM     31  C   UNL     1      46.980   5.690  18.910  0.00  0.00    +0.000 C 
BRANCH  31  32
ATOM     32  C   UNL     1      47.641   4.627  18.059  0.00  0.00    +0.000 A 
ATOM     33  C   UNL     1      47.043   4.200  16.875  0.00  0.00    +0.000 A 
ATOM     34  N   UNL     1      47.539   3.188  16.123  0.00  0.00    +0.000 NA
ATOM     35  C   UNL     1      48.661   2.612  16.605  0.00  0.00    +0.000 A 
ATOM     36  C   UNL     1      49.273   3.038  17.771  0.00  0.00    +0.000 A 
ATOM     37  N   UNL     1      48.782   4.050  18.523  0.00  0.00    +0.000 NA
ENDBRANCH  31  32
ENDBRANCH  29  31
ENDBRANCH  28  29
ENDBRANCH  25  28
ENDBRANCH  21  22
ENDBRANCH   1  21
TORSDOF 12
ENDMDL
MODEL 5
REMARK VINA RESULT:    -6.078      5.931     10.756
REMARK INTER + INTRA:         -12.650
REMARK INTER:                 -11.223
REMARK INTRA:                  -1.427
REMARK UNBOUND:                -2.309
REMARK  Name = 
REMARK  14 active torsions:
REMARK  status: ('A' for Active; 'I' for Inactive)
REMARK    1  A    between atoms: C_1  and  C_2
REMARK    2  A    between atoms: C_2  and  N_3
REMARK    3  A    between atoms: C_2  and  C_21
REMARK    4  A    between atoms: N_3  and  C_4
REMARK    5  A    between atoms: C_4  and  C_5
REMARK    6  A    between atoms: C_8  and  C_9
REMARK    7  A    between atoms: C_9  and  N_10
REMARK    8  A    between atoms: N_10  and  C_11
REMARK    9  A    between atoms: N_10  and  C_12
REMARK   10  A    between atoms: C_12  and  C_13
REMARK   11  A    between atoms: C_24  and  C_25
REMARK   12  A    between atoms: C_25  and  N_26
REMARK   13  A    between atoms: N_26  and  C_27
REMARK   14  A    between atoms: C_27  and  C_28
REMARK                            x       y       z     vdW  Elec       q    Type
REMARK                         _______ _______ _______ _____ _____    ______ ____
ROOT
ATOM      1  N   UNL     1      47.578   0.838   5.208  0.00  0.00    +0.000 NA
ATOM      2  H   UNL     1      48.520   0.501   5.391  0.00  0.00    +0.000 HD
ENDROOT
BRANCH   1   4
ATOM      3  C   UNL     1      45.895   1.264   3.472  0.00  0.00    +0.000 C 
ATOM      4  C   UNL     1      47.229   0.585   3.799  0.00  0.00    +0.000 C 
BRANCH   4   5
ATOM      5  C   UNL     1      47.138  -0.895   3.482  0.00  0.00    +0.000 A 
ATOM      6  C   UNL     1      47.653  -1.398   2.281  0.00  0.00    +0.000 A 
ATOM      7  C   UNL     1      47.653  -2.774   2.035  0.00  0.00    +0.000 A 
ATOM      8  C   UNL     1      47.150  -3.673   2.988  0.00  0.00    +0.000 A 
ATOM      9  C   UNL     1      46.614  -3.171   4.177  0.00  0.00    +0.000 A 
ATOM     10  C   UNL     1      46.604  -1.799   4.420  0.00  0.00    +0.000 A 
BRANCH   8  11
ATOM     11  C   UNL     1      47.215  -5.165   2.749  0.00  0.00    +0.000 C 
BRANCH  11  12
ATOM     12  N   UNL     1      47.289  -5.875   4.022  0.00  0.00    +0.000 NA
ATOM     13  H   UNL     1      46.867  -6.797   3.905  0.00  0.00    +0.000 HD
BRANCH  12  14
ATOM     14  C   UNL     1      48.675  -6.067   4.464  0.00  0.00    +0.000 C 
BRANCH  14  15
ATOM     15  C   UNL     1      48.771  -6.133   5.978  0.00  0.00    +0.000 A 
ATOM     16  C   UNL     1      47.612  -6.116   6.761  0.00  0.00    +0.000 A 
ATOM     17  C   UNL     1      47.729  -6.227   8.142  0.00  0.00    +0.000 A 
ATOM     18  C   UNL     1      48.991  -6.343   8.710  0.00  0.00    +0.000 A 
ATOM     19  C   UNL     1      50.090  -6.343   7.868  0.00  0.00    +0.000 A 
ATOM     20  N   UNL     1      50.009  -6.245   6.522  0.00  0.00    +0.000 NA
ENDBRANCH  14  15
ENDBRANCH  12  14
ENDBRANCH  11  12
ENDBRANCH   8  11
ENDBRANCH   4   5
ENDBRANCH   1   4
BRANCH   1  21
ATOM     21  C   UNL     1      47.529   2.264   5.544  0.00  0.00    +0.000 C 
BRANCH  21  22
ATOM     22  C   UNL     1      46.721   2.495   6.798  0.00  0.00    +0.000 A 
ATOM     23  C   UNL     1      46.260   3.777   7.126  0.00  0.00    +0.000 A 
ATOM     24  C   UNL     1      45.480   3.978   8.267  0.00  0.00    +0.000 A 
ATOM     25  C   UNL     1      45.128   2.895   9.086  0.00  0.00    +0.000 A 
ATOM     26  C   UNL     1      45.613   1.620   8.773  0.00  0.00    +0.000 A 
ATOM     27  C   UNL     1      46.403   1.423   7.641  0.00  0.00    +0.000 A 
BRANCH  25  28
ATOM     28  C   UNL     1      44.218   3.093  10.280  0.00  0.00    +0.000 C 
BRANCH  28  29
ATOM     29  N   UNL     1      44.392   4.411  10.933  0.00  0.00    +0.000 NA
ATOM     30  C   UNL     1      43.115   5.123  11.052  0.00  0.00    +0.000 C 
BRANCH  29  31
ATOM     31  C   UNL     1      44.992   4.244  12.276  0.00  0.00    +0.000 C 
BRANCH  31  32
ATOM     32  C   UNL     1      46.201   5.122  12.517  0.00  0.00    +0.000 A 
ATOM     33  C   UNL     1      46.980   4.952  13.660  0.00  0.00    +0.000 A 
ATOM     34  N   UNL     1      48.015   5.768  13.973  0.00  0.00    +0.000 NA
ATOM     35  C   UNL     1      48.241   6.771  13.097  0.00  0.00    +0.000 A 
ATOM     36  C   UNL     1      47.484   6.940  11.951  0.00  0.00    +0.000 A 
ATOM     37  N   UNL     1      46.452   6.126  11.633  0.00  0.00    +0.000 NA
ENDBRANCH  31  32
ENDBRANCH  29  31
ENDBRANCH  28  29
ENDBRANCH  25  28
ENDBRANCH  21  22
ENDBRANCH   1  21
TORSDOF 12
ENDMDL
MODEL 6
REMARK VINA RESULT:    -5.862      1.301      7.718
REMARK INTER + INTRA:         -12.283
REMARK INTER:                 -10.774
REMARK INTRA:                  -1.509
REMARK UNBOUND:                -2.309
REMARK  Name = 
REMARK  14 active torsions:
REMARK  status: ('A' for Active; 'I' for Inactive)
REMARK    1  A    between atoms: C_1  and  C_2
REMARK    2  A    between atoms: C_2  and  N_3
REMARK    3  A    between atoms: C_2  and  C_21
REMARK    4  A    between atoms: N_3  and  C_4
REMARK    5  A    between atoms: C_4  and  C_5
REMARK    6  A    between atoms: C_8  and  C_9
REMARK    7  A    between atoms: C_9  and  N_10
REMARK    8  A    between atoms: N_10  and  C_11
REMARK    9  A    between atoms: N_10  and  C_12
REMARK   10  A    between atoms: C_12  and  C_13
REMARK   11  A    between atoms: C_24  and  C_25
REMARK   12  A    between atoms: C_25  and  N_26
REMARK   13  A    between atoms: N_26  and  C_27
REMARK   14  A    between atoms: C_27  and  C_28
REMARK                            x       y       z     vdW  Elec       q    Type
REMARK                         _______ _______ _______ _____ _____    ______ ____
ROOT
ATOM      1  N   UNL     1      49.963   7.502  12.375  0.00  0.00    +0.000 NA
ATOM      2  H   UNL     1      49.711   6.638  12.849  0.00  0.00    +0.000 HD
ENDROOT
BRANCH   1   4
ATOM      3  C   UNL     1      51.992   8.423  13.406  0.00  0.00    +0.000 C 
ATOM      4  C   UNL     1      50.461   8.477  13.361  0.00  0.00    +0.000 C 
BRANCH   4   5
ATOM      5  C   UNL     1      49.901   8.234  14.749  0.00  0.00    +0.000 A 
ATOM      6  C   UNL     1      50.403   7.200  15.547  0.00  0.00    +0.000 A 
ATOM      7  C   UNL     1      49.952   7.039  16.860  0.00  0.00    +0.000 A 
ATOM      8  C   UNL     1      48.999   7.914  17.403  0.00  0.00    +0.000 A 
ATOM      9  C   UNL     1      48.479   8.932  16.600  0.00  0.00    +0.000 A 
ATOM     10  C   UNL     1      48.921   9.088  15.288  0.00  0.00    +0.000 A 
BRANCH   8  11
ATOM     11  C   UNL     1      48.563   7.780  18.845  0.00  0.00    +0.000 C 
BRANCH  11  12
ATOM     12  N   UNL     1      47.249   7.151  18.917  0.00  0.00    +0.000 NA
ATOM     13  H   UNL     1      46.898   7.023  17.966  0.00  0.00    +0.000 HD
BRANCH  12  14
ATOM     14  C   UNL     1      47.305   5.832  19.557  0.00  0.00    +0.000 C 
BRANCH  14  15
ATOM     15  C   UNL     1      47.808   4.769  18.594  0.00  0.00    +0.000 A 
ATOM     16  C   UNL     1      47.096   4.483  17.425  0.00  0.00    +0.000 A 
ATOM     17  C   UNL     1      47.606   3.539  16.540  0.00  0.00    +0.000 A 
ATOM     18  C   UNL     1      48.801   2.899  16.841  0.00  0.00    +0.000 A 
ATOM     19  C   UNL     1      49.440   3.232  18.024  0.00  0.00    +0.000 A 
ATOM     20  N   UNL     1      48.976   4.150  18.901  0.00  0.00    +0.000 NA
ENDBRANCH  14  15
ENDBRANCH  12  14
ENDBRANCH  11  12
ENDBRANCH   8  11
ENDBRANCH   4   5
ENDBRANCH   1   4
BRANCH   1  21
ATOM     21  C   UNL     1      48.780   7.991  11.660  0.00  0.00    +0.000 C 
BRANCH  21  22
ATOM     22  C   UNL     1      47.532   7.294  12.144  0.00  0.00    +0.000 A 
ATOM     23  C   UNL     1      46.263   7.794  11.822  0.00  0.00    +0.000 A 
ATOM     24  C   UNL     1      45.111   7.124  12.240  0.00  0.00    +0.000 A 
ATOM     25  C   UNL     1      45.210   5.929  12.968  0.00  0.00    +0.000 A 
ATOM     26  C   UNL     1      46.478   5.447  13.315  0.00  0.00    +0.000 A 
ATOM     27  C   UNL     1      47.627   6.124  12.908  0.00  0.00    +0.000 A 
BRANCH  25  28
ATOM     28  C   UNL     1      43.968   5.156  13.357  0.00  0.00    +0.000 C 
BRANCH  28  29
ATOM     29  N   UNL     1      43.583   4.132  12.358  0.00  0.00    +0.000 NA
ATOM     30  C   UNL     1      42.903   4.735  11.207  0.00  0.00    +0.000 C 
BRANCH  29  31
ATOM     31  C   UNL     1      44.778   3.391  11.894  0.00  0.00    +0.000 C 
BRANCH  31  32
ATOM     32  C   UNL     1      44.954   3.400  10.391  0.00  0.00    +0.000 A 
ATOM     33  C   UNL     1      45.428   4.540   9.744  0.00  0.00    +0.000 A 
ATOM     34  N   UNL     1      45.516   4.636   8.395  0.00  0.00    +0.000 NA
ATOM     35  C   UNL     1      45.106   3.545   7.713  0.00  0.00    +0.000 A 
ATOM     36  C   UNL     1      44.649   2.403   8.345  0.00  0.00    +0.000 A 
ATOM     37  N   UNL     1      44.562   2.301   9.692  0.00  0.00    +0.000 NA
ENDBRANCH  31  32
ENDBRANCH  29  31
ENDBRANCH  28  29
ENDBRANCH  25  28
ENDBRANCH  21  22
ENDBRANCH   1  21
TORSDOF 12
ENDMDL
MODEL 7
REMARK VINA RESULT:    -5.050      3.627      5.969
REMARK INTER + INTRA:         -10.901
REMARK INTER:                  -9.175
REMARK INTRA:                  -1.726
REMARK UNBOUND:                -2.309
REMARK  Name = 
REMARK  14 active torsions:
REMARK  status: ('A' for Active; 'I' for Inactive)
REMARK    1  A    between atoms: C_1  and  C_2
REMARK    2  A    between atoms: C_2  and  N_3
REMARK    3  A    between atoms: C_2  and  C_21
REMARK    4  A    between atoms: N_3  and  C_4
REMARK    5  A    between atoms: C_4  and  C_5
REMARK    6  A    between atoms: C_8  and  C_9
REMARK    7  A    between atoms: C_9  and  N_10
REMARK    8  A    between atoms: N_10  and  C_11
REMARK    9  A    between atoms: N_10  and  C_12
REMARK   10  A    between atoms: C_12  and  C_13
REMARK   11  A    between atoms: C_24  and  C_25
REMARK   12  A    between atoms: C_25  and  N_26
REMARK   13  A    between atoms: N_26  and  C_27
REMARK   14  A    between atoms: C_27  and  C_28
REMARK                            x       y       z     vdW  Elec       q    Type
REMARK                         _______ _______ _______ _____ _____    ______ ____
ROOT
ATOM      1  N   UNL     1      47.201   4.717  13.676  0.00  0.00    +0.000 NA
ATOM      2  H   UNL     1      47.691   5.486  14.127  0.00  0.00    +0.000 HD
ENDROOT
BRANCH   1   4
ATOM      3  C   UNL     1      45.322   4.238  12.169  0.00  0.00    +0.000 C 
ATOM      4  C   UNL     1      45.856   5.162  13.269  0.00  0.00    +0.000 C 
BRANCH   4   5
ATOM      5  C   UNL     1      45.845   6.597  12.779  0.00  0.00    +0.000 A 
ATOM      6  C   UNL     1      44.849   7.041  11.901  0.00  0.00    +0.000 A 
ATOM      7  C   UNL     1      44.787   8.386  11.526  0.00  0.00    +0.000 A 
ATOM      8  C   UNL     1      45.711   9.314  12.030  0.00  0.00    +0.000 A 
ATOM      9  C   UNL     1      46.720   8.868  12.887  0.00  0.00    +0.000 A 
ATOM     10  C   UNL     1      46.790   7.526  13.254  0.00  0.00    +0.000 A 
BRANCH   8  11
ATOM     11  C   UNL     1      45.600  10.781  11.678  0.00  0.00    +0.000 C 
BRANCH  11  12
ATOM     12  N   UNL     1      44.568  10.978  10.665  0.00  0.00    +0.000 NA
ATOM     13  H   UNL     1      43.981  10.143  10.633  0.00  0.00    +0.000 HD
BRANCH  12  14
ATOM     14  C   UNL     1      43.706  12.123  10.974  0.00  0.00    +0.000 C 
BRANCH  14  15
ATOM     15  C   UNL     1      42.296  11.678  11.324  0.00  0.00    +0.000 A 
ATOM     16  C   UNL     1      41.684  10.644  10.609  0.00  0.00    +0.000 A 
ATOM     17  C   UNL     1      40.412  10.227  10.983  0.00  0.00    +0.000 A 
ATOM     18  C   UNL     1      39.777  10.850  12.050  0.00  0.00    +0.000 A 
ATOM     19  C   UNL     1      40.447  11.873  12.701  0.00  0.00    +0.000 A 
ATOM     20  N   UNL     1      41.686  12.296  12.367  0.00  0.00    +0.000 NA
ENDBRANCH  14  15
ENDBRANCH  12  14
ENDBRANCH  11  12
ENDBRANCH   8  11
ENDBRANCH   4   5
ENDBRANCH   1   4
BRANCH   1  21
ATOM     21  C   UNL     1      47.152   3.594  14.616  0.00  0.00    +0.000 C 
BRANCH  21  22
ATOM     22  C   UNL     1      47.689   3.998  15.968  0.00  0.00    +0.000 A 
ATOM     23  C   UNL     1      47.757   3.072  17.017  0.00  0.00    +0.000 A 
ATOM     24  C   UNL     1      48.290   3.442  18.254  0.00  0.00    +0.000 A 
ATOM     25  C   UNL     1      48.786   4.738  18.454  0.00  0.00    +0.000 A 
ATOM     26  C   UNL     1      48.690   5.671  17.414  0.00  0.00    +0.000 A 
ATOM     27  C   UNL     1      48.146   5.304  16.184  0.00  0.00    +0.000 A 
BRANCH  25  28
ATOM     28  C   UNL     1      49.437   5.123  19.765  0.00  0.00    +0.000 C 
BRANCH  28  29
ATOM     29  N   UNL     1      48.525   5.855  20.675  0.00  0.00    +0.000 NA
ATOM     30  C   UNL     1      48.210   5.063  21.869  0.00  0.00    +0.000 C 
BRANCH  29  31
ATOM     31  C   UNL     1      49.130   7.143  21.083  0.00  0.00    +0.000 C 
BRANCH  31  32
ATOM     32  C   UNL     1      48.541   8.344  20.374  0.00  0.00    +0.000 A 
ATOM     33  C   UNL     1      47.365   8.931  20.839  0.00  0.00    +0.000 A 
ATOM     34  N   UNL     1      46.743   9.945  20.192  0.00  0.00    +0.000 NA
ATOM     35  C   UNL     1      47.341  10.351  19.051  0.00  0.00    +0.000 A 
ATOM     36  C   UNL     1      48.516   9.786  18.587  0.00  0.00    +0.000 A 
ATOM     37  N   UNL     1      49.142   8.775  19.232  0.00  0.00    +0.000 NA
ENDBRANCH  31  32
ENDBRANCH  29  31
ENDBRANCH  28  29
ENDBRANCH  25  28
ENDBRANCH  21  22
ENDBRANCH   1  21
TORSDOF 12
ENDMDL
MODEL 8
REMARK VINA RESULT:    -4.935      2.563      6.017
REMARK INTER + INTRA:         -10.706
REMARK INTER:                  -8.275
REMARK INTRA:                  -2.431
REMARK UNBOUND:                -2.309
REMARK  Name = 
REMARK  14 active torsions:
REMARK  status: ('A' for Active; 'I' for Inactive)
REMARK    1  A    between atoms: C_1  and  C_2
REMARK    2  A    between atoms: C_2  and  N_3
REMARK    3  A    between atoms: C_2  and  C_21
REMARK    4  A    between atoms: N_3  and  C_4
REMARK    5  A    between atoms: C_4  and  C_5
REMARK    6  A    between atoms: C_8  and  C_9
REMARK    7  A    between atoms: C_9  and  N_10
REMARK    8  A    between atoms: N_10  and  C_11
REMARK    9  A    between atoms: N_10  and  C_12
REMARK   10  A    between atoms: C_12  and  C_13
REMARK   11  A    between atoms: C_24  and  C_25
REMARK   12  A    between atoms: C_25  and  N_26
REMARK   13  A    between atoms: N_26  and  C_27
REMARK   14  A    between atoms: C_27  and  C_28
REMARK                            x       y       z     vdW  Elec       q    Type
REMARK                         _______ _______ _______ _____ _____    ______ ____
ROOT
ATOM      1  N   UNL     1      47.116   3.719  14.465  0.00  0.00    +0.000 NA
ATOM      2  H   UNL     1      48.029   4.076  14.189  0.00  0.00    +0.000 HD
ENDROOT
BRANCH   1   4
ATOM      3  C   UNL     1      45.724   3.588  12.447  0.00  0.00    +0.000 C 
ATOM      4  C   UNL     1      46.065   4.408  13.696  0.00  0.00    +0.000 C 
BRANCH   4   5
ATOM      5  C   UNL     1      46.471   5.811  13.289  0.00  0.00    +0.000 A 
ATOM      6  C   UNL     1      47.823   6.153  13.165  0.00  0.00    +0.000 A 
ATOM      7  C   UNL     1      48.192   7.418  12.698  0.00  0.00    +0.000 A 
ATOM      8  C   UNL     1      47.217   8.360  12.336  0.00  0.00    +0.000 A 
ATOM      9  C   UNL     1      45.867   8.029  12.482  0.00  0.00    +0.000 A 
ATOM     10  C   UNL     1      45.498   6.772  12.956  0.00  0.00    +0.000 A 
BRANCH   8  11
ATOM     11  C   UNL     1      47.617   9.703  11.766  0.00  0.00    +0.000 C 
BRANCH  11  12
ATOM     12  N   UNL     1      47.438  10.748  12.769  0.00  0.00    +0.000 NA
ATOM     13  H   UNL     1      47.026  10.329  13.604  0.00  0.00    +0.000 HD
BRANCH  12  14
ATOM     14  C   UNL     1      48.713  11.363  13.155  0.00  0.00    +0.000 C 
BRANCH  14  15
ATOM     15  C   UNL     1      49.544  10.425  14.014  0.00  0.00    +0.000 A 
ATOM     16  C   UNL     1      50.832  10.056  13.614  0.00  0.00    +0.000 A 
ATOM     17  C   UNL     1      51.586   9.235  14.445  0.00  0.00    +0.000 A 
ATOM     18  C   UNL     1      51.041   8.794  15.643  0.00  0.00    +0.000 A 
ATOM     19  C   UNL     1      49.755   9.195  15.963  0.00  0.00    +0.000 A 
ATOM     20  N   UNL     1      48.999   9.999  15.182  0.00  0.00    +0.000 NA
ENDBRANCH  14  15
ENDBRANCH  12  14
ENDBRANCH  11  12
ENDBRANCH   8  11
ENDBRANCH   4   5
ENDBRANCH   1   4
BRANCH   1  21
ATOM     21  C   UNL     1      46.966   3.917  15.909  0.00  0.00    +0.000 C 
BRANCH  21  22
ATOM     22  C   UNL     1      48.309   4.132  16.566  0.00  0.00    +0.000 A 
ATOM     23  C   UNL     1      48.860   5.417  16.661  0.00  0.00    +0.000 A 
ATOM     24  C   UNL     1      50.085   5.615  17.304  0.00  0.00    +0.000 A 
ATOM     25  C   UNL     1      50.766   4.534  17.882  0.00  0.00    +0.000 A 
ATOM     26  C   UNL     1      50.228   3.247  17.760  0.00  0.00    +0.000 A 
ATOM     27  C   UNL     1      49.012   3.049  17.107  0.00  0.00    +0.000 A 
BRANCH  25  28
ATOM     28  C   UNL     1      52.054   4.753  18.648  0.00  0.00    +0.000 C 
BRANCH  28  29
ATOM     29  N   UNL     1      51.869   4.722  20.118  0.00  0.00    +0.000 NA
ATOM     30  C   UNL     1      53.111   4.352  20.806  0.00  0.00    +0.000 C 
BRANCH  29  31
ATOM     31  C   UNL     1      51.408   6.041  20.606  0.00  0.00    +0.000 C 
BRANCH  31  32
ATOM     32  C   UNL     1      49.983   6.037  21.118  0.00  0.00    +0.000 A 
ATOM     33  C   UNL     1      49.377   4.844  21.506  0.00  0.00    +0.000 A 
ATOM     34  N   UNL     1      48.078   4.767  21.881  0.00  0.00    +0.000 NA
ATOM     35  C   UNL     1      47.401   5.935  21.850  0.00  0.00    +0.000 A 
ATOM     36  C   UNL     1      47.996   7.129  21.481  0.00  0.00    +0.000 A 
ATOM     37  N   UNL     1      49.294   7.210  21.108  0.00  0.00    +0.000 NA
ENDBRANCH  31  32
ENDBRANCH  29  31
ENDBRANCH  28  29
ENDBRANCH  25  28
ENDBRANCH  21  22
ENDBRANCH   1  21
TORSDOF 12
ENDMDL
MODEL 9
REMARK VINA RESULT:    -4.855     10.086     11.745
REMARK INTER + INTRA:         -10.569
REMARK INTER:                  -7.815
REMARK INTRA:                  -2.754
REMARK UNBOUND:                -2.309
REMARK  Name = 
REMARK  14 active torsions:
REMARK  status: ('A' for Active; 'I' for Inactive)
REMARK    1  A    between atoms: C_1  and  C_2
REMARK    2  A    between atoms: C_2  and  N_3
REMARK    3  A    between atoms: C_2  and  C_21
REMARK    4  A    between atoms: N_3  and  C_4
REMARK    5  A    between atoms: C_4  and  C_5
REMARK    6  A    between atoms: C_8  and  C_9
REMARK    7  A    between atoms: C_9  and  N_10
REMARK    8  A    between atoms: N_10  and  C_11
REMARK    9  A    between atoms: N_10  and  C_12
REMARK   10  A    between atoms: C_12  and  C_13
REMARK   11  A    between atoms: C_24  and  C_25
REMARK   12  A    between atoms: C_25  and  N_26
REMARK   13  A    between atoms: N_26  and  C_27
REMARK   14  A    between atoms: C_27  and  C_28
REMARK                            x       y       z     vdW  Elec       q    Type
REMARK                         _______ _______ _______ _____ _____    ______ ____
ROOT
ATOM      1  N   UNL     1      42.364  -3.960  19.423  0.00  0.00    +0.000 NA
ATOM      2  H   UNL     1      42.547  -3.003  19.128  0.00  0.00    +0.000 HD
ENDROOT
BRANCH   1   4
ATOM      3  C   UNL     1      43.055  -5.194  17.416  0.00  0.00    +0.000 C 
ATOM      4  C   UNL     1      41.870  -4.743  18.277  0.00  0.00    +0.000 C 
BRANCH   4   5
ATOM      5  C   UNL     1      40.887  -3.964  17.425  0.00  0.00    +0.000 A 
ATOM      6  C   UNL     1      39.621  -4.489  17.139  0.00  0.00    +0.000 A 
ATOM      7  C   UNL     1      38.684  -3.729  16.434  0.00  0.00    +0.000 A 
ATOM      8  C   UNL     1      38.990  -2.426  16.011  0.00  0.00    +0.000 A 
ATOM      9  C   UNL     1      40.262  -1.909  16.275  0.00  0.00    +0.000 A 
ATOM     10  C   UNL     1      41.200  -2.670  16.970  0.00  0.00    +0.000 A 
BRANCH   8  11
ATOM     11  C   UNL     1      37.952  -1.580  15.309  0.00  0.00    +0.000 C 
BRANCH  11  12
ATOM     12  N   UNL     1      38.443  -1.167  13.998  0.00  0.00    +0.000 NA
ATOM     13  H   UNL     1      39.456  -1.048  14.054  0.00  0.00    +0.000 HD
BRANCH  12  14
ATOM     14  C   UNL     1      38.164  -2.172  12.967  0.00  0.00    +0.000 C 
BRANCH  14  15
ATOM     15  C   UNL     1      39.249  -3.234  12.918  0.00  0.00    +0.000 A 
ATOM     16  C   UNL     1      40.597  -2.864  12.868  0.00  0.00    +0.000 A 
ATOM     17  C   UNL     1      41.569  -3.859  12.873  0.00  0.00    +0.000 A 
ATOM     18  C   UNL     1      41.180  -5.191  12.919  0.00  0.00    +0.000 A 
ATOM     19  C   UNL     1      39.825  -5.475  12.958  0.00  0.00    +0.000 A 
ATOM     20  N   UNL     1      38.856  -4.532  12.962  0.00  0.00    +0.000 NA
ENDBRANCH  14  15
ENDBRANCH  12  14
ENDBRANCH  11  12
ENDBRANCH   8  11
ENDBRANCH   4   5
ENDBRANCH   1   4
BRANCH   1  21
ATOM     21  C   UNL     1      41.400  -3.922  20.527  0.00  0.00    +0.000 C 
BRANCH  21  22
ATOM     22  C   UNL     1      41.038  -2.498  20.876  0.00  0.00    +0.000 A 
ATOM     23  C   UNL     1      41.783  -1.783  21.823  0.00  0.00    +0.000 A 
ATOM     24  C   UNL     1      41.467  -0.453  22.113  0.00  0.00    +0.000 A 
ATOM     25  C   UNL     1      40.414   0.189  21.445  0.00  0.00    +0.000 A 
ATOM     26  C   UNL     1      39.652  -0.537  20.522  0.00  0.00    +0.000 A 
ATOM     27  C   UNL     1      39.961  -1.868  20.242  0.00  0.00    +0.000 A 
BRANCH  25  28
ATOM     28  C   UNL     1      40.116   1.651  21.698  0.00  0.00    +0.000 C 
BRANCH  28  29
ATOM     29  N   UNL     1      38.998   2.168  20.875  0.00  0.00    +0.000 NA
ATOM     30  C   UNL     1      38.035   2.919  21.688  0.00  0.00    +0.000 C 
BRANCH  29  31
ATOM     31  C   UNL     1      39.516   3.038  19.793  0.00  0.00    +0.000 C 
BRANCH  31  32
ATOM     32  C   UNL     1      38.765   2.897  18.487  0.00  0.00    +0.000 A 
ATOM     33  C   UNL     1      38.386   4.029  17.766  0.00  0.00    +0.000 A 
ATOM     34  N   UNL     1      37.632   3.967  16.643  0.00  0.00    +0.000 NA
ATOM     35  C   UNL     1      37.265   2.723  16.266  0.00  0.00    +0.000 A 
ATOM     36  C   UNL     1      37.647   1.592  16.964  0.00  0.00    +0.000 A 
ATOM     37  N   UNL     1      38.403   1.649  18.085  0.00  0.00    +0.000 NA
ENDBRANCH  31  32
ENDBRANCH  29  31
ENDBRANCH  28  29
ENDBRANCH  25  28
ENDBRANCH  21  22
ENDBRANCH   1  21
TORSDOF 12
ENDMDL
