MODEL 1
REMARK VINA RESULT:    -8.353      0.000      0.000
REMARK INTER + INTRA:         -12.853
REMARK INTER:                 -12.259
REMARK INTRA:                  -0.594
REMARK UNBOUND:                -0.594
REMARK  Name = 
REMARK  9 active torsions:
REMARK  status: ('A' for Active; 'I' for Inactive)
REMARK    1  A    between atoms: N_1  and  C_2
REMARK    2  A    between atoms: C_2  and  C_3
REMARK    3  A    between atoms: C_2  and  C_22
REMARK    4  A    between atoms: C_3  and  C_4
REMARK    5  A    between atoms: C_7  and  CA_8
REMARK    6  A    between atoms: CA_8  and  C_9
REMARK    7  A    between atoms: CA_8  and  N_11
REMARK    8  A    between atoms: C_9  and  O_10
REMARK    9  A    between atoms: C_12  and  C_14
REMARK                            x       y       z     vdW  Elec       q    Type
REMARK                         _______ _______ _______ _____ _____    ______ ____
ROOT
ATOM      1  C   UNL     1      46.745   4.098  14.028  0.00  0.00    +0.000 A 
ATOM      2  C   UNL     1      45.974   3.291  13.188  0.00  0.00    +0.000 A 
ATOM      3  C   UNL     1      45.196   3.847  12.176  0.00  0.00    +0.000 A 
ATOM      4  C   UNL     1      45.138   5.232  11.984  0.00  0.00    +0.000 A 
ATOM      5  C   UNL     1      45.811   6.054  12.900  0.00  0.00    +0.000 A 
ATOM      6  C   UNL     1      46.608   5.489  13.911  0.00  0.00    +0.000 A 
ENDROOT
BRANCH   1   7
ATOM      7  C   UNL     1      47.701   3.503  15.053  0.00  0.00    +0.000 C 
BRANCH   7   8
ATOM      8  C   UNL     1      47.532   4.007  16.515  0.00  0.00    +0.000 C 
BRANCH   8   9
ATOM      9  C   UNL     1      48.839   4.311  17.210  0.00  0.00    +0.000 A 
ATOM     10  C   UNL     1      49.172   5.529  17.785  0.00  0.00    +0.000 A 
ATOM     11  S   UNL     1      50.741   5.550  18.457  0.00  0.00    +0.000 S 
ATOM     12  C   UNL     1      51.028   3.938  17.993  0.00  0.00    +0.000 A 
ATOM     13  N   UNL     1      52.213   3.326  18.268  0.00  0.00    +0.000 NA
ATOM     14  C   UNL     1      52.286   2.104  17.850  0.00  0.00    +0.000 A 
ATOM     15  N   UNL     1      51.288   1.438  17.184  0.00  0.00    +0.000 N 
ATOM     16  C   UNL     1      50.079   2.017  16.874  0.00  0.00    +0.000 A 
ATOM     17  O   UNL     1      49.222   1.394  16.257  0.00  0.00    +0.000 OA
ATOM     18  C   UNL     1      49.942   3.390  17.334  0.00  0.00    +0.000 A 
ATOM     19  H   UNL     1      51.411   0.488  16.880  0.00  0.00    +0.000 HD
ENDBRANCH   8   9
BRANCH   8  20
ATOM     20  N   UNL     1      46.798   3.078  17.384  0.00  0.00    +0.000 NA
ATOM     21  H   UNL     1      45.800   3.232  17.252  0.00  0.00    +0.000 HD
ATOM     22  H   UNL     1      46.995   3.280  18.362  0.00  0.00    +0.000 HD
ENDBRANCH   8  20
ENDBRANCH   7   8
ENDBRANCH   1   7
BRANCH   4  23
ATOM     23  CA  UNL     1      44.417   5.743  10.749  0.00  0.00    +0.000 C 
BRANCH  23  24
ATOM     24  N   UNL     1      44.316   4.730   9.711  0.00  0.00    +0.000 N 
ATOM     25  C   UNL     1      45.258   4.657   8.703  0.00  0.00    +0.000 C 
ATOM     26  O   UNL     1      46.235   5.398   8.655  0.00  0.00    +0.000 OA
ATOM     27  H   UNL     1      43.397   4.340   9.554  0.00  0.00    +0.000 HD
BRANCH  25  28
ATOM     28  C   UNL     1      44.973   3.587   7.649  0.00  0.00    +0.000 C 
ATOM     29  C   UNL     1      44.577   2.248   8.282  0.00  0.00    +0.000 C 
ATOM     30  C   UNL     1      45.779   1.452   8.791  0.00  0.00    +0.000 C 
ATOM     31  N   UNL     1      46.796   1.270   7.756  0.00  0.00    +0.000 NA
ATOM     32  C   UNL     1      47.286   2.567   7.287  0.00  0.00    +0.000 C 
ATOM     33  C   UNL     1      46.156   3.401   6.683  0.00  0.00    +0.000 C 
ATOM     34  H   UNL     1      46.398   0.756   6.971  0.00  0.00    +0.000 HD
ENDBRANCH  25  28
ENDBRANCH  23  24
BRANCH  23  35
ATOM     35  C   UNL     1      43.055   6.389  11.091  0.00  0.00    +0.000 C 
BRANCH  35  36
ATOM     36  O   UNL     1      43.111   7.819  11.051  0.00  0.00    +0.000 OA
ATOM     37  H   UNL     1      43.780   8.086  11.706  0.00  0.00    +0.000 HD
ENDBRANCH  35  36
ENDBRANCH  23  35
ENDBRANCH   4  23
TORSDOF 9
ENDMDL
MODEL 2
REMARK VINA RESULT:    -7.850      1.888      2.504
REMARK INTER + INTRA:         -12.116
REMARK INTER:                 -10.848
REMARK INTRA:                  -1.267
REMARK UNBOUND:                -0.594
REMARK  Name = 
REMARK  9 active torsions:
REMARK  status: ('A' for Active; 'I' for Inactive)
REMARK    1  A    between atoms: N_1  and  C_2
REMARK    2  A    between atoms: C_2  and  C_3
REMARK    3  A    between atoms: C_2  and  C_22
REMARK    4  A    between atoms: C_3  and  C_4
REMARK    5  A    between atoms: C_7  and  CA_8
REMARK    6  A    between atoms: CA_8  and  C_9
REMARK    7  A    between atoms: CA_8  and  N_11
REMARK    8  A    between atoms: C_9  and  O_10
REMARK    9  A    between atoms: C_12  and  C_14
REMARK                            x       y       z     vdW  Elec       q    Type
REMARK                         _______ _______ _______ _____ _____    ______ ____
ROOT
ATOM      1  C   UNL     1      47.036   4.154  14.398  0.00  0.00    +0.000 A 
ATOM      2  C   UNL     1      46.054   3.580  13.587  0.00  0.00    +0.000 A 
ATOM      3  C   UNL     1      45.510   4.280  12.514  0.00  0.00    +0.000 A 
ATOM      4  C   UNL     1      45.908   5.592  12.228  0.00  0.00    +0.000 A 
ATOM      5  C   UNL     1      46.801   6.218  13.110  0.00  0.00    +0.000 A 
ATOM      6  C   UNL     1      47.360   5.502  14.184  0.00  0.00    +0.000 A 
ENDROOT
BRANCH   1   7
ATOM      7  C   UNL     1      47.735   3.360  15.492  0.00  0.00    +0.000 C 
BRANCH   7   8
ATOM      8  C   UNL     1      47.458   3.822  16.952  0.00  0.00    +0.000 C 
BRANCH   8   9
ATOM      9  C   UNL     1      48.706   4.173  17.728  0.00  0.00    +0.000 A 
ATOM     10  C   UNL     1      49.964   3.635  17.501  0.00  0.00    +0.000 A 
ATOM     11  S   UNL     1      51.152   4.219  18.580  0.00  0.00    +0.000 S 
ATOM     12  C   UNL     1      50.022   5.200  19.389  0.00  0.00    +0.000 A 
ATOM     13  N   UNL     1      50.392   5.978  20.444  0.00  0.00    +0.000 NA
ATOM     14  C   UNL     1      49.424   6.664  20.959  0.00  0.00    +0.000 A 
ATOM     15  N   UNL     1      48.123   6.645  20.521  0.00  0.00    +0.000 N 
ATOM     16  C   UNL     1      47.700   5.868  19.468  0.00  0.00    +0.000 A 
ATOM     17  O   UNL     1      46.523   5.862  19.123  0.00  0.00    +0.000 OA
ATOM     18  C   UNL     1      48.755   5.085  18.845  0.00  0.00    +0.000 A 
ATOM     19  H   UNL     1      47.416   7.198  20.971  0.00  0.00    +0.000 HD
ENDBRANCH   8   9
BRANCH   8  20
ATOM     20  N   UNL     1      46.723   2.841  17.759  0.00  0.00    +0.000 NA
ATOM     21  H   UNL     1      46.717   3.156  18.727  0.00  0.00    +0.000 HD
ATOM     22  H   UNL     1      47.204   1.944  17.749  0.00  0.00    +0.000 HD
ENDBRANCH   8  20
ENDBRANCH   7   8
ENDBRANCH   1   7
BRANCH   4  23
ATOM     23  CA  UNL     1      45.406   6.215  10.937  0.00  0.00    +0.000 C 
BRANCH  23  24
ATOM     24  N   UNL     1      44.951   5.216   9.983  0.00  0.00    +0.000 N 
ATOM     25  C   UNL     1      45.686   4.940   8.847  0.00  0.00    +0.000 C 
ATOM     26  O   UNL     1      46.763   5.478   8.608  0.00  0.00    +0.000 OA
ATOM     27  H   UNL     1      43.962   5.007   9.992  0.00  0.00    +0.000 HD
BRANCH  25  28
ATOM     28  C   UNL     1      45.039   3.921   7.908  0.00  0.00    +0.000 C 
ATOM     29  C   UNL     1      44.347   2.789   8.679  0.00  0.00    +0.000 C 
ATOM     30  C   UNL     1      45.327   1.729   9.185  0.00  0.00    +0.000 C 
ATOM     31  N   UNL     1      46.171   1.204   8.112  0.00  0.00    +0.000 NA
ATOM     32  C   UNL     1      46.953   2.281   7.503  0.00  0.00    +0.000 C 
ATOM     33  C   UNL     1      46.046   3.350   6.896  0.00  0.00    +0.000 C 
ATOM     34  H   UNL     1      45.587   0.767   7.400  0.00  0.00    +0.000 HD
ENDBRANCH  25  28
ENDBRANCH  23  24
BRANCH  23  35
ATOM     35  C   UNL     1      44.359   7.324  11.190  0.00  0.00    +0.000 C 
BRANCH  35  36
ATOM     36  O   UNL     1      43.018   6.851  11.020  0.00  0.00    +0.000 OA
ATOM     37  H   UNL     1      42.445   7.637  11.043  0.00  0.00    +0.000 HD
ENDBRANCH  35  36
ENDBRANCH  23  35
ENDBRANCH   4  23
TORSDOF 9
ENDMDL
MODEL 3
REMARK VINA RESULT:    -7.452      2.148      3.220
REMARK INTER + INTRA:         -11.532
REMARK INTER:                 -10.634
REMARK INTRA:                  -0.898
REMARK UNBOUND:                -0.594
REMARK  Name = 
REMARK  9 active torsions:
REMARK  status: ('A' for Active; 'I' for Inactive)
REMARK    1  A    between atoms: N_1  and  C_2
REMARK    2  A    between atoms: C_2  and  C_3
REMARK    3  A    between atoms: C_2  and  C_22
REMARK    4  A    between atoms: C_3  and  C_4
REMARK    5  A    between atoms: C_7  and  CA_8
REMARK    6  A    between atoms: CA_8  and  C_9
REMARK    7  A    between atoms: CA_8  and  N_11
REMARK    8  A    between atoms: C_9  and  O_10
REMARK    9  A    between atoms: C_12  and  C_14
REMARK                            x       y       z     vdW  Elec       q    Type
REMARK                         _______ _______ _______ _____ _____    ______ ____
ROOT
ATOM      1  C   UNL     1      48.136   4.632  16.307  0.00  0.00    +0.000 A 
ATOM      2  C   UNL     1      48.618   5.877  15.898  0.00  0.00    +0.000 A 
ATOM      3  C   UNL     1      48.106   6.508  14.767  0.00  0.00    +0.000 A 
ATOM      4  C   UNL     1      47.113   5.904  13.988  0.00  0.00    +0.000 A 
ATOM      5  C   UNL     1      46.713   4.602  14.321  0.00  0.00    +0.000 A 
ATOM      6  C   UNL     1      47.221   3.974  15.472  0.00  0.00    +0.000 A 
ENDROOT
BRANCH   1   7
ATOM      7  C   UNL     1      48.589   3.987  17.610  0.00  0.00    +0.000 C 
BRANCH   7   8
ATOM      8  C   UNL     1      49.684   2.889  17.483  0.00  0.00    +0.000 C 
BRANCH   8   9
ATOM      9  C   UNL     1      51.094   3.415  17.620  0.00  0.00    +0.000 A 
ATOM     10  C   UNL     1      51.457   4.752  17.547  0.00  0.00    +0.000 A 
ATOM     11  S   UNL     1      53.138   5.003  17.707  0.00  0.00    +0.000 S 
ATOM     12  C   UNL     1      53.434   3.335  17.867  0.00  0.00    +0.000 A 
ATOM     13  N   UNL     1      54.698   2.856  18.035  0.00  0.00    +0.000 NA
ATOM     14  C   UNL     1      54.766   1.569  18.137  0.00  0.00    +0.000 A 
ATOM     15  N   UNL     1      53.691   0.716  18.087  0.00  0.00    +0.000 N 
ATOM     16  C   UNL     1      52.398   1.151  17.909  0.00  0.00    +0.000 A 
ATOM     17  O   UNL     1      51.469   0.354  17.847  0.00  0.00    +0.000 OA
ATOM     18  C   UNL     1      52.267   2.595  17.800  0.00  0.00    +0.000 A 
ATOM     19  H   UNL     1      53.814  -0.278  18.166  0.00  0.00    +0.000 HD
ENDBRANCH   8   9
BRANCH   8  20
ATOM     20  N   UNL     1      49.634   2.141  16.220  0.00  0.00    +0.000 NA
ATOM     21  H   UNL     1      49.117   1.277  16.376  0.00  0.00    +0.000 HD
ATOM     22  H   UNL     1      50.572   1.869  15.934  0.00  0.00    +0.000 HD
ENDBRANCH   8  20
ENDBRANCH   7   8
ENDBRANCH   1   7
BRANCH   4  23
ATOM     23  CA  UNL     1      46.481   6.735  12.884  0.00  0.00    +0.000 C 
BRANCH  23  24
ATOM     24  N   UNL     1      45.267   6.129  12.363  0.00  0.00    +0.000 N 
ATOM     25  C   UNL     1      45.198   5.705  11.050  0.00  0.00    +0.000 C 
ATOM     26  O   UNL     1      46.151   5.773  10.281  0.00  0.00    +0.000 OA
ATOM     27  H   UNL     1      44.411   6.347  12.854  0.00  0.00    +0.000 HD
BRANCH  25  28
ATOM     28  C   UNL     1      43.832   5.158  10.634  0.00  0.00    +0.000 C 
ATOM     29  C   UNL     1      43.053   4.590  11.828  0.00  0.00    +0.000 C 
ATOM     30  C   UNL     1      43.514   3.187  12.227  0.00  0.00    +0.000 C 
ATOM     31  N   UNL     1      43.501   2.262  11.094  0.00  0.00    +0.000 NA
ATOM     32  C   UNL     1      44.388   2.739  10.033  0.00  0.00    +0.000 C 
ATOM     33  C   UNL     1      43.948   4.109   9.516  0.00  0.00    +0.000 C 
ATOM     34  H   UNL     1      42.552   2.181  10.730  0.00  0.00    +0.000 HD
ENDBRANCH  25  28
ENDBRANCH  23  24
BRANCH  23  35
ATOM     35  C   UNL     1      46.285   8.211  13.301  0.00  0.00    +0.000 C 
BRANCH  35  36
ATOM     36  O   UNL     1      45.048   8.747  12.820  0.00  0.00    +0.000 OA
ATOM     37  H   UNL     1      45.189   8.965  11.882  0.00  0.00    +0.000 HD
ENDBRANCH  35  36
ENDBRANCH  23  35
ENDBRANCH   4  23
TORSDOF 9
ENDMDL
MODEL 4
REMARK VINA RESULT:    -7.266      4.934      9.942
REMARK INTER + INTRA:         -11.258
REMARK INTER:                  -9.987
REMARK INTRA:                  -1.272
REMARK UNBOUND:                -0.594
REMARK  Name = 
REMARK  9 active torsions:
REMARK  status: ('A' for Active; 'I' for Inactive)
REMARK    1  A    between atoms: N_1  and  C_2
REMARK    2  A    between atoms: C_2  and  C_3
REMARK    3  A    between atoms: C_2  and  C_22
REMARK    4  A    between atoms: C_3  and  C_4
REMARK    5  A    between atoms: C_7  and  CA_8
REMARK    6  A    between atoms: CA_8  and  C_9
REMARK    7  A    between atoms: CA_8  and  N_11
REMARK    8  A    between atoms: C_9  and  O_10
REMARK    9  A    between atoms: C_12  and  C_14
REMARK                            x       y       z     vdW  Elec       q    Type
REMARK                         _______ _______ _______ _____ _____    ______ ____
ROOT
ATOM      1  C   UNL     1      47.276   9.127  12.080  0.00  0.00    +0.000 A 
ATOM      2  C   UNL     1      46.020   8.691  12.509  0.00  0.00    +0.000 A 
ATOM      3  C   UNL     1      45.805   7.363  12.867  0.00  0.00    +0.000 A 
ATOM      4  C   UNL     1      46.831   6.414  12.781  0.00  0.00    +0.000 A 
ATOM      5  C   UNL     1      48.058   6.816  12.234  0.00  0.00    +0.000 A 
ATOM      6  C   UNL     1      48.276   8.162  11.889  0.00  0.00    +0.000 A 
ENDROOT
BRANCH   1   7
ATOM      7  C   UNL     1      47.564  10.597  11.811  0.00  0.00    +0.000 C 
BRANCH   7   8
ATOM      8  C   UNL     1      46.339  11.553  11.864  0.00  0.00    +0.000 C 
BRANCH   8   9
ATOM      9  C   UNL     1      45.759  11.879  10.507  0.00  0.00    +0.000 A 
ATOM     10  C   UNL     1      46.483  12.351   9.423  0.00  0.00    +0.000 A 
ATOM     11  S   UNL     1      45.518  12.653   8.048  0.00  0.00    +0.000 S 
ATOM     12  C   UNL     1      44.102  12.173   8.860  0.00  0.00    +0.000 A 
ATOM     13  N   UNL     1      42.891  12.195   8.238  0.00  0.00    +0.000 NA
ATOM     14  C   UNL     1      41.907  11.807   8.983  0.00  0.00    +0.000 A 
ATOM     15  N   UNL     1      42.020  11.399  10.290  0.00  0.00    +0.000 N 
ATOM     16  C   UNL     1      43.220  11.370  10.963  0.00  0.00    +0.000 A 
ATOM     17  O   UNL     1      43.274  11.021  12.137  0.00  0.00    +0.000 OA
ATOM     18  C   UNL     1      44.361  11.787  10.163  0.00  0.00    +0.000 A 
ATOM     19  H   UNL     1      41.214  11.116  10.816  0.00  0.00    +0.000 HD
ENDBRANCH   8   9
BRANCH   8  20
ATOM     20  N   UNL     1      46.612  12.836  12.524  0.00  0.00    +0.000 NA
ATOM     21  H   UNL     1      46.202  12.814  13.457  0.00  0.00    +0.000 HD
ATOM     22  H   UNL     1      46.154  13.595  12.025  0.00  0.00    +0.000 HD
ENDBRANCH   8  20
ENDBRANCH   7   8
ENDBRANCH   1   7
BRANCH   4  23
ATOM     23  CA  UNL     1      46.565   5.036  13.362  0.00  0.00    +0.000 C 
BRANCH  23  24
ATOM     24  N   UNL     1      46.709   5.010  14.808  0.00  0.00    +0.000 N 
ATOM     25  C   UNL     1      47.237   3.903  15.444  0.00  0.00    +0.000 C 
ATOM     26  O   UNL     1      47.647   2.921  14.834  0.00  0.00    +0.000 OA
ATOM     27  H   UNL     1      46.112   5.638  15.328  0.00  0.00    +0.000 HD
BRANCH  25  28
ATOM     28  C   UNL     1      47.255   4.001  16.970  0.00  0.00    +0.000 C 
ATOM     29  C   UNL     1      47.922   5.294  17.455  0.00  0.00    +0.000 C 
ATOM     30  C   UNL     1      49.450   5.222  17.424  0.00  0.00    +0.000 C 
ATOM     31  N   UNL     1      49.960   4.056  18.145  0.00  0.00    +0.000 NA
ATOM     32  C   UNL     1      49.443   2.822  17.553  0.00  0.00    +0.000 C 
ATOM     33  C   UNL     1      47.917   2.773  17.618  0.00  0.00    +0.000 C 
ATOM     34  H   UNL     1      49.676   4.107  19.122  0.00  0.00    +0.000 HD
ENDBRANCH  25  28
ENDBRANCH  23  24
BRANCH  23  35
ATOM     35  C   UNL     1      45.219   4.447  12.881  0.00  0.00    +0.000 C 
BRANCH  35  36
ATOM     36  O   UNL     1      45.294   3.033  12.668  0.00  0.00    +0.000 OA
ATOM     37  H   UNL     1      44.735   2.623  13.351  0.00  0.00    +0.000 HD
ENDBRANCH  35  36
ENDBRANCH  23  35
ENDBRANCH   4  23
TORSDOF 9
ENDMDL
MODEL 5
REMARK VINA RESULT:    -7.232      2.733      9.449
REMARK INTER + INTRA:         -11.208
REMARK INTER:                 -10.516
REMARK INTRA:                  -0.693
REMARK UNBOUND:                -0.594
REMARK  Name = 
REMARK  9 active torsions:
REMARK  status: ('A' for Active; 'I' for Inactive)
REMARK    1  A    between atoms: N_1  and  C_2
REMARK    2  A    between atoms: C_2  and  C_3
REMARK    3  A    between atoms: C_2  and  C_22
REMARK    4  A    between atoms: C_3  and  C_4
REMARK    5  A    between atoms: C_7  and  CA_8
REMARK    6  A    between atoms: CA_8  and  C_9
REMARK    7  A    between atoms: CA_8  and  N_11
REMARK    8  A    between atoms: C_9  and  O_10
REMARK    9  A    between atoms: C_12  and  C_14
REMARK                            x       y       z     vdW  Elec       q    Type
REMARK                         _______ _______ _______ _____ _____    ______ ____
ROOT
ATOM      1  C   UNL     1      47.309   6.133  13.412  0.00  0.00    +0.000 A 
ATOM      2  C   UNL     1      46.999   4.925  14.042  0.00  0.00    +0.000 A 
ATOM      3  C   UNL     1      47.482   4.635  15.314  0.00  0.00    +0.000 A 
ATOM      4  C   UNL     1      48.317   5.530  15.994  0.00  0.00    +0.000 A 
ATOM      5  C   UNL     1      48.732   6.688  15.320  0.00  0.00    +0.000 A 
ATOM      6  C   UNL     1      48.230   6.985  14.041  0.00  0.00    +0.000 A 
ENDROOT
BRANCH   1   7
ATOM      7  C   UNL     1      46.686   6.524  12.080  0.00  0.00    +0.000 C 
BRANCH   7   8
ATOM      8  C   UNL     1      45.133   6.480  12.014  0.00  0.00    +0.000 C 
BRANCH   8   9
ATOM      9  C   UNL     1      44.573   5.107  11.724  0.00  0.00    +0.000 A 
ATOM     10  C   UNL     1      43.826   4.347  12.611  0.00  0.00    +0.000 A 
ATOM     11  S   UNL     1      43.378   2.824  11.983  0.00  0.00    +0.000 S 
ATOM     12  C   UNL     1      44.176   3.127  10.512  0.00  0.00    +0.000 A 
ATOM     13  N   UNL     1      44.185   2.204   9.511  0.00  0.00    +0.000 NA
ATOM     14  C   UNL     1      44.836   2.574   8.456  0.00  0.00    +0.000 A 
ATOM     15  N   UNL     1      45.478   3.778   8.308  0.00  0.00    +0.000 N 
ATOM     16  C   UNL     1      45.506   4.738   9.294  0.00  0.00    +0.000 A 
ATOM     17  O   UNL     1      46.111   5.791   9.130  0.00  0.00    +0.000 OA
ATOM     18  C   UNL     1      44.777   4.373  10.498  0.00  0.00    +0.000 A 
ATOM     19  H   UNL     1      45.972   4.002   7.463  0.00  0.00    +0.000 HD
ENDBRANCH   8   9
BRANCH   8  20
ATOM     20  N   UNL     1      44.552   7.390  11.019  0.00  0.00    +0.000 NA
ATOM     21  H   UNL     1      43.789   6.908  10.545  0.00  0.00    +0.000 HD
ATOM     22  H   UNL     1      45.240   7.616  10.304  0.00  0.00    +0.000 HD
ENDBRANCH   8  20
ENDBRANCH   7   8
ENDBRANCH   1   7
BRANCH   4  23
ATOM     23  CA  UNL     1      48.647   5.222  17.445  0.00  0.00    +0.000 C 
BRANCH  23  24
ATOM     24  N   UNL     1      50.048   5.458  17.754  0.00  0.00    +0.000 N 
ATOM     25  C   UNL     1      50.992   4.472  17.542  0.00  0.00    +0.000 C 
ATOM     26  O   UNL     1      50.714   3.384  17.049  0.00  0.00    +0.000 OA
ATOM     27  H   UNL     1      50.241   6.187  18.426  0.00  0.00    +0.000 HD
BRANCH  25  28
ATOM     28  C   UNL     1      52.407   4.848  17.985  0.00  0.00    +0.000 C 
ATOM     29  C   UNL     1      53.387   3.678  17.828  0.00  0.00    +0.000 C 
ATOM     30  C   UNL     1      53.282   2.658  18.963  0.00  0.00    +0.000 C 
ATOM     31  N   UNL     1      53.408   3.285  20.278  0.00  0.00    +0.000 NA
ATOM     32  C   UNL     1      52.353   4.281  20.474  0.00  0.00    +0.000 C 
ATOM     33  C   UNL     1      52.435   5.388  19.424  0.00  0.00    +0.000 C 
ATOM     34  H   UNL     1      54.318   3.738  20.356  0.00  0.00    +0.000 HD
ENDBRANCH  25  28
ENDBRANCH  23  24
BRANCH  23  35
ATOM     35  C   UNL     1      47.687   5.931  18.428  0.00  0.00    +0.000 C 
BRANCH  35  36
ATOM     36  O   UNL     1      46.435   5.247  18.547  0.00  0.00    +0.000 OA
ATOM     37  H   UNL     1      45.879   5.562  17.813  0.00  0.00    +0.000 HD
ENDBRANCH  35  36
ENDBRANCH  23  35
ENDBRANCH   4  23
TORSDOF 9
ENDMDL
MODEL 6
REMARK VINA RESULT:    -7.155      2.682      3.631
REMARK INTER + INTRA:         -11.095
REMARK INTER:                 -10.033
REMARK INTRA:                  -1.063
REMARK UNBOUND:                -0.594
REMARK  Name = 
REMARK  9 active torsions:
REMARK  status: ('A' for Active; 'I' for Inactive)
REMARK    1  A    between atoms: N_1  and  C_2
REMARK    2  A    between atoms: C_2  and  C_3
REMARK    3  A    between atoms: C_2  and  C_22
REMARK    4  A    between atoms: C_3  and  C_4
REMARK    5  A    between atoms: C_7  and  CA_8
REMARK    6  A    between atoms: CA_8  and  C_9
REMARK    7  A    between atoms: CA_8  and  N_11
REMARK    8  A    between atoms: C_9  and  O_10
REMARK    9  A    between atoms: C_12  and  C_14
REMARK                            x       y       z     vdW  Elec       q    Type
REMARK                         _______ _______ _______ _____ _____    ______ ____
ROOT
ATOM      1  C   UNL     1      48.791   7.240  15.128  0.00  0.00    +0.000 A 
ATOM      2  C   UNL     1      48.123   6.261  14.389  0.00  0.00    +0.000 A 
ATOM      3  C   UNL     1      47.154   6.606  13.452  0.00  0.00    +0.000 A 
ATOM      4  C   UNL     1      46.796   7.943  13.238  0.00  0.00    +0.000 A 
ATOM      5  C   UNL     1      47.373   8.920  14.062  0.00  0.00    +0.000 A 
ATOM      6  C   UNL     1      48.363   8.569  14.997  0.00  0.00    +0.000 A 
ENDROOT
BRANCH   1   7
ATOM      7  C   UNL     1      49.943   6.892  16.060  0.00  0.00    +0.000 C 
BRANCH   7   8
ATOM      8  C   UNL     1      49.558   6.151  17.373  0.00  0.00    +0.000 C 
BRANCH   8   9
ATOM      9  C   UNL     1      49.487   4.648  17.227  0.00  0.00    +0.000 A 
ATOM     10  C   UNL     1      48.342   3.930  16.918  0.00  0.00    +0.000 A 
ATOM     11  S   UNL     1      48.599   2.243  16.865  0.00  0.00    +0.000 S 
ATOM     12  C   UNL     1      50.243   2.419  17.262  0.00  0.00    +0.000 A 
ATOM     13  N   UNL     1      51.059   1.335  17.385  0.00  0.00    +0.000 NA
ATOM     14  C   UNL     1      52.280   1.625  17.695  0.00  0.00    +0.000 A 
ATOM     15  N   UNL     1      52.763   2.894  17.895  0.00  0.00    +0.000 N 
ATOM     16  C   UNL     1      51.976   4.019  17.794  0.00  0.00    +0.000 A 
ATOM     17  O   UNL     1      52.442   5.133  18.003  0.00  0.00    +0.000 OA
ATOM     18  C   UNL     1      50.594   3.746  17.434  0.00  0.00    +0.000 A 
ATOM     19  H   UNL     1      53.724   3.051  18.142  0.00  0.00    +0.000 HD
ENDBRANCH   8   9
BRANCH   8  20
ATOM     20  N   UNL     1      48.275   6.579  17.945  0.00  0.00    +0.000 NA
ATOM     21  H   UNL     1      48.417   6.801  18.929  0.00  0.00    +0.000 HD
ATOM     22  H   UNL     1      47.603   5.816  17.915  0.00  0.00    +0.000 HD
ENDBRANCH   8  20
ENDBRANCH   7   8
ENDBRANCH   1   7
BRANCH   4  23
ATOM     23  CA  UNL     1      45.869   8.246  12.073  0.00  0.00    +0.000 C 
BRANCH  23  24
ATOM     24  N   UNL     1      44.758   7.312  11.995  0.00  0.00    +0.000 N 
ATOM     25  C   UNL     1      44.762   6.288  11.068  0.00  0.00    +0.000 C 
ATOM     26  O   UNL     1      45.703   6.087  10.306  0.00  0.00    +0.000 OA
ATOM     27  H   UNL     1      43.876   7.634  12.368  0.00  0.00    +0.000 HD
BRANCH  25  28
ATOM     28  C   UNL     1      43.491   5.438  11.061  0.00  0.00    +0.000 C 
ATOM     29  C   UNL     1      42.957   5.192  12.478  0.00  0.00    +0.000 C 
ATOM     30  C   UNL     1      43.715   4.088  13.217  0.00  0.00    +0.000 C 
ATOM     31  N   UNL     1      43.766   2.847  12.445  0.00  0.00    +0.000 NA
ATOM     32  C   UNL     1      44.437   3.068  11.164  0.00  0.00    +0.000 C 
ATOM     33  C   UNL     1      43.695   4.105  10.321  0.00  0.00    +0.000 C 
ATOM     34  H   UNL     1      42.819   2.509  12.277  0.00  0.00    +0.000 HD
ENDBRANCH  25  28
ENDBRANCH  23  24
BRANCH  23  35
ATOM     35  C   UNL     1      45.414   9.724  12.056  0.00  0.00    +0.000 C 
BRANCH  35  36
ATOM     36  O   UNL     1      44.056   9.875  12.483  0.00  0.00    +0.000 OA
ATOM     37  H   UNL     1      44.032   9.607  13.419  0.00  0.00    +0.000 HD
ENDBRANCH  35  36
ENDBRANCH  23  35
ENDBRANCH   4  23
TORSDOF 9
ENDMDL
MODEL 7
REMARK VINA RESULT:    -7.106      3.186      9.765
REMARK INTER + INTRA:         -11.023
REMARK INTER:                 -10.513
REMARK INTRA:                  -0.510
REMARK UNBOUND:                -0.594
REMARK  Name = 
REMARK  9 active torsions:
REMARK  status: ('A' for Active; 'I' for Inactive)
REMARK    1  A    between atoms: N_1  and  C_2
REMARK    2  A    between atoms: C_2  and  C_3
REMARK    3  A    between atoms: C_2  and  C_22
REMARK    4  A    between atoms: C_3  and  C_4
REMARK    5  A    between atoms: C_7  and  CA_8
REMARK    6  A    between atoms: CA_8  and  C_9
REMARK    7  A    between atoms: CA_8  and  N_11
REMARK    8  A    between atoms: C_9  and  O_10
REMARK    9  A    between atoms: C_12  and  C_14
REMARK                            x       y       z     vdW  Elec       q    Type
REMARK                         _______ _______ _______ _____ _____    ______ ____
ROOT
ATOM      1  C   UNL     1      47.136   5.964  13.299  0.00  0.00    +0.000 A 
ATOM      2  C   UNL     1      46.886   4.638  13.658  0.00  0.00    +0.000 A 
ATOM      3  C   UNL     1      47.312   4.133  14.883  0.00  0.00    +0.000 A 
ATOM      4  C   UNL     1      48.029   4.929  15.785  0.00  0.00    +0.000 A 
ATOM      5  C   UNL     1      48.390   6.223  15.381  0.00  0.00    +0.000 A 
ATOM      6  C   UNL     1      47.945   6.734  14.149  0.00  0.00    +0.000 A 
ENDROOT
BRANCH   1   7
ATOM      7  C   UNL     1      46.566   6.570  12.024  0.00  0.00    +0.000 C 
BRANCH   7   8
ATOM      8  C   UNL     1      45.022   6.484  11.859  0.00  0.00    +0.000 C 
BRANCH   8   9
ATOM      9  C   UNL     1      44.518   5.095  11.543  0.00  0.00    +0.000 A 
ATOM     10  C   UNL     1      43.738   4.318  12.386  0.00  0.00    +0.000 A 
ATOM     11  S   UNL     1      43.371   2.781  11.739  0.00  0.00    +0.000 S 
ATOM     12  C   UNL     1      44.250   3.102  10.318  0.00  0.00    +0.000 A 
ATOM     13  N   UNL     1      44.346   2.176   9.324  0.00  0.00    +0.000 NA
ATOM     14  C   UNL     1      45.050   2.560   8.310  0.00  0.00    +0.000 A 
ATOM     15  N   UNL     1      45.667   3.780   8.196  0.00  0.00    +0.000 N 
ATOM     16  C   UNL     1      45.609   4.743   9.177  0.00  0.00    +0.000 A 
ATOM     17  O   UNL     1      46.195   5.812   9.045  0.00  0.00    +0.000 OA
ATOM     18  C   UNL     1      44.817   4.364  10.335  0.00  0.00    +0.000 A 
ATOM     19  H   UNL     1      46.207   4.015   7.382  0.00  0.00    +0.000 HD
ENDBRANCH   8   9
BRANCH   8  20
ATOM     20  N   UNL     1      44.483   7.374  10.824  0.00  0.00    +0.000 NA
ATOM     21  H   UNL     1      43.601   6.987  10.490  0.00  0.00    +0.000 HD
ATOM     22  H   UNL     1      45.108   7.402  10.022  0.00  0.00    +0.000 HD
ENDBRANCH   8  20
ENDBRANCH   7   8
ENDBRANCH   1   7
BRANCH   4  23
ATOM     23  CA  UNL     1      48.293   4.362  17.169  0.00  0.00    +0.000 C 
BRANCH  23  24
ATOM     24  N   UNL     1      47.804   5.233  18.225  0.00  0.00    +0.000 N 
ATOM     25  C   UNL     1      48.420   5.257  19.461  0.00  0.00    +0.000 C 
ATOM     26  O   UNL     1      49.420   4.592  19.716  0.00  0.00    +0.000 OA
ATOM     27  H   UNL     1      46.841   5.530  18.151  0.00  0.00    +0.000 HD
BRANCH  25  28
ATOM     28  C   UNL     1      47.745   6.168  20.486  0.00  0.00    +0.000 C 
ATOM     29  C   UNL     1      47.447   7.559  19.910  0.00  0.00    +0.000 C 
ATOM     30  C   UNL     1      48.677   8.468  19.885  0.00  0.00    +0.000 C 
ATOM     31  N   UNL     1      49.318   8.561  21.197  0.00  0.00    +0.000 NA
ATOM     32  C   UNL     1      49.749   7.238  21.650  0.00  0.00    +0.000 C 
ATOM     33  C   UNL     1      48.564   6.283  21.783  0.00  0.00    +0.000 C 
ATOM     34  H   UNL     1      48.661   8.951  21.871  0.00  0.00    +0.000 HD
ENDBRANCH  25  28
ENDBRANCH  23  24
BRANCH  23  35
ATOM     35  C   UNL     1      47.792   2.906  17.311  0.00  0.00    +0.000 C 
BRANCH  35  36
ATOM     36  O   UNL     1      46.445   2.843  17.790  0.00  0.00    +0.000 OA
ATOM     37  H   UNL     1      45.948   3.522  17.300  0.00  0.00    +0.000 HD
ENDBRANCH  35  36
ENDBRANCH  23  35
ENDBRANCH   4  23
TORSDOF 9
ENDMDL
MODEL 8
REMARK VINA RESULT:    -7.022      3.057      4.484
REMARK INTER + INTRA:         -10.900
REMARK INTER:                  -9.610
REMARK INTRA:                  -1.289
REMARK UNBOUND:                -0.594
REMARK  Name = 
REMARK  9 active torsions:
REMARK  status: ('A' for Active; 'I' for Inactive)
REMARK    1  A    between atoms: N_1  and  C_2
REMARK    2  A    between atoms: C_2  and  C_3
REMARK    3  A    between atoms: C_2  and  C_22
REMARK    4  A    between atoms: C_3  and  C_4
REMARK    5  A    between atoms: C_7  and  CA_8
REMARK    6  A    between atoms: CA_8  and  C_9
REMARK    7  A    between atoms: CA_8  and  N_11
REMARK    8  A    between atoms: C_9  and  O_10
REMARK    9  A    between atoms: C_12  and  C_14
REMARK                            x       y       z     vdW  Elec       q    Type
REMARK                         _______ _______ _______ _____ _____    ______ ____
ROOT
ATOM      1  C   UNL     1      48.381   4.600  16.696  0.00  0.00    +0.000 A 
ATOM      2  C   UNL     1      47.321   4.069  15.958  0.00  0.00    +0.000 A 
ATOM      3  C   UNL     1      46.868   4.694  14.800  0.00  0.00    +0.000 A 
ATOM      4  C   UNL     1      47.441   5.890  14.351  0.00  0.00    +0.000 A 
ATOM      5  C   UNL     1      48.421   6.494  15.152  0.00  0.00    +0.000 A 
ATOM      6  C   UNL     1      48.887   5.851  16.313  0.00  0.00    +0.000 A 
ENDROOT
BRANCH   1   7
ATOM      7  C   UNL     1      48.975   3.864  17.889  0.00  0.00    +0.000 C 
BRANCH   7   8
ATOM      8  C   UNL     1      48.601   4.425  19.291  0.00  0.00    +0.000 C 
BRANCH   8   9
ATOM      9  C   UNL     1      49.627   5.376  19.861  0.00  0.00    +0.000 A 
ATOM     10  C   UNL     1      50.854   5.003  20.389  0.00  0.00    +0.000 A 
ATOM     11  S   UNL     1      51.761   6.322  20.983  0.00  0.00    +0.000 S 
ATOM     12  C   UNL     1      50.539   7.430  20.564  0.00  0.00    +0.000 A 
ATOM     13  N   UNL     1      50.681   8.762  20.810  0.00  0.00    +0.000 NA
ATOM     14  C   UNL     1      49.670   9.478  20.440  0.00  0.00    +0.000 A 
ATOM     15  N   UNL     1      48.531   8.989  19.850  0.00  0.00    +0.000 N 
ATOM     16  C   UNL     1      48.337   7.652  19.592  0.00  0.00    +0.000 A 
ATOM     17  O   UNL     1      47.295   7.253  19.083  0.00  0.00    +0.000 OA
ATOM     18  C   UNL     1      49.454   6.804  19.978  0.00  0.00    +0.000 A 
ATOM     19  H   UNL     1      47.776   9.600  19.593  0.00  0.00    +0.000 HD
ENDBRANCH   8   9
BRANCH   8  20
ATOM     20  N   UNL     1      48.376   3.389  20.307  0.00  0.00    +0.000 NA
ATOM     21  H   UNL     1      49.270   2.952  20.527  0.00  0.00    +0.000 HD
ATOM     22  H   UNL     1      47.779   2.654  19.935  0.00  0.00    +0.000 HD
ENDBRANCH   8  20
ENDBRANCH   7   8
ENDBRANCH   1   7
BRANCH   4  23
ATOM     23  CA  UNL     1      47.016   6.405  12.987  0.00  0.00    +0.000 C 
BRANCH  23  24
ATOM     24  N   UNL     1      45.691   5.942  12.610  0.00  0.00    +0.000 N 
ATOM     25  C   UNL     1      45.378   5.704  11.286  0.00  0.00    +0.000 C 
ATOM     26  O   UNL     1      46.196   5.823  10.379  0.00  0.00    +0.000 OA
ATOM     27  H   UNL     1      44.946   6.138  13.264  0.00  0.00    +0.000 HD
BRANCH  25  28
ATOM     28  C   UNL     1      43.925   5.292  11.045  0.00  0.00    +0.000 C 
ATOM     29  C   UNL     1      43.275   4.712  12.308  0.00  0.00    +0.000 C 
ATOM     30  C   UNL     1      43.665   3.255  12.562  0.00  0.00    +0.000 C 
ATOM     31  N   UNL     1      43.413   2.408  11.397  0.00  0.00    +0.000 NA
ATOM     32  C   UNL     1      44.180   2.881  10.244  0.00  0.00    +0.000 C 
ATOM     33  C   UNL     1      43.792   4.311   9.868  0.00  0.00    +0.000 C 
ATOM     34  H   UNL     1      42.419   2.425  11.170  0.00  0.00    +0.000 HD
ENDBRANCH  25  28
ENDBRANCH  23  24
BRANCH  23  35
ATOM     35  C   UNL     1      47.174   7.939  12.865  0.00  0.00    +0.000 C 
BRANCH  35  36
ATOM     36  O   UNL     1      46.240   8.644  13.690  0.00  0.00    +0.000 OA
ATOM     37  H   UNL     1      45.587   9.041  13.088  0.00  0.00    +0.000 HD
ENDBRANCH  35  36
ENDBRANCH  23  35
ENDBRANCH   4  23
TORSDOF 9
ENDMDL
MODEL 9
REMARK VINA RESULT:    -6.919      3.134      4.437
REMARK INTER + INTRA:         -10.749
REMARK INTER:                  -9.202
REMARK INTRA:                  -1.547
REMARK UNBOUND:                -0.594
REMARK  Name = 
REMARK  9 active torsions:
REMARK  status: ('A' for Active; 'I' for Inactive)
REMARK    1  A    between atoms: N_1  and  C_2
REMARK    2  A    between atoms: C_2  and  C_3
REMARK    3  A    between atoms: C_2  and  C_22
REMARK    4  A    between atoms: C_3  and  C_4
REMARK    5  A    between atoms: C_7  and  CA_8
REMARK    6  A    between atoms: CA_8  and  C_9
REMARK    7  A    between atoms: CA_8  and  N_11
REMARK    8  A    between atoms: C_9  and  O_10
REMARK    9  A    between atoms: C_12  and  C_14
REMARK                            x       y       z     vdW  Elec       q    Type
REMARK                         _______ _______ _______ _____ _____    ______ ____
ROOT
ATOM      1  C   UNL     1      49.472   8.066  14.128  0.00  0.00    +0.000 A 
ATOM      2  C   UNL     1      49.306   7.490  12.867  0.00  0.00    +0.000 A 
ATOM      3  C   UNL     1      48.108   7.619  12.171  0.00  0.00    +0.000 A 
ATOM      4  C   UNL     1      47.020   8.307  12.723  0.00  0.00    +0.000 A 
ATOM      5  C   UNL     1      47.137   8.781  14.037  0.00  0.00    +0.000 A 
ATOM      6  C   UNL     1      48.354   8.662  14.731  0.00  0.00    +0.000 A 
ENDROOT
BRANCH   1   7
ATOM      7  C   UNL     1      50.814   8.047  14.846  0.00  0.00    +0.000 C 
BRANCH   7   8
ATOM      8  C   UNL     1      51.063   6.839  15.795  0.00  0.00    +0.000 C 
BRANCH   8   9
ATOM      9  C   UNL     1      50.434   6.995  17.159  0.00  0.00    +0.000 A 
ATOM     10  C   UNL     1      50.981   7.713  18.212  0.00  0.00    +0.000 A 
ATOM     11  S   UNL     1      50.031   7.658  19.630  0.00  0.00    +0.000 S 
ATOM     12  C   UNL     1      48.867   6.666  18.886  0.00  0.00    +0.000 A 
ATOM     13  N   UNL     1      47.766   6.239  19.565  0.00  0.00    +0.000 NA
ATOM     14  C   UNL     1      46.974   5.489  18.870  0.00  0.00    +0.000 A 
ATOM     15  N   UNL     1      47.178   5.126  17.562  0.00  0.00    +0.000 N 
ATOM     16  C   UNL     1      48.279   5.523  16.838  0.00  0.00    +0.000 A 
ATOM     17  O   UNL     1      48.435   5.157  15.679  0.00  0.00    +0.000 OA
ATOM     18  C   UNL     1      49.196   6.380  17.573  0.00  0.00    +0.000 A 
ATOM     19  H   UNL     1      46.526   4.533  17.080  0.00  0.00    +0.000 HD
ENDBRANCH   8   9
BRANCH   8  20
ATOM     20  N   UNL     1      52.483   6.539  16.017  0.00  0.00    +0.000 NA
ATOM     21  H   UNL     1      52.934   7.370  16.396  0.00  0.00    +0.000 HD
ATOM     22  H   UNL     1      52.943   6.338  15.132  0.00  0.00    +0.000 HD
ENDBRANCH   8  20
ENDBRANCH   7   8
ENDBRANCH   1   7
BRANCH   4  23
ATOM     23  CA  UNL     1      45.819   8.560  11.827  0.00  0.00    +0.000 C 
BRANCH  23  24
ATOM     24  N   UNL     1      44.777   7.563  12.007  0.00  0.00    +0.000 N 
ATOM     25  C   UNL     1      44.732   6.438  11.208  0.00  0.00    +0.000 C 
ATOM     26  O   UNL     1      45.578   6.199  10.351  0.00  0.00    +0.000 OA
ATOM     27  H   UNL     1      43.930   7.878  12.460  0.00  0.00    +0.000 HD
BRANCH  25  28
ATOM     28  C   UNL     1      43.535   5.523  11.471  0.00  0.00    +0.000 C 
ATOM     29  C   UNL     1      43.431   5.125  12.949  0.00  0.00    +0.000 C 
ATOM     30  C   UNL     1      44.397   4.003  13.333  0.00  0.00    +0.000 C 
ATOM     31  N   UNL     1      44.261   2.839  12.458  0.00  0.00    +0.000 NA
ATOM     32  C   UNL     1      44.535   3.209  11.068  0.00  0.00    +0.000 C 
ATOM     33  C   UNL     1      43.557   4.274  10.575  0.00  0.00    +0.000 C 
ATOM     34  H   UNL     1      43.315   2.467  12.527  0.00  0.00    +0.000 HD
ENDBRANCH  25  28
ENDBRANCH  23  24
BRANCH  23  35
ATOM     35  C   UNL     1      45.293  10.009  11.949  0.00  0.00    +0.000 C 
BRANCH  35  36
ATOM     36  O   UNL     1      43.957  10.056  12.463  0.00  0.00    +0.000 OA
ATOM     37  H   UNL     1      43.932  10.799  13.092  0.00  0.00    +0.000 HD
ENDBRANCH  35  36
ENDBRANCH  23  35
ENDBRANCH   4  23
TORSDOF 9
ENDMDL
