MODEL 1
REMARK VINA RESULT:    -8.177      0.000      0.000
REMARK INTER + INTRA:         -12.683
REMARK INTER:                 -11.523
REMARK INTRA:                  -1.161
REMARK UNBOUND:                -1.161
REMARK  Name = 
REMARK  8 active torsions:
REMARK  status: ('A' for Active; 'I' for Inactive)
REMARK    1  A    between atoms: C_1  and  N_2
REMARK    2  A    between atoms: N_2  and  C_3
REMARK    3  A    between atoms: N_2  and  C_10
REMARK    4  A    between atoms: C_3  and  C_4
REMARK    5  A    between atoms: C_10  and  C_11
REMARK    6  A    between atoms: C_14  and  C_15
REMARK    7  A    between atoms: C_15  and  N_16
REMARK    8  A    between atoms: C_17  and  C_19
REMARK                            x       y       z     vdW  Elec       q    Type
REMARK                         _______ _______ _______ _____ _____    ______ ____
ROOT
ATOM      1  C   UNL     1      44.838   5.756  11.151  0.00  0.00    +0.000 A 
ATOM      2  C   UNL     1      46.193   5.841  10.841  0.00  0.00    +0.000 A 
ATOM      3  C   UNL     1      47.000   6.714  11.567  0.00  0.00    +0.000 A 
ATOM      4  C   UNL     1      46.440   7.508  12.572  0.00  0.00    +0.000 A 
ATOM      5  C   UNL     1      45.074   7.376  12.795  0.00  0.00    +0.000 A 
ATOM      6  N   UNL     1      44.268   6.527  12.114  0.00  0.00    +0.000 NA
ENDROOT
BRANCH   1   7
ATOM      7  C   UNL     1      43.948   4.753  10.431  0.00  0.00    +0.000 C 
BRANCH   7   9
ATOM      8  C   UNL     1      43.495   2.674  11.587  0.00  0.00    +0.000 C 
ATOM      9  N   UNL     1      44.352   3.328  10.587  0.00  0.00    +0.000 NA
BRANCH   9  10
ATOM     10  C   UNL     1      44.226   2.662   9.271  0.00  0.00    +0.000 C 
BRANCH  10  11
ATOM     11  C   UNL     1      45.490   2.579   8.431  0.00  0.00    +0.000 A 
ATOM     12  C   UNL     1      46.093   1.328   8.213  0.00  0.00    +0.000 A 
ATOM     13  C   UNL     1      47.190   1.198   7.358  0.00  0.00    +0.000 A 
ATOM     14  C   UNL     1      47.703   2.318   6.710  0.00  0.00    +0.000 A 
ATOM     15  C   UNL     1      47.123   3.569   6.922  0.00  0.00    +0.000 A 
ATOM     16  C   UNL     1      46.020   3.698   7.771  0.00  0.00    +0.000 A 
ENDBRANCH  10  11
ENDBRANCH   9  10
ENDBRANCH   7   9
ENDBRANCH   1   7
BRANCH   4  17
ATOM     17  C   UNL     1      47.285   8.424  13.407  0.00  0.00    +0.000 C 
BRANCH  17  18
ATOM     18  N   UNL     1      47.629   7.825  14.675  0.00  0.00    +0.000 N 
ATOM     19  C   UNL     1      48.785   7.097  14.820  0.00  0.00    +0.000 C 
ATOM     20  O   UNL     1      49.592   6.979  13.901  0.00  0.00    +0.000 OA
ATOM     21  H   UNL     1      46.885   7.717  15.359  0.00  0.00    +0.000 HD
BRANCH  19  22
ATOM     22  C   UNL     1      49.045   6.513  16.142  0.00  0.00    +0.000 A 
ATOM     23  C   UNL     1      49.823   7.209  17.058  0.00  0.00    +0.000 A 
ATOM     24  S   UNL     1      49.991   6.420  18.560  0.00  0.00    +0.000 S 
ATOM     25  C   UNL     1      49.074   5.093  18.023  0.00  0.00    +0.000 A 
ATOM     26  N   UNL     1      48.849   4.027  18.840  0.00  0.00    +0.000 NA
ATOM     27  C   UNL     1      48.165   3.076  18.297  0.00  0.00    +0.000 A 
ATOM     28  N   UNL     1      47.677   3.098  17.015  0.00  0.00    +0.000 N 
ATOM     29  C   UNL     1      47.852   4.166  16.166  0.00  0.00    +0.000 A 
ATOM     30  O   UNL     1      47.374   4.173  15.036  0.00  0.00    +0.000 OA
ATOM     31  C   UNL     1      48.625   5.257  16.725  0.00  0.00    +0.000 A 
ATOM     32  H   UNL     1      47.139   2.324  16.654  0.00  0.00    +0.000 HD
ENDBRANCH  19  22
ENDBRANCH  17  18
ENDBRANCH   4  17
TORSDOF 7
ENDMDL
MODEL 2
REMARK VINA RESULT:    -7.755      1.764      2.063
REMARK INTER + INTRA:         -12.090
REMARK INTER:                 -11.313
REMARK INTRA:                  -0.777
REMARK UNBOUND:                -1.161
REMARK  Name = 
REMARK  8 active torsions:
REMARK  status: ('A' for Active; 'I' for Inactive)
REMARK    1  A    between atoms: C_1  and  N_2
REMARK    2  A    between atoms: N_2  and  C_3
REMARK    3  A    between atoms: N_2  and  C_10
REMARK    4  A    between atoms: C_3  and  C_4
REMARK    5  A    between atoms: C_10  and  C_11
REMARK    6  A    between atoms: C_14  and  C_15
REMARK    7  A    between atoms: C_15  and  N_16
REMARK    8  A    between atoms: C_17  and  C_19
REMARK                            x       y       z     vdW  Elec       q    Type
REMARK                         _______ _______ _______ _____ _____    ______ ____
ROOT
ATOM      1  C   UNL     1      45.515   5.459  11.815  0.00  0.00    +0.000 A 
ATOM      2  C   UNL     1      46.330   6.441  11.258  0.00  0.00    +0.000 A 
ATOM      3  C   UNL     1      47.417   6.914  11.990  0.00  0.00    +0.000 A 
ATOM      4  C   UNL     1      47.660   6.421  13.275  0.00  0.00    +0.000 A 
ATOM      5  C   UNL     1      46.780   5.460  13.760  0.00  0.00    +0.000 A 
ATOM      6  N   UNL     1      45.723   4.973  13.067  0.00  0.00    +0.000 NA
ENDROOT
BRANCH   1   7
ATOM      7  C   UNL     1      44.369   4.864  11.009  0.00  0.00    +0.000 C 
BRANCH   7   9
ATOM      8  C   UNL     1      43.517   2.638  11.434  0.00  0.00    +0.000 C 
ATOM      9  N   UNL     1      44.513   3.417  10.685  0.00  0.00    +0.000 NA
BRANCH   9  10
ATOM     10  C   UNL     1      44.326   3.246   9.226  0.00  0.00    +0.000 C 
BRANCH  10  11
ATOM     11  C   UNL     1      45.532   2.759   8.442  0.00  0.00    +0.000 A 
ATOM     12  C   UNL     1      45.861   1.393   8.458  0.00  0.00    +0.000 A 
ATOM     13  C   UNL     1      46.895   0.892   7.664  0.00  0.00    +0.000 A 
ATOM     14  C   UNL     1      47.618   1.751   6.841  0.00  0.00    +0.000 A 
ATOM     15  C   UNL     1      47.312   3.111   6.819  0.00  0.00    +0.000 A 
ATOM     16  C   UNL     1      46.272   3.612   7.608  0.00  0.00    +0.000 A 
ENDBRANCH  10  11
ENDBRANCH   9  10
ENDBRANCH   7   9
ENDBRANCH   1   7
BRANCH   4  17
ATOM     17  C   UNL     1      48.847   6.871  14.074  0.00  0.00    +0.000 C 
BRANCH  17  18
ATOM     18  N   UNL     1      48.504   7.098  15.458  0.00  0.00    +0.000 N 
ATOM     19  C   UNL     1      49.271   6.572  16.469  0.00  0.00    +0.000 C 
ATOM     20  O   UNL     1      50.301   5.945  16.238  0.00  0.00    +0.000 OA
ATOM     21  H   UNL     1      47.557   7.406  15.660  0.00  0.00    +0.000 HD
BRANCH  19  22
ATOM     22  C   UNL     1      48.836   6.844  17.846  0.00  0.00    +0.000 A 
ATOM     23  C   UNL     1      48.518   8.143  18.220  0.00  0.00    +0.000 A 
ATOM     24  S   UNL     1      47.987   8.285  19.834  0.00  0.00    +0.000 S 
ATOM     25  C   UNL     1      48.213   6.622  20.108  0.00  0.00    +0.000 A 
ATOM     26  N   UNL     1      47.954   6.077  21.329  0.00  0.00    +0.000 NA
ATOM     27  C   UNL     1      48.198   4.811  21.409  0.00  0.00    +0.000 A 
ATOM     28  N   UNL     1      48.668   4.040  20.376  0.00  0.00    +0.000 N 
ATOM     29  C   UNL     1      48.913   4.540  19.119  0.00  0.00    +0.000 A 
ATOM     30  O   UNL     1      49.299   3.819  18.204  0.00  0.00    +0.000 OA
ATOM     31  C   UNL     1      48.666   5.962  18.980  0.00  0.00    +0.000 A 
ATOM     32  H   UNL     1      48.828   3.052  20.502  0.00  0.00    +0.000 HD
ENDBRANCH  19  22
ENDBRANCH  17  18
ENDBRANCH   4  17
TORSDOF 7
ENDMDL
MODEL 3
REMARK VINA RESULT:    -7.573      2.298      2.961
REMARK INTER + INTRA:         -11.833
REMARK INTER:                 -10.965
REMARK INTRA:                  -0.868
REMARK UNBOUND:                -1.161
REMARK  Name = 
REMARK  8 active torsions:
REMARK  status: ('A' for Active; 'I' for Inactive)
REMARK    1  A    between atoms: C_1  and  N_2
REMARK    2  A    between atoms: N_2  and  C_3
REMARK    3  A    between atoms: N_2  and  C_10
REMARK    4  A    between atoms: C_3  and  C_4
REMARK    5  A    between atoms: C_10  and  C_11
REMARK    6  A    between atoms: C_14  and  C_15
REMARK    7  A    between atoms: C_15  and  N_16
REMARK    8  A    between atoms: C_17  and  C_19
REMARK                            x       y       z     vdW  Elec       q    Type
REMARK                         _______ _______ _______ _____ _____    ______ ____
ROOT
ATOM      1  C   UNL     1      45.582   5.444  11.834  0.00  0.00    +0.000 A 
ATOM      2  C   UNL     1      46.377   6.473  11.335  0.00  0.00    +0.000 A 
ATOM      3  C   UNL     1      47.417   6.966  12.120  0.00  0.00    +0.000 A 
ATOM      4  C   UNL     1      47.631   6.447  13.400  0.00  0.00    +0.000 A 
ATOM      5  C   UNL     1      46.773   5.440  13.825  0.00  0.00    +0.000 A 
ATOM      6  N   UNL     1      45.762   4.932  13.080  0.00  0.00    +0.000 NA
ENDROOT
BRANCH   1   7
ATOM      7  C   UNL     1      44.490   4.829  10.969  0.00  0.00    +0.000 C 
BRANCH   7   9
ATOM      8  C   UNL     1      43.602   2.705  11.719  0.00  0.00    +0.000 C 
ATOM      9  N   UNL     1      44.568   3.349  10.818  0.00  0.00    +0.000 NA
BRANCH   9  10
ATOM     10  C   UNL     1      44.277   3.010   9.406  0.00  0.00    +0.000 C 
BRANCH  10  11
ATOM     11  C   UNL     1      45.477   2.746   8.513  0.00  0.00    +0.000 A 
ATOM     12  C   UNL     1      45.972   1.436   8.391  0.00  0.00    +0.000 A 
ATOM     13  C   UNL     1      47.003   1.137   7.497  0.00  0.00    +0.000 A 
ATOM     14  C   UNL     1      47.555   2.144   6.710  0.00  0.00    +0.000 A 
ATOM     15  C   UNL     1      47.082   3.451   6.824  0.00  0.00    +0.000 A 
ATOM     16  C   UNL     1      46.046   3.750   7.714  0.00  0.00    +0.000 A 
ENDBRANCH  10  11
ENDBRANCH   9  10
ENDBRANCH   7   9
ENDBRANCH   1   7
BRANCH   4  17
ATOM     17  C   UNL     1      48.770   6.919  14.255  0.00  0.00    +0.000 C 
BRANCH  17  18
ATOM     18  N   UNL     1      48.382   7.036  15.641  0.00  0.00    +0.000 N 
ATOM     19  C   UNL     1      49.060   6.354  16.622  0.00  0.00    +0.000 C 
ATOM     20  O   UNL     1      50.049   5.671  16.367  0.00  0.00    +0.000 OA
ATOM     21  H   UNL     1      47.453   7.398  15.838  0.00  0.00    +0.000 HD
BRANCH  19  22
ATOM     22  C   UNL     1      48.586   6.524  18.002  0.00  0.00    +0.000 A 
ATOM     23  C   UNL     1      48.584   5.434  18.864  0.00  0.00    +0.000 A 
ATOM     24  S   UNL     1      48.050   5.805  20.441  0.00  0.00    +0.000 S 
ATOM     25  C   UNL     1      47.752   7.423  20.015  0.00  0.00    +0.000 A 
ATOM     26  N   UNL     1      47.252   8.302  20.927  0.00  0.00    +0.000 NA
ATOM     27  C   UNL     1      47.043   9.489  20.463  0.00  0.00    +0.000 A 
ATOM     28  N   UNL     1      47.299   9.880  19.173  0.00  0.00    +0.000 N 
ATOM     29  C   UNL     1      47.833   9.037  18.228  0.00  0.00    +0.000 A 
ATOM     30  O   UNL     1      48.085   9.423  17.090  0.00  0.00    +0.000 OA
ATOM     31  C   UNL     1      48.075   7.685  18.695  0.00  0.00    +0.000 A 
ATOM     32  H   UNL     1      47.123  10.828  18.877  0.00  0.00    +0.000 HD
ENDBRANCH  19  22
ENDBRANCH  17  18
ENDBRANCH   4  17
TORSDOF 7
ENDMDL
MODEL 4
REMARK VINA RESULT:    -7.146      1.907      2.275
REMARK INTER + INTRA:         -11.231
REMARK INTER:                 -10.238
REMARK INTRA:                  -0.993
REMARK UNBOUND:                -1.161
REMARK  Name = 
REMARK  8 active torsions:
REMARK  status: ('A' for Active; 'I' for Inactive)
REMARK    1  A    between atoms: C_1  and  N_2
REMARK    2  A    between atoms: N_2  and  C_3
REMARK    3  A    between atoms: N_2  and  C_10
REMARK    4  A    between atoms: C_3  and  C_4
REMARK    5  A    between atoms: C_10  and  C_11
REMARK    6  A    between atoms: C_14  and  C_15
REMARK    7  A    between atoms: C_15  and  N_16
REMARK    8  A    between atoms: C_17  and  C_19
REMARK                            x       y       z     vdW  Elec       q    Type
REMARK                         _______ _______ _______ _____ _____    ______ ____
ROOT
ATOM      1  C   UNL     1      45.615   5.418  11.938  0.00  0.00    +0.000 A 
ATOM      2  C   UNL     1      45.994   4.859  13.157  0.00  0.00    +0.000 A 
ATOM      3  C   UNL     1      47.059   5.423  13.857  0.00  0.00    +0.000 A 
ATOM      4  C   UNL     1      47.745   6.516  13.322  0.00  0.00    +0.000 A 
ATOM      5  C   UNL     1      47.314   6.991  12.089  0.00  0.00    +0.000 A 
ATOM      6  N   UNL     1      46.275   6.472  11.391  0.00  0.00    +0.000 NA
ENDROOT
BRANCH   1   7
ATOM      7  C   UNL     1      44.407   4.876  11.189  0.00  0.00    +0.000 C 
BRANCH   7   9
ATOM      8  C   UNL     1      43.423   2.743  11.779  0.00  0.00    +0.000 C 
ATOM      9  N   UNL     1      44.430   3.407  10.939  0.00  0.00    +0.000 NA
BRANCH   9  10
ATOM     10  C   UNL     1      44.152   3.175   9.503  0.00  0.00    +0.000 C 
BRANCH  10  11
ATOM     11  C   UNL     1      45.352   2.868   8.623  0.00  0.00    +0.000 A 
ATOM     12  C   UNL     1      45.812   1.544   8.521  0.00  0.00    +0.000 A 
ATOM     13  C   UNL     1      46.841   1.206   7.640  0.00  0.00    +0.000 A 
ATOM     14  C   UNL     1      47.427   2.188   6.845  0.00  0.00    +0.000 A 
ATOM     15  C   UNL     1      46.989   3.508   6.939  0.00  0.00    +0.000 A 
ATOM     16  C   UNL     1      45.954   3.846   7.816  0.00  0.00    +0.000 A 
ENDBRANCH  10  11
ENDBRANCH   9  10
ENDBRANCH   7   9
ENDBRANCH   1   7
BRANCH   4  17
ATOM     17  C   UNL     1      48.864   7.179  14.069  0.00  0.00    +0.000 C 
BRANCH  17  18
ATOM     18  N   UNL     1      49.141   6.510  15.319  0.00  0.00    +0.000 N 
ATOM     19  C   UNL     1      50.326   6.718  15.982  0.00  0.00    +0.000 C 
ATOM     20  O   UNL     1      51.163   7.518  15.571  0.00  0.00    +0.000 OA
ATOM     21  H   UNL     1      48.580   5.694  15.547  0.00  0.00    +0.000 HD
BRANCH  19  22
ATOM     22  C   UNL     1      50.526   5.984  17.238  0.00  0.00    +0.000 A 
ATOM     23  C   UNL     1      51.555   5.055  17.333  0.00  0.00    +0.000 A 
ATOM     24  S   UNL     1      51.684   4.324  18.868  0.00  0.00    +0.000 S 
ATOM     25  C   UNL     1      50.337   5.184  19.447  0.00  0.00    +0.000 A 
ATOM     26  N   UNL     1      49.891   5.002  20.721  0.00  0.00    +0.000 NA
ATOM     27  C   UNL     1      48.841   5.693  21.021  0.00  0.00    +0.000 A 
ATOM     28  N   UNL     1      48.204   6.556  20.166  0.00  0.00    +0.000 N 
ATOM     29  C   UNL     1      48.638   6.796  18.883  0.00  0.00    +0.000 A 
ATOM     30  O   UNL     1      48.069   7.600  18.153  0.00  0.00    +0.000 OA
ATOM     31  C   UNL     1      49.808   6.034  18.492  0.00  0.00    +0.000 A 
ATOM     32  H   UNL     1      47.393   7.075  20.467  0.00  0.00    +0.000 HD
ENDBRANCH  19  22
ENDBRANCH  17  18
ENDBRANCH   4  17
TORSDOF 7
ENDMDL
MODEL 5
REMARK VINA RESULT:    -6.962      2.918      8.310
REMARK INTER + INTRA:         -10.972
REMARK INTER:                  -9.376
REMARK INTRA:                  -1.597
REMARK UNBOUND:                -1.161
REMARK  Name = 
REMARK  8 active torsions:
REMARK  status: ('A' for Active; 'I' for Inactive)
REMARK    1  A    between atoms: C_1  and  N_2
REMARK    2  A    between atoms: N_2  and  C_3
REMARK    3  A    between atoms: N_2  and  C_10
REMARK    4  A    between atoms: C_3  and  C_4
REMARK    5  A    between atoms: C_10  and  C_11
REMARK    6  A    between atoms: C_14  and  C_15
REMARK    7  A    between atoms: C_15  and  N_16
REMARK    8  A    between atoms: C_17  and  C_19
REMARK                            x       y       z     vdW  Elec       q    Type
REMARK                         _______ _______ _______ _____ _____    ______ ____
ROOT
ATOM      1  C   UNL     1      49.011   8.232  16.103  0.00  0.00    +0.000 A 
ATOM      2  C   UNL     1      49.510   7.162  15.364  0.00  0.00    +0.000 A 
ATOM      3  C   UNL     1      49.105   7.008  14.040  0.00  0.00    +0.000 A 
ATOM      4  C   UNL     1      48.190   7.903  13.481  0.00  0.00    +0.000 A 
ATOM      5  C   UNL     1      47.725   8.926  14.301  0.00  0.00    +0.000 A 
ATOM      6  N   UNL     1      48.110   9.109  15.587  0.00  0.00    +0.000 NA
ENDROOT
BRANCH   1   7
ATOM      7  C   UNL     1      49.496   8.474  17.526  0.00  0.00    +0.000 C 
BRANCH   7   9
ATOM      8  C   UNL     1      51.331   7.860  18.981  0.00  0.00    +0.000 C 
ATOM      9  N   UNL     1      50.247   7.341  18.135  0.00  0.00    +0.000 NA
BRANCH   9  10
ATOM     10  C   UNL     1      49.300   6.531  18.933  0.00  0.00    +0.000 C 
BRANCH  10  11
ATOM     11  C   UNL     1      48.878   5.199  18.334  0.00  0.00    +0.000 A 
ATOM     12  C   UNL     1      47.558   5.033  17.881  0.00  0.00    +0.000 A 
ATOM     13  C   UNL     1      47.163   3.864  17.227  0.00  0.00    +0.000 A 
ATOM     14  C   UNL     1      48.084   2.841  17.016  0.00  0.00    +0.000 A 
ATOM     15  C   UNL     1      49.395   2.984  17.467  0.00  0.00    +0.000 A 
ATOM     16  C   UNL     1      49.793   4.158  18.115  0.00  0.00    +0.000 A 
ENDBRANCH  10  11
ENDBRANCH   9  10
ENDBRANCH   7   9
ENDBRANCH   1   7
BRANCH   4  17
ATOM     17  C   UNL     1      47.768   7.797  12.046  0.00  0.00    +0.000 C 
BRANCH  17  18
ATOM     18  N   UNL     1      47.050   6.571  11.791  0.00  0.00    +0.000 N 
ATOM     19  C   UNL     1      45.682   6.518  11.906  0.00  0.00    +0.000 C 
ATOM     20  O   UNL     1      45.018   7.518  12.171  0.00  0.00    +0.000 OA
ATOM     21  H   UNL     1      47.583   5.706  11.799  0.00  0.00    +0.000 HD
BRANCH  19  22
ATOM     22  C   UNL     1      45.038   5.225  11.641  0.00  0.00    +0.000 A 
ATOM     23  C   UNL     1      44.347   4.582  12.660  0.00  0.00    +0.000 A 
ATOM     24  S   UNL     1      43.619   3.116  12.181  0.00  0.00    +0.000 S 
ATOM     25  C   UNL     1      44.245   3.261  10.606  0.00  0.00    +0.000 A 
ATOM     26  N   UNL     1      44.004   2.301   9.671  0.00  0.00    +0.000 NA
ATOM     27  C   UNL     1      44.564   2.520   8.528  0.00  0.00    +0.000 A 
ATOM     28  N   UNL     1      45.335   3.616   8.233  0.00  0.00    +0.000 N 
ATOM     29  C   UNL     1      45.578   4.625   9.135  0.00  0.00    +0.000 A 
ATOM     30  O   UNL     1      46.243   5.611   8.832  0.00  0.00    +0.000 OA
ATOM     31  C   UNL     1      44.981   4.421  10.440  0.00  0.00    +0.000 A 
ATOM     32  H   UNL     1      45.736   3.732   7.314  0.00  0.00    +0.000 HD
ENDBRANCH  19  22
ENDBRANCH  17  18
ENDBRANCH   4  17
TORSDOF 7
ENDMDL
MODEL 6
REMARK VINA RESULT:    -6.300      3.835      4.944
REMARK INTER + INTRA:         -10.038
REMARK INTER:                  -9.347
REMARK INTRA:                  -0.691
REMARK UNBOUND:                -1.161
REMARK  Name = 
REMARK  8 active torsions:
REMARK  status: ('A' for Active; 'I' for Inactive)
REMARK    1  A    between atoms: C_1  and  N_2
REMARK    2  A    between atoms: N_2  and  C_3
REMARK    3  A    between atoms: N_2  and  C_10
REMARK    4  A    between atoms: C_3  and  C_4
REMARK    5  A    between atoms: C_10  and  C_11
REMARK    6  A    between atoms: C_14  and  C_15
REMARK    7  A    between atoms: C_15  and  N_16
REMARK    8  A    between atoms: C_17  and  C_19
REMARK                            x       y       z     vdW  Elec       q    Type
REMARK                         _______ _______ _______ _____ _____    ______ ____
ROOT
ATOM      1  C   UNL     1      44.859   5.476  11.063  0.00  0.00    +0.000 A 
ATOM      2  C   UNL     1      44.263   6.038  12.189  0.00  0.00    +0.000 A 
ATOM      3  C   UNL     1      44.951   7.020  12.900  0.00  0.00    +0.000 A 
ATOM      4  C   UNL     1      46.231   7.406  12.494  0.00  0.00    +0.000 A 
ATOM      5  C   UNL     1      46.758   6.773  11.374  0.00  0.00    +0.000 A 
ATOM      6  N   UNL     1      46.108   5.825  10.656  0.00  0.00    +0.000 NA
ENDROOT
BRANCH   1   7
ATOM      7  C   UNL     1      44.100   4.461  10.219  0.00  0.00    +0.000 C 
BRANCH   7   9
ATOM      8  C   UNL     1      43.524   2.513  11.537  0.00  0.00    +0.000 C 
ATOM      9  N   UNL     1      44.430   3.036  10.504  0.00  0.00    +0.000 NA
BRANCH   9  10
ATOM     10  C   UNL     1      44.293   2.267   9.247  0.00  0.00    +0.000 C 
BRANCH  10  11
ATOM     11  C   UNL     1      45.477   2.312   8.295  0.00  0.00    +0.000 A 
ATOM     12  C   UNL     1      45.826   3.529   7.684  0.00  0.00    +0.000 A 
ATOM     13  C   UNL     1      46.970   3.633   6.890  0.00  0.00    +0.000 A 
ATOM     14  C   UNL     1      47.784   2.521   6.695  0.00  0.00    +0.000 A 
ATOM     15  C   UNL     1      47.449   1.303   7.285  0.00  0.00    +0.000 A 
ATOM     16  C   UNL     1      46.307   1.200   8.086  0.00  0.00    +0.000 A 
ENDBRANCH  10  11
ENDBRANCH   9  10
ENDBRANCH   7   9
ENDBRANCH   1   7
BRANCH   4  17
ATOM     17  C   UNL     1      46.982   8.492  13.205  0.00  0.00    +0.000 C 
BRANCH  17  18
ATOM     18  N   UNL     1      48.299   8.685  12.644  0.00  0.00    +0.000 N 
ATOM     19  C   UNL     1      48.761   9.945  12.349  0.00  0.00    +0.000 C 
ATOM     20  O   UNL     1      48.102  10.950  12.602  0.00  0.00    +0.000 OA
ATOM     21  H   UNL     1      48.751   7.878  12.223  0.00  0.00    +0.000 HD
BRANCH  19  22
ATOM     22  C   UNL     1      50.107  10.043  11.768  0.00  0.00    +0.000 A 
ATOM     23  C   UNL     1      50.315  10.846  10.654  0.00  0.00    +0.000 A 
ATOM     24  S   UNL     1      51.937  10.890  10.130  0.00  0.00    +0.000 S 
ATOM     25  C   UNL     1      52.412   9.796  11.342  0.00  0.00    +0.000 A 
ATOM     26  N   UNL     1      53.707   9.386  11.441  0.00  0.00    +0.000 NA
ATOM     27  C   UNL     1      53.923   8.530  12.384  0.00  0.00    +0.000 A 
ATOM     28  N   UNL     1      52.965   8.055  13.243  0.00  0.00    +0.000 N 
ATOM     29  C   UNL     1      51.652   8.465  13.200  0.00  0.00    +0.000 A 
ATOM     30  O   UNL     1      50.824   8.049  14.004  0.00  0.00    +0.000 OA
ATOM     31  C   UNL     1      51.353   9.417  12.149  0.00  0.00    +0.000 A 
ATOM     32  H   UNL     1      53.203   7.394  13.966  0.00  0.00    +0.000 HD
ENDBRANCH  19  22
ENDBRANCH  17  18
ENDBRANCH   4  17
TORSDOF 7
ENDMDL
MODEL 7
REMARK VINA RESULT:    -6.245      2.013      2.520
REMARK INTER + INTRA:          -9.961
REMARK INTER:                  -9.633
REMARK INTRA:                  -0.328
REMARK UNBOUND:                -1.161
REMARK  Name = 
REMARK  8 active torsions:
REMARK  status: ('A' for Active; 'I' for Inactive)
REMARK    1  A    between atoms: C_1  and  N_2
REMARK    2  A    between atoms: N_2  and  C_3
REMARK    3  A    between atoms: N_2  and  C_10
REMARK    4  A    between atoms: C_3  and  C_4
REMARK    5  A    between atoms: C_10  and  C_11
REMARK    6  A    between atoms: C_14  and  C_15
REMARK    7  A    between atoms: C_15  and  N_16
REMARK    8  A    between atoms: C_17  and  C_19
REMARK                            x       y       z     vdW  Elec       q    Type
REMARK                         _______ _______ _______ _____ _____    ______ ____
ROOT
ATOM      1  C   UNL     1      45.668   5.482  11.501  0.00  0.00    +0.000 A 
ATOM      2  C   UNL     1      46.185   6.703  11.073  0.00  0.00    +0.000 A 
ATOM      3  C   UNL     1      47.179   7.319  11.831  0.00  0.00    +0.000 A 
ATOM      4  C   UNL     1      47.623   6.724  13.014  0.00  0.00    +0.000 A 
ATOM      5  C   UNL     1      47.033   5.518  13.377  0.00  0.00    +0.000 A 
ATOM      6  N   UNL     1      46.074   4.890  12.655  0.00  0.00    +0.000 NA
ENDROOT
BRANCH   1   7
ATOM      7  C   UNL     1      44.639   4.746  10.654  0.00  0.00    +0.000 C 
BRANCH   7   9
ATOM      8  C   UNL     1      44.177   2.510   9.845  0.00  0.00    +0.000 C 
ATOM      9  N   UNL     1      45.175   3.590   9.880  0.00  0.00    +0.000 NA
BRANCH   9  10
ATOM     10  C   UNL     1      45.494   4.055   8.512  0.00  0.00    +0.000 C 
BRANCH  10  11
ATOM     11  C   UNL     1      46.134   3.036   7.584  0.00  0.00    +0.000 A 
ATOM     12  C   UNL     1      46.433   3.401   6.259  0.00  0.00    +0.000 A 
ATOM     13  C   UNL     1      47.119   2.529   5.411  0.00  0.00    +0.000 A 
ATOM     14  C   UNL     1      47.517   1.278   5.874  0.00  0.00    +0.000 A 
ATOM     15  C   UNL     1      47.222   0.896   7.182  0.00  0.00    +0.000 A 
ATOM     16  C   UNL     1      46.541   1.771   8.034  0.00  0.00    +0.000 A 
ENDBRANCH  10  11
ENDBRANCH   9  10
ENDBRANCH   7   9
ENDBRANCH   1   7
BRANCH   4  17
ATOM     17  C   UNL     1      48.725   7.332  13.830  0.00  0.00    +0.000 C 
BRANCH  17  18
ATOM     18  N   UNL     1      48.819   6.724  15.137  0.00  0.00    +0.000 N 
ATOM     19  C   UNL     1      49.076   7.485  16.251  0.00  0.00    +0.000 C 
ATOM     20  O   UNL     1      49.176   8.708  16.188  0.00  0.00    +0.000 OA
ATOM     21  H   UNL     1      48.968   5.720  15.176  0.00  0.00    +0.000 HD
BRANCH  19  22
ATOM     22  C   UNL     1      49.169   6.778  17.536  0.00  0.00    +0.000 A 
ATOM     23  C   UNL     1      48.084   6.791  18.404  0.00  0.00    +0.000 A 
ATOM     24  S   UNL     1      48.332   5.887  19.828  0.00  0.00    +0.000 S 
ATOM     25  C   UNL     1      49.918   5.489  19.361  0.00  0.00    +0.000 A 
ATOM     26  N   UNL     1      50.711   4.729  20.166  0.00  0.00    +0.000 NA
ATOM     27  C   UNL     1      51.901   4.529  19.705  0.00  0.00    +0.000 A 
ATOM     28  N   UNL     1      52.366   5.011  18.508  0.00  0.00    +0.000 N 
ATOM     29  C   UNL     1      51.592   5.754  17.649  0.00  0.00    +0.000 A 
ATOM     30  O   UNL     1      52.023   6.143  16.568  0.00  0.00    +0.000 OA
ATOM     31  C   UNL     1      50.248   6.019  18.126  0.00  0.00    +0.000 A 
ATOM     32  H   UNL     1      53.305   4.809  18.201  0.00  0.00    +0.000 HD
ENDBRANCH  19  22
ENDBRANCH  17  18
ENDBRANCH   4  17
TORSDOF 7
ENDMDL
MODEL 8
REMARK VINA RESULT:    -6.239      3.424      7.893
REMARK INTER + INTRA:          -9.953
REMARK INTER:                  -7.995
REMARK INTRA:                  -1.957
REMARK UNBOUND:                -1.161
REMARK  Name = 
REMARK  8 active torsions:
REMARK  status: ('A' for Active; 'I' for Inactive)
REMARK    1  A    between atoms: C_1  and  N_2
REMARK    2  A    between atoms: N_2  and  C_3
REMARK    3  A    between atoms: N_2  and  C_10
REMARK    4  A    between atoms: C_3  and  C_4
REMARK    5  A    between atoms: C_10  and  C_11
REMARK    6  A    between atoms: C_14  and  C_15
REMARK    7  A    between atoms: C_15  and  N_16
REMARK    8  A    between atoms: C_17  and  C_19
REMARK                            x       y       z     vdW  Elec       q    Type
REMARK                         _______ _______ _______ _____ _____    ______ ____
ROOT
ATOM      1  C   UNL     1      50.328   7.799  17.117  0.00  0.00    +0.000 A 
ATOM      2  C   UNL     1      50.729   7.053  16.010  0.00  0.00    +0.000 A 
ATOM      3  C   UNL     1      50.194   7.357  14.760  0.00  0.00    +0.000 A 
ATOM      4  C   UNL     1      49.251   8.379  14.635  0.00  0.00    +0.000 A 
ATOM      5  C   UNL     1      48.891   9.054  15.796  0.00  0.00    +0.000 A 
ATOM      6  N   UNL     1      49.403   8.789  17.023  0.00  0.00    +0.000 NA
ENDROOT
BRANCH   1   7
ATOM      7  C   UNL     1      50.954   7.545  18.481  0.00  0.00    +0.000 C 
BRANCH   7   9
ATOM      8  C   UNL     1      52.285   6.004  19.791  0.00  0.00    +0.000 C 
ATOM      9  N   UNL     1      51.206   6.111  18.799  0.00  0.00    +0.000 NA
BRANCH   9  10
ATOM     10  C   UNL     1      49.952   5.523  19.320  0.00  0.00    +0.000 C 
BRANCH  10  11
ATOM     11  C   UNL     1      49.261   4.504  18.429  0.00  0.00    +0.000 A 
ATOM     12  C   UNL     1      47.903   4.677  18.107  0.00  0.00    +0.000 A 
ATOM     13  C   UNL     1      47.264   3.823  17.205  0.00  0.00    +0.000 A 
ATOM     14  C   UNL     1      47.973   2.782  16.611  0.00  0.00    +0.000 A 
ATOM     15  C   UNL     1      49.317   2.590  16.926  0.00  0.00    +0.000 A 
ATOM     16  C   UNL     1      49.960   3.449  17.823  0.00  0.00    +0.000 A 
ENDBRANCH  10  11
ENDBRANCH   9  10
ENDBRANCH   7   9
ENDBRANCH   1   7
BRANCH   4  17
ATOM     17  C   UNL     1      48.690   8.767  13.299  0.00  0.00    +0.000 C 
BRANCH  17  18
ATOM     18  N   UNL     1      47.769   7.773  12.799  0.00  0.00    +0.000 N 
ATOM     19  C   UNL     1      46.412   7.931  12.951  0.00  0.00    +0.000 C 
ATOM     20  O   UNL     1      45.933   8.941  13.461  0.00  0.00    +0.000 OA
ATOM     21  H   UNL     1      48.142   6.851  12.591  0.00  0.00    +0.000 HD
BRANCH  19  22
ATOM     22  C   UNL     1      45.553   6.862  12.423  0.00  0.00    +0.000 A 
ATOM     23  C   UNL     1      44.448   7.192  11.648  0.00  0.00    +0.000 A 
ATOM     24  S   UNL     1      43.582   5.840  11.074  0.00  0.00    +0.000 S 
ATOM     25  C   UNL     1      44.622   4.766  11.884  0.00  0.00    +0.000 A 
ATOM     26  N   UNL     1      44.419   3.420  11.819  0.00  0.00    +0.000 NA
ATOM     27  C   UNL     1      45.262   2.722  12.505  0.00  0.00    +0.000 A 
ATOM     28  N   UNL     1      46.294   3.246  13.241  0.00  0.00    +0.000 N 
ATOM     29  C   UNL     1      46.556   4.595  13.309  0.00  0.00    +0.000 A 
ATOM     30  O   UNL     1      47.508   5.033  13.947  0.00  0.00    +0.000 OA
ATOM     31  C   UNL     1      45.629   5.425  12.565  0.00  0.00    +0.000 A 
ATOM     32  H   UNL     1      46.926   2.644  13.747  0.00  0.00    +0.000 HD
ENDBRANCH  19  22
ENDBRANCH  17  18
ENDBRANCH   4  17
TORSDOF 7
ENDMDL
MODEL 9
REMARK VINA RESULT:    -6.086      1.733      2.144
REMARK INTER + INTRA:          -9.737
REMARK INTER:                 -10.001
REMARK INTRA:                   0.263
REMARK UNBOUND:                -1.161
REMARK  Name = 
REMARK  8 active torsions:
REMARK  status: ('A' for Active; 'I' for Inactive)
REMARK    1  A    between atoms: C_1  and  N_2
REMARK    2  A    between atoms: N_2  and  C_3
REMARK    3  A    between atoms: N_2  and  C_10
REMARK    4  A    between atoms: C_3  and  C_4
REMARK    5  A    between atoms: C_10  and  C_11
REMARK    6  A    between atoms: C_14  and  C_15
REMARK    7  A    between atoms: C_15  and  N_16
REMARK    8  A    between atoms: C_17  and  C_19
REMARK                            x       y       z     vdW  Elec       q    Type
REMARK                         _______ _______ _______ _____ _____    ______ ____
ROOT
ATOM      1  C   UNL     1      44.778   4.268  11.581  0.00  0.00    +0.000 A 
ATOM      2  C   UNL     1      45.751   3.880  12.499  0.00  0.00    +0.000 A 
ATOM      3  C   UNL     1      46.487   4.862  13.159  0.00  0.00    +0.000 A 
ATOM      4  C   UNL     1      46.262   6.211  12.877  0.00  0.00    +0.000 A 
ATOM      5  C   UNL     1      45.288   6.505  11.928  0.00  0.00    +0.000 A 
ATOM      6  N   UNL     1      44.549   5.573  11.279  0.00  0.00    +0.000 NA
ENDROOT
BRANCH   1   7
ATOM      7  C   UNL     1      43.903   3.223  10.904  0.00  0.00    +0.000 C 
BRANCH   7   9
ATOM      8  C   UNL     1      44.134   4.194   8.698  0.00  0.00    +0.000 C 
ATOM      9  N   UNL     1      44.237   2.952   9.478  0.00  0.00    +0.000 NA
BRANCH   9  10
ATOM     10  C   UNL     1      45.612   2.407   9.418  0.00  0.00    +0.000 C 
BRANCH  10  11
ATOM     11  C   UNL     1      46.168   2.124   8.032  0.00  0.00    +0.000 A 
ATOM     12  C   UNL     1      46.284   3.176   7.108  0.00  0.00    +0.000 A 
ATOM     13  C   UNL     1      46.890   2.978   5.865  0.00  0.00    +0.000 A 
ATOM     14  C   UNL     1      47.389   1.723   5.527  0.00  0.00    +0.000 A 
ATOM     15  C   UNL     1      47.275   0.665   6.428  0.00  0.00    +0.000 A 
ATOM     16  C   UNL     1      46.674   0.865   7.675  0.00  0.00    +0.000 A 
ENDBRANCH  10  11
ENDBRANCH   9  10
ENDBRANCH   7   9
ENDBRANCH   1   7
BRANCH   4  17
ATOM     17  C   UNL     1      47.000   7.297  13.602  0.00  0.00    +0.000 C 
BRANCH  17  18
ATOM     18  N   UNL     1      48.169   6.786  14.279  0.00  0.00    +0.000 N 
ATOM     19  C   UNL     1      48.897   7.584  15.129  0.00  0.00    +0.000 C 
ATOM     20  O   UNL     1      48.550   8.734  15.387  0.00  0.00    +0.000 OA
ATOM     21  H   UNL     1      48.592   5.939  13.910  0.00  0.00    +0.000 HD
BRANCH  19  22
ATOM     22  C   UNL     1      50.078   6.983  15.762  0.00  0.00    +0.000 A 
ATOM     23  C   UNL     1      51.330   7.545  15.547  0.00  0.00    +0.000 A 
ATOM     24  S   UNL     1      52.590   6.761  16.388  0.00  0.00    +0.000 S 
ATOM     25  C   UNL     1      51.515   5.609  17.028  0.00  0.00    +0.000 A 
ATOM     26  N   UNL     1      51.965   4.613  17.839  0.00  0.00    +0.000 NA
ATOM     27  C   UNL     1      51.050   3.789  18.229  0.00  0.00    +0.000 A 
ATOM     28  N   UNL     1      49.724   3.879  17.890  0.00  0.00    +0.000 N 
ATOM     29  C   UNL     1      49.218   4.885  17.101  0.00  0.00    +0.000 A 
ATOM     30  O   UNL     1      48.021   4.960  16.843  0.00  0.00    +0.000 OA
ATOM     31  C   UNL     1      50.210   5.831  16.625  0.00  0.00    +0.000 A 
ATOM     32  H   UNL     1      49.056   3.207  18.238  0.00  0.00    +0.000 HD
ENDBRANCH  19  22
ENDBRANCH  17  18
ENDBRANCH   4  17
TORSDOF 7
ENDMDL
