MODEL 1
REMARK VINA RESULT:    -8.600      0.000      0.000
REMARK INTER + INTRA:         -13.101
REMARK INTER:                 -12.120
REMARK INTRA:                  -0.981
REMARK UNBOUND:                -0.981
REMARK  Name = 
REMARK  9 active torsions:
REMARK  status: ('A' for Active; 'I' for Inactive)
REMARK    1  A    between atoms: C_1  and  C_2
REMARK    2  A    between atoms: C_8  and  C_9
REMARK    3  A    between atoms: C_11  and  C_12
REMARK    4  A    between atoms: N_14  and  C_15
REMARK    5  A    between atoms: C_15  and  C_16
REMARK    6  A    between atoms: C_19  and  O_20
REMARK    7  A    between atoms: O_20  and  C_21
REMARK    8  A    between atoms: C_21  and  C_22
REMARK    9  A    between atoms: C_22  and  C_23
REMARK                            x       y       z     vdW  Elec       q    Type
REMARK                         _______ _______ _______ _____ _____    ______ ____
ROOT
ATOM      1  C   UNL     1      48.893   5.577  16.264  0.00  0.00    +0.000 C 
ATOM      2  O   UNL     1      49.929   6.118  15.891  0.00  0.00    +0.000 OA
ATOM      3  N   UNL     1      47.750   5.620  15.490  0.00  0.00    +0.000 N 
ATOM      4  H   UNL     1      46.868   5.452  15.952  0.00  0.00    +0.000 HD
ENDROOT
BRANCH   1  15
ATOM      5  C   UNL     1      48.811   2.426  16.701  0.00  0.00    +0.000 C 
ATOM      6  C   UNL     1      48.729   3.517  17.708  0.00  0.00    +0.000 A 
ATOM      7  N   UNL     1      48.577   3.203  19.032  0.00  0.00    +0.000 N 
ATOM      8  C   UNL     1      48.536   4.336  19.780  0.00  0.00    +0.000 A 
ATOM      9  N   UNL     1      48.375   4.310  21.111  0.00  0.00    +0.000 NA
ATOM     10  C   UNL     1      48.347   5.537  21.630  0.00  0.00    +0.000 A 
ATOM     11  N   UNL     1      48.458   6.697  20.964  0.00  0.00    +0.000 NA
ATOM     12  C   UNL     1      48.611   6.685  19.603  0.00  0.00    +0.000 A 
ATOM     13  C   UNL     1      48.701   8.039  18.977  0.00  0.00    +0.000 C 
ATOM     14  C   UNL     1      48.665   5.438  18.938  0.00  0.00    +0.000 A 
ATOM     15  C   UNL     1      48.787   4.913  17.582  0.00  0.00    +0.000 A 
ATOM     16  H   UNL     1      48.494   2.277  19.426  0.00  0.00    +0.000 HD
ENDBRANCH   1  15
BRANCH   3  17
ATOM     17  C   UNL     1      47.725   6.341  14.229  0.00  0.00    +0.000 C 
BRANCH  17  18
ATOM     18  C   UNL     1      46.649   5.829  13.295  0.00  0.00    +0.000 A 
ATOM     19  C   UNL     1      45.760   4.815  13.687  0.00  0.00    +0.000 A 
ATOM     20  C   UNL     1      44.766   4.344  12.810  0.00  0.00    +0.000 A 
ATOM     21  C   UNL     1      44.647   4.878  11.528  0.00  0.00    +0.000 A 
ATOM     22  C   UNL     1      45.537   5.873  11.126  0.00  0.00    +0.000 A 
ATOM     23  C   UNL     1      46.521   6.354  12.001  0.00  0.00    +0.000 A 
BRANCH  21  24
ATOM     24  O   UNL     1      43.755   4.466  10.570  0.00  0.00    +0.000 OA
BRANCH  24  25
ATOM     25  C   UNL     1      44.315   4.168   9.288  0.00  0.00    +0.000 C 
BRANCH  25  26
ATOM     26  C   UNL     1      44.743   2.697   9.259  0.00  0.00    +0.000 C 
BRANCH  26  27
ATOM     27  C   UNL     1      45.722   2.430   8.142  0.00  0.00    +0.000 A 
ATOM     28  C   UNL     1      45.949   3.383   7.141  0.00  0.00    +0.000 A 
ATOM     29  C   UNL     1      46.831   3.109   6.092  0.00  0.00    +0.000 A 
ATOM     30  C   UNL     1      47.488   1.881   6.031  0.00  0.00    +0.000 A 
ATOM     31  C   UNL     1      47.264   0.925   7.019  0.00  0.00    +0.000 A 
ATOM     32  C   UNL     1      46.385   1.196   8.069  0.00  0.00    +0.000 A 
ENDBRANCH  26  27
ENDBRANCH  25  26
ENDBRANCH  24  25
ENDBRANCH  21  24
ENDBRANCH  17  18
ENDBRANCH   3  17
TORSDOF 7
ENDMDL
MODEL 2
REMARK VINA RESULT:    -8.146      1.512      2.674
REMARK INTER + INTRA:         -12.461
REMARK INTER:                 -11.242
REMARK INTRA:                  -1.219
REMARK UNBOUND:                -0.981
REMARK  Name = 
REMARK  9 active torsions:
REMARK  status: ('A' for Active; 'I' for Inactive)
REMARK    1  A    between atoms: C_1  and  C_2
REMARK    2  A    between atoms: C_8  and  C_9
REMARK    3  A    between atoms: C_11  and  C_12
REMARK    4  A    between atoms: N_14  and  C_15
REMARK    5  A    between atoms: C_15  and  C_16
REMARK    6  A    between atoms: C_19  and  O_20
REMARK    7  A    between atoms: O_20  and  C_21
REMARK    8  A    between atoms: C_21  and  C_22
REMARK    9  A    between atoms: C_22  and  C_23
REMARK                            x       y       z     vdW  Elec       q    Type
REMARK                         _______ _______ _______ _____ _____    ______ ____
ROOT
ATOM      1  C   UNL     1      48.654   6.894  14.482  0.00  0.00    +0.000 C 
ATOM      2  O   UNL     1      49.479   6.779  13.582  0.00  0.00    +0.000 OA
ATOM      3  N   UNL     1      47.336   7.195  14.203  0.00  0.00    +0.000 N 
ATOM      4  H   UNL     1      46.779   7.585  14.951  0.00  0.00    +0.000 HD
ENDROOT
BRANCH   1  15
ATOM      5  C   UNL     1      50.221   9.133  16.114  0.00  0.00    +0.000 C 
ATOM      6  C   UNL     1      49.746   7.799  16.566  0.00  0.00    +0.000 A 
ATOM      7  N   UNL     1      49.997   7.394  17.851  0.00  0.00    +0.000 N 
ATOM      8  C   UNL     1      49.473   6.158  18.062  0.00  0.00    +0.000 A 
ATOM      9  N   UNL     1      49.594   5.521  19.236  0.00  0.00    +0.000 NA
ATOM     10  C   UNL     1      49.020   4.319  19.207  0.00  0.00    +0.000 A 
ATOM     11  N   UNL     1      48.384   3.753  18.169  0.00  0.00    +0.000 NA
ATOM     12  C   UNL     1      48.290   4.430  16.982  0.00  0.00    +0.000 A 
ATOM     13  C   UNL     1      47.579   3.686  15.899  0.00  0.00    +0.000 C 
ATOM     14  C   UNL     1      48.854   5.724  16.893  0.00  0.00    +0.000 A 
ATOM     15  C   UNL     1      49.032   6.786  15.909  0.00  0.00    +0.000 A 
ATOM     16  H   UNL     1      50.503   7.909  18.557  0.00  0.00    +0.000 HD
ENDBRANCH   1  15
BRANCH   3  17
ATOM     17  C   UNL     1      46.891   7.426  12.840  0.00  0.00    +0.000 C 
BRANCH  17  18
ATOM     18  C   UNL     1      46.126   6.248  12.276  0.00  0.00    +0.000 A 
ATOM     19  C   UNL     1      45.852   5.113  13.055  0.00  0.00    +0.000 A 
ATOM     20  C   UNL     1      45.143   4.020  12.521  0.00  0.00    +0.000 A 
ATOM     21  C   UNL     1      44.700   4.047  11.199  0.00  0.00    +0.000 A 
ATOM     22  C   UNL     1      44.984   5.165  10.415  0.00  0.00    +0.000 A 
ATOM     23  C   UNL     1      45.678   6.260  10.947  0.00  0.00    +0.000 A 
BRANCH  21  24
ATOM     24  O   UNL     1      44.048   3.027  10.554  0.00  0.00    +0.000 OA
BRANCH  24  25
ATOM     25  C   UNL     1      44.372   2.860   9.171  0.00  0.00    +0.000 C 
BRANCH  25  26
ATOM     26  C   UNL     1      45.607   1.961   9.051  0.00  0.00    +0.000 C 
BRANCH  26  27
ATOM     27  C   UNL     1      46.300   2.151   7.724  0.00  0.00    +0.000 A 
ATOM     28  C   UNL     1      46.149   3.339   6.996  0.00  0.00    +0.000 A 
ATOM     29  C   UNL     1      46.767   3.488   5.752  0.00  0.00    +0.000 A 
ATOM     30  C   UNL     1      47.535   2.453   5.222  0.00  0.00    +0.000 A 
ATOM     31  C   UNL     1      47.685   1.266   5.934  0.00  0.00    +0.000 A 
ATOM     32  C   UNL     1      47.071   1.114   7.179  0.00  0.00    +0.000 A 
ENDBRANCH  26  27
ENDBRANCH  25  26
ENDBRANCH  24  25
ENDBRANCH  21  24
ENDBRANCH  17  18
ENDBRANCH   3  17
TORSDOF 7
ENDMDL
MODEL 3
REMARK VINA RESULT:    -7.919      1.362      2.594
REMARK INTER + INTRA:         -12.141
REMARK INTER:                 -10.994
REMARK INTRA:                  -1.146
REMARK UNBOUND:                -0.981
REMARK  Name = 
REMARK  9 active torsions:
REMARK  status: ('A' for Active; 'I' for Inactive)
REMARK    1  A    between atoms: C_1  and  C_2
REMARK    2  A    between atoms: C_8  and  C_9
REMARK    3  A    between atoms: C_11  and  C_12
REMARK    4  A    between atoms: N_14  and  C_15
REMARK    5  A    between atoms: C_15  and  C_16
REMARK    6  A    between atoms: C_19  and  O_20
REMARK    7  A    between atoms: O_20  and  C_21
REMARK    8  A    between atoms: C_21  and  C_22
REMARK    9  A    between atoms: C_22  and  C_23
REMARK                            x       y       z     vdW  Elec       q    Type
REMARK                         _______ _______ _______ _____ _____    ______ ____
ROOT
ATOM      1  C   UNL     1      49.026   7.041  15.730  0.00  0.00    +0.000 C 
ATOM      2  O   UNL     1      50.059   6.413  15.520  0.00  0.00    +0.000 OA
ATOM      3  N   UNL     1      48.104   7.250  14.724  0.00  0.00    +0.000 N 
ATOM      4  H   UNL     1      47.452   8.012  14.843  0.00  0.00    +0.000 HD
ENDROOT
BRANCH   1  15
ATOM      5  C   UNL     1      49.577  10.094  16.441  0.00  0.00    +0.000 C 
ATOM      6  C   UNL     1      49.032   9.011  17.303  0.00  0.00    +0.000 A 
ATOM      7  N   UNL     1      48.716   9.282  18.608  0.00  0.00    +0.000 N 
ATOM      8  C   UNL     1      48.228   8.167  19.212  0.00  0.00    +0.000 A 
ATOM      9  N   UNL     1      47.858   8.156  20.501  0.00  0.00    +0.000 NA
ATOM     10  C   UNL     1      47.429   6.953  20.881  0.00  0.00    +0.000 A 
ATOM     11  N   UNL     1      47.351   5.848  20.124  0.00  0.00    +0.000 NA
ATOM     12  C   UNL     1      47.748   5.895  18.814  0.00  0.00    +0.000 A 
ATOM     13  C   UNL     1      47.633   4.596  18.084  0.00  0.00    +0.000 C 
ATOM     14  C   UNL     1      48.215   7.124  18.291  0.00  0.00    +0.000 A 
ATOM     15  C   UNL     1      48.743   7.663  17.043  0.00  0.00    +0.000 A 
ATOM     16  H   UNL     1      48.827  10.166  19.083  0.00  0.00    +0.000 HD
ENDBRANCH   1  15
BRANCH   3  17
ATOM     17  C   UNL     1      48.344   6.771  13.375  0.00  0.00    +0.000 C 
BRANCH  17  18
ATOM     18  C   UNL     1      47.146   6.045  12.800  0.00  0.00    +0.000 A 
ATOM     19  C   UNL     1      46.586   4.931  13.446  0.00  0.00    +0.000 A 
ATOM     20  C   UNL     1      45.475   4.261  12.902  0.00  0.00    +0.000 A 
ATOM     21  C   UNL     1      44.909   4.692  11.703  0.00  0.00    +0.000 A 
ATOM     22  C   UNL     1      45.472   5.787  11.047  0.00  0.00    +0.000 A 
ATOM     23  C   UNL     1      46.570   6.465  11.592  0.00  0.00    +0.000 A 
BRANCH  21  24
ATOM     24  O   UNL     1      43.863   4.091  11.052  0.00  0.00    +0.000 OA
BRANCH  24  25
ATOM     25  C   UNL     1      44.081   3.794   9.669  0.00  0.00    +0.000 C 
BRANCH  25  26
ATOM     26  C   UNL     1      44.779   2.435   9.554  0.00  0.00    +0.000 C 
BRANCH  26  27
ATOM     27  C   UNL     1      45.732   2.402   8.383  0.00  0.00    +0.000 A 
ATOM     28  C   UNL     1      45.900   3.524   7.561  0.00  0.00    +0.000 A 
ATOM     29  C   UNL     1      46.758   3.469   6.459  0.00  0.00    +0.000 A 
ATOM     30  C   UNL     1      47.448   2.294   6.165  0.00  0.00    +0.000 A 
ATOM     31  C   UNL     1      47.281   1.172   6.973  0.00  0.00    +0.000 A 
ATOM     32  C   UNL     1      46.427   1.224   8.076  0.00  0.00    +0.000 A 
ENDBRANCH  26  27
ENDBRANCH  25  26
ENDBRANCH  24  25
ENDBRANCH  21  24
ENDBRANCH  17  18
ENDBRANCH   3  17
TORSDOF 7
ENDMDL
MODEL 4
REMARK VINA RESULT:    -7.499      4.240      8.750
REMARK INTER + INTRA:         -11.548
REMARK INTER:                  -9.521
REMARK INTRA:                  -2.027
REMARK UNBOUND:                -0.981
REMARK  Name = 
REMARK  9 active torsions:
REMARK  status: ('A' for Active; 'I' for Inactive)
REMARK    1  A    between atoms: C_1  and  C_2
REMARK    2  A    between atoms: C_8  and  C_9
REMARK    3  A    between atoms: C_11  and  C_12
REMARK    4  A    between atoms: N_14  and  C_15
REMARK    5  A    between atoms: C_15  and  C_16
REMARK    6  A    between atoms: C_19  and  O_20
REMARK    7  A    between atoms: O_20  and  C_21
REMARK    8  A    between atoms: C_21  and  C_22
REMARK    9  A    between atoms: C_22  and  C_23
REMARK                            x       y       z     vdW  Elec       q    Type
REMARK                         _______ _______ _______ _____ _____    ______ ____
ROOT
ATOM      1  C   UNL     1      46.679   7.936  12.502  0.00  0.00    +0.000 C 
ATOM      2  O   UNL     1      47.696   7.869  11.819  0.00  0.00    +0.000 OA
ATOM      3  N   UNL     1      46.664   8.646  13.686  0.00  0.00    +0.000 N 
ATOM      4  H   UNL     1      45.940   8.421  14.353  0.00  0.00    +0.000 HD
ENDROOT
BRANCH   1  15
ATOM      5  C   UNL     1      44.203   9.241  10.987  0.00  0.00    +0.000 C 
ATOM      6  C   UNL     1      44.372   7.852  11.490  0.00  0.00    +0.000 A 
ATOM      7  N   UNL     1      43.353   6.949  11.334  0.00  0.00    +0.000 N 
ATOM      8  C   UNL     1      43.713   5.744  11.849  0.00  0.00    +0.000 A 
ATOM      9  N   UNL     1      42.887   4.687  11.841  0.00  0.00    +0.000 NA
ATOM     10  C   UNL     1      43.445   3.621  12.413  0.00  0.00    +0.000 A 
ATOM     11  N   UNL     1      44.672   3.543  12.952  0.00  0.00    +0.000 NA
ATOM     12  C   UNL     1      45.483   4.647  12.951  0.00  0.00    +0.000 A 
ATOM     13  C   UNL     1      46.814   4.439  13.598  0.00  0.00    +0.000 C 
ATOM     14  C   UNL     1      45.004   5.840  12.361  0.00  0.00    +0.000 A 
ATOM     15  C   UNL     1      45.441   7.213  12.135  0.00  0.00    +0.000 A 
ATOM     16  H   UNL     1      42.452   7.124  10.913  0.00  0.00    +0.000 HD
ENDBRANCH   1  15
BRANCH   3  17
ATOM     17  C   UNL     1      47.861   9.300  14.184  0.00  0.00    +0.000 C 
BRANCH  17  18
ATOM     18  C   UNL     1      48.464   8.574  15.368  0.00  0.00    +0.000 A 
ATOM     19  C   UNL     1      49.025   7.294  15.233  0.00  0.00    +0.000 A 
ATOM     20  C   UNL     1      49.581   6.625  16.339  0.00  0.00    +0.000 A 
ATOM     21  C   UNL     1      49.582   7.226  17.597  0.00  0.00    +0.000 A 
ATOM     22  C   UNL     1      49.011   8.490  17.742  0.00  0.00    +0.000 A 
ATOM     23  C   UNL     1      48.468   9.165  16.640  0.00  0.00    +0.000 A 
BRANCH  21  24
ATOM     24  O   UNL     1      50.045   6.655  18.756  0.00  0.00    +0.000 OA
BRANCH  24  25
ATOM     25  C   UNL     1      49.042   6.248  19.692  0.00  0.00    +0.000 C 
BRANCH  25  26
ATOM     26  C   UNL     1      49.198   4.751  19.974  0.00  0.00    +0.000 C 
BRANCH  26  27
ATOM     27  C   UNL     1      48.922   3.925  18.741  0.00  0.00    +0.000 A 
ATOM     28  C   UNL     1      49.934   3.160  18.146  0.00  0.00    +0.000 A 
ATOM     29  C   UNL     1      49.675   2.428  16.984  0.00  0.00    +0.000 A 
ATOM     30  C   UNL     1      48.408   2.460  16.403  0.00  0.00    +0.000 A 
ATOM     31  C   UNL     1      47.398   3.224  16.983  0.00  0.00    +0.000 A 
ATOM     32  C   UNL     1      47.653   3.954  18.145  0.00  0.00    +0.000 A 
ENDBRANCH  26  27
ENDBRANCH  25  26
ENDBRANCH  24  25
ENDBRANCH  21  24
ENDBRANCH  17  18
ENDBRANCH   3  17
TORSDOF 7
ENDMDL
MODEL 5
REMARK VINA RESULT:    -7.371      2.309      3.645
REMARK INTER + INTRA:         -11.369
REMARK INTER:                 -10.418
REMARK INTRA:                  -0.951
REMARK UNBOUND:                -0.981
REMARK  Name = 
REMARK  9 active torsions:
REMARK  status: ('A' for Active; 'I' for Inactive)
REMARK    1  A    between atoms: C_1  and  C_2
REMARK    2  A    between atoms: C_8  and  C_9
REMARK    3  A    between atoms: C_11  and  C_12
REMARK    4  A    between atoms: N_14  and  C_15
REMARK    5  A    between atoms: C_15  and  C_16
REMARK    6  A    between atoms: C_19  and  O_20
REMARK    7  A    between atoms: O_20  and  C_21
REMARK    8  A    between atoms: C_21  and  C_22
REMARK    9  A    between atoms: C_22  and  C_23
REMARK                            x       y       z     vdW  Elec       q    Type
REMARK                         _______ _______ _______ _____ _____    ______ ____
ROOT
ATOM      1  C   UNL     1      49.835   6.192  17.219  0.00  0.00    +0.000 C 
ATOM      2  O   UNL     1      48.953   6.463  18.027  0.00  0.00    +0.000 OA
ATOM      3  N   UNL     1      49.858   6.778  15.969  0.00  0.00    +0.000 N 
ATOM      4  H   UNL     1      50.387   6.311  15.246  0.00  0.00    +0.000 HD
ENDROOT
BRANCH   1  15
ATOM      5  C   UNL     1      52.820   6.870  18.092  0.00  0.00    +0.000 C 
ATOM      6  C   UNL     1      52.185   5.545  17.864  0.00  0.00    +0.000 A 
ATOM      7  N   UNL     1      52.931   4.405  18.011  0.00  0.00    +0.000 N 
ATOM      8  C   UNL     1      52.164   3.310  17.769  0.00  0.00    +0.000 A 
ATOM      9  N   UNL     1      52.657   2.064  17.828  0.00  0.00    +0.000 NA
ATOM     10  C   UNL     1      51.730   1.152  17.536  0.00  0.00    +0.000 A 
ATOM     11  N   UNL     1      50.447   1.380  17.214  0.00  0.00    +0.000 NA
ATOM     12  C   UNL     1      49.982   2.667  17.153  0.00  0.00    +0.000 A 
ATOM     13  C   UNL     1      48.545   2.789  16.763  0.00  0.00    +0.000 C 
ATOM     14  C   UNL     1      50.872   3.724  17.453  0.00  0.00    +0.000 A 
ATOM     15  C   UNL     1      50.878   5.182  17.507  0.00  0.00    +0.000 A 
ATOM     16  H   UNL     1      53.910   4.353  18.252  0.00  0.00    +0.000 HD
ENDBRANCH   1  15
BRANCH   3  17
ATOM     17  C   UNL     1      48.817   7.701  15.554  0.00  0.00    +0.000 C 
BRANCH  17  18
ATOM     18  C   UNL     1      48.096   7.234  14.307  0.00  0.00    +0.000 A 
ATOM     19  C   UNL     1      47.751   8.129  13.282  0.00  0.00    +0.000 A 
ATOM     20  C   UNL     1      47.078   7.686  12.128  0.00  0.00    +0.000 A 
ATOM     21  C   UNL     1      46.738   6.342  11.984  0.00  0.00    +0.000 A 
ATOM     22  C   UNL     1      47.063   5.450  13.006  0.00  0.00    +0.000 A 
ATOM     23  C   UNL     1      47.744   5.885  14.151  0.00  0.00    +0.000 A 
BRANCH  21  24
ATOM     24  O   UNL     1      46.040   5.803  10.933  0.00  0.00    +0.000 OA
BRANCH  24  25
ATOM     25  C   UNL     1      45.017   4.866  11.284  0.00  0.00    +0.000 C 
BRANCH  25  26
ATOM     26  C   UNL     1      44.270   4.442  10.016  0.00  0.00    +0.000 C 
BRANCH  26  27
ATOM     27  C   UNL     1      45.165   3.660   9.085  0.00  0.00    +0.000 A 
ATOM     28  C   UNL     1      45.889   4.303   8.073  0.00  0.00    +0.000 A 
ATOM     29  C   UNL     1      46.685   3.564   7.194  0.00  0.00    +0.000 A 
ATOM     30  C   UNL     1      46.761   2.178   7.315  0.00  0.00    +0.000 A 
ATOM     31  C   UNL     1      46.040   1.528   8.313  0.00  0.00    +0.000 A 
ATOM     32  C   UNL     1      45.245   2.264   9.194  0.00  0.00    +0.000 A 
ENDBRANCH  26  27
ENDBRANCH  25  26
ENDBRANCH  24  25
ENDBRANCH  21  24
ENDBRANCH  17  18
ENDBRANCH   3  17
TORSDOF 7
ENDMDL
MODEL 6
REMARK VINA RESULT:    -7.205      2.214      3.350
REMARK INTER + INTRA:         -11.135
REMARK INTER:                 -10.354
REMARK INTRA:                  -0.781
REMARK UNBOUND:                -0.981
REMARK  Name = 
REMARK  9 active torsions:
REMARK  status: ('A' for Active; 'I' for Inactive)
REMARK    1  A    between atoms: C_1  and  C_2
REMARK    2  A    between atoms: C_8  and  C_9
REMARK    3  A    between atoms: C_11  and  C_12
REMARK    4  A    between atoms: N_14  and  C_15
REMARK    5  A    between atoms: C_15  and  C_16
REMARK    6  A    between atoms: C_19  and  O_20
REMARK    7  A    between atoms: O_20  and  C_21
REMARK    8  A    between atoms: C_21  and  C_22
REMARK    9  A    between atoms: C_22  and  C_23
REMARK                            x       y       z     vdW  Elec       q    Type
REMARK                         _______ _______ _______ _____ _____    ______ ____
ROOT
ATOM      1  C   UNL     1      48.179   5.000  17.193  0.00  0.00    +0.000 C 
ATOM      2  O   UNL     1      47.303   4.689  17.994  0.00  0.00    +0.000 OA
ATOM      3  N   UNL     1      48.017   4.775  15.840  0.00  0.00    +0.000 N 
ATOM      4  H   UNL     1      48.851   4.746  15.271  0.00  0.00    +0.000 HD
ENDROOT
BRANCH   1  15
ATOM      5  C   UNL     1      48.671   8.065  17.897  0.00  0.00    +0.000 C 
ATOM      6  C   UNL     1      49.634   6.932  17.902  0.00  0.00    +0.000 A 
ATOM      7  N   UNL     1      50.945   7.163  18.227  0.00  0.00    +0.000 N 
ATOM      8  C   UNL     1      51.650   6.003  18.183  0.00  0.00    +0.000 A 
ATOM      9  N   UNL     1      52.964   5.953  18.442  0.00  0.00    +0.000 NA
ATOM     10  C   UNL     1      53.446   4.716  18.320  0.00  0.00    +0.000 A 
ATOM     11  N   UNL     1      52.760   3.613  17.984  0.00  0.00    +0.000 NA
ATOM     12  C   UNL     1      51.420   3.704  17.715  0.00  0.00    +0.000 A 
ATOM     13  C   UNL     1      50.775   2.412  17.331  0.00  0.00    +0.000 C 
ATOM     14  C   UNL     1      50.791   4.967  17.821  0.00  0.00    +0.000 A 
ATOM     15  C   UNL     1      49.475   5.565  17.631  0.00  0.00    +0.000 A 
ATOM     16  H   UNL     1      51.360   8.054  18.460  0.00  0.00    +0.000 HD
ENDBRANCH   1  15
BRANCH   3  17
ATOM     17  C   UNL     1      46.825   4.127  15.325  0.00  0.00    +0.000 C 
BRANCH  17  18
ATOM     18  C   UNL     1      46.465   4.605  13.934  0.00  0.00    +0.000 A 
ATOM     19  C   UNL     1      46.955   5.819  13.428  0.00  0.00    +0.000 A 
ATOM     20  C   UNL     1      46.612   6.257  12.135  0.00  0.00    +0.000 A 
ATOM     21  C   UNL     1      45.771   5.489  11.331  0.00  0.00    +0.000 A 
ATOM     22  C   UNL     1      45.267   4.290  11.835  0.00  0.00    +0.000 A 
ATOM     23  C   UNL     1      45.617   3.844  13.117  0.00  0.00    +0.000 A 
BRANCH  21  24
ATOM     24  O   UNL     1      45.326   5.834  10.081  0.00  0.00    +0.000 OA
BRANCH  24  25
ATOM     25  C   UNL     1      45.995   5.199   8.987  0.00  0.00    +0.000 C 
BRANCH  25  26
ATOM     26  C   UNL     1      45.121   4.057   8.461  0.00  0.00    +0.000 C 
BRANCH  26  27
ATOM     27  C   UNL     1      45.936   3.051   7.685  0.00  0.00    +0.000 A 
ATOM     28  C   UNL     1      46.158   1.762   8.188  0.00  0.00    +0.000 A 
ATOM     29  C   UNL     1      46.945   0.852   7.477  0.00  0.00    +0.000 A 
ATOM     30  C   UNL     1      47.520   1.222   6.262  0.00  0.00    +0.000 A 
ATOM     31  C   UNL     1      47.311   2.503   5.758  0.00  0.00    +0.000 A 
ATOM     32  C   UNL     1      46.524   3.414   6.464  0.00  0.00    +0.000 A 
ENDBRANCH  26  27
ENDBRANCH  25  26
ENDBRANCH  24  25
ENDBRANCH  21  24
ENDBRANCH  17  18
ENDBRANCH   3  17
TORSDOF 7
ENDMDL
MODEL 7
REMARK VINA RESULT:    -6.946      2.389      3.343
REMARK INTER + INTRA:         -10.770
REMARK INTER:                  -9.851
REMARK INTRA:                  -0.919
REMARK UNBOUND:                -0.981
REMARK  Name = 
REMARK  9 active torsions:
REMARK  status: ('A' for Active; 'I' for Inactive)
REMARK    1  A    between atoms: C_1  and  C_2
REMARK    2  A    between atoms: C_8  and  C_9
REMARK    3  A    between atoms: C_11  and  C_12
REMARK    4  A    between atoms: N_14  and  C_15
REMARK    5  A    between atoms: C_15  and  C_16
REMARK    6  A    between atoms: C_19  and  O_20
REMARK    7  A    between atoms: O_20  and  C_21
REMARK    8  A    between atoms: C_21  and  C_22
REMARK    9  A    between atoms: C_22  and  C_23
REMARK                            x       y       z     vdW  Elec       q    Type
REMARK                         _______ _______ _______ _____ _____    ______ ____
ROOT
ATOM      1  C   UNL     1      48.363   7.738  13.983  0.00  0.00    +0.000 C 
ATOM      2  O   UNL     1      49.005   7.669  12.940  0.00  0.00    +0.000 OA
ATOM      3  N   UNL     1      47.013   8.027  13.969  0.00  0.00    +0.000 N 
ATOM      4  H   UNL     1      46.603   8.380  14.822  0.00  0.00    +0.000 HD
ENDROOT
BRANCH   1  15
ATOM      5  C   UNL     1      48.009   5.209  15.883  0.00  0.00    +0.000 C 
ATOM      6  C   UNL     1      48.787   6.455  16.111  0.00  0.00    +0.000 A 
ATOM      7  N   UNL     1      49.461   6.623  17.292  0.00  0.00    +0.000 N 
ATOM      8  C   UNL     1      50.112   7.816  17.294  0.00  0.00    +0.000 A 
ATOM      9  N   UNL     1      50.835   8.234  18.343  0.00  0.00    +0.000 NA
ATOM     10  C   UNL     1      51.366   9.438  18.128  0.00  0.00    +0.000 A 
ATOM     11  N   UNL     1      51.235  10.192  17.026  0.00  0.00    +0.000 NA
ATOM     12  C   UNL     1      50.480   9.736  15.979  0.00  0.00    +0.000 A 
ATOM     13  C   UNL     1      50.393  10.676  14.820  0.00  0.00    +0.000 C 
ATOM     14  C   UNL     1      49.871   8.463  16.085  0.00  0.00    +0.000 A 
ATOM     15  C   UNL     1      49.003   7.585  15.308  0.00  0.00    +0.000 A 
ATOM     16  H   UNL     1      49.482   5.980  18.070  0.00  0.00    +0.000 HD
ENDBRANCH   1  15
BRANCH   3  17
ATOM     17  C   UNL     1      46.317   8.300  12.723  0.00  0.00    +0.000 C 
BRANCH  17  18
ATOM     18  C   UNL     1      45.539   7.101  12.223  0.00  0.00    +0.000 A 
ATOM     19  C   UNL     1      44.284   7.247  11.611  0.00  0.00    +0.000 A 
ATOM     20  C   UNL     1      43.566   6.127  11.153  0.00  0.00    +0.000 A 
ATOM     21  C   UNL     1      44.092   4.844  11.302  0.00  0.00    +0.000 A 
ATOM     22  C   UNL     1      45.330   4.691  11.925  0.00  0.00    +0.000 A 
ATOM     23  C   UNL     1      46.054   5.805  12.371  0.00  0.00    +0.000 A 
BRANCH  21  24
ATOM     24  O   UNL     1      43.466   3.677  10.944  0.00  0.00    +0.000 OA
BRANCH  24  25
ATOM     25  C   UNL     1      44.213   2.812  10.084  0.00  0.00    +0.000 C 
BRANCH  25  26
ATOM     26  C   UNL     1      44.555   3.562   8.793  0.00  0.00    +0.000 C 
BRANCH  26  27
ATOM     27  C   UNL     1      45.601   2.829   7.989  0.00  0.00    +0.000 A 
ATOM     28  C   UNL     1      45.975   1.519   8.319  0.00  0.00    +0.000 A 
ATOM     29  C   UNL     1      46.971   0.864   7.590  0.00  0.00    +0.000 A 
ATOM     30  C   UNL     1      47.605   1.512   6.530  0.00  0.00    +0.000 A 
ATOM     31  C   UNL     1      47.245   2.816   6.199  0.00  0.00    +0.000 A 
ATOM     32  C   UNL     1      46.249   3.472   6.925  0.00  0.00    +0.000 A 
ENDBRANCH  26  27
ENDBRANCH  25  26
ENDBRANCH  24  25
ENDBRANCH  21  24
ENDBRANCH  17  18
ENDBRANCH   3  17
TORSDOF 7
ENDMDL
MODEL 8
REMARK VINA RESULT:    -6.543      4.004      9.748
REMARK INTER + INTRA:         -10.201
REMARK INTER:                  -8.400
REMARK INTRA:                  -1.801
REMARK UNBOUND:                -0.981
REMARK  Name = 
REMARK  9 active torsions:
REMARK  status: ('A' for Active; 'I' for Inactive)
REMARK    1  A    between atoms: C_1  and  C_2
REMARK    2  A    between atoms: C_8  and  C_9
REMARK    3  A    between atoms: C_11  and  C_12
REMARK    4  A    between atoms: N_14  and  C_15
REMARK    5  A    between atoms: C_15  and  C_16
REMARK    6  A    between atoms: C_19  and  O_20
REMARK    7  A    between atoms: O_20  and  C_21
REMARK    8  A    between atoms: C_21  and  C_22
REMARK    9  A    between atoms: C_22  and  C_23
REMARK                            x       y       z     vdW  Elec       q    Type
REMARK                         _______ _______ _______ _____ _____    ______ ____
ROOT
ATOM      1  C   UNL     1      47.197   7.101  12.699  0.00  0.00    +0.000 C 
ATOM      2  O   UNL     1      48.188   7.001  11.981  0.00  0.00    +0.000 OA
ATOM      3  N   UNL     1      47.305   7.548  14.001  0.00  0.00    +0.000 N 
ATOM      4  H   UNL     1      46.553   7.319  14.634  0.00  0.00    +0.000 HD
ENDROOT
BRANCH   1  15
ATOM      5  C   UNL     1      45.044   9.058  11.409  0.00  0.00    +0.000 C 
ATOM      6  C   UNL     1      44.938   7.604  11.701  0.00  0.00    +0.000 A 
ATOM      7  N   UNL     1      43.770   6.943  11.422  0.00  0.00    +0.000 N 
ATOM      8  C   UNL     1      43.885   5.630  11.752  0.00  0.00    +0.000 A 
ATOM      9  N   UNL     1      42.875   4.762  11.595  0.00  0.00    +0.000 NA
ATOM     10  C   UNL     1      43.209   3.537  12.001  0.00  0.00    +0.000 A 
ATOM     11  N   UNL     1      44.388   3.150  12.513  0.00  0.00    +0.000 NA
ATOM     12  C   UNL     1      45.393   4.068  12.669  0.00  0.00    +0.000 A 
ATOM     13  C   UNL     1      46.646   3.519  13.269  0.00  0.00    +0.000 C 
ATOM     14  C   UNL     1      45.160   5.403  12.263  0.00  0.00    +0.000 A 
ATOM     15  C   UNL     1      45.853   6.687  12.239  0.00  0.00    +0.000 A 
ATOM     16  H   UNL     1      42.928   7.346  11.038  0.00  0.00    +0.000 HD
ENDBRANCH   1  15
BRANCH   3  17
ATOM     17  C   UNL     1      48.597   7.875  14.577  0.00  0.00    +0.000 C 
BRANCH  17  18
ATOM     18  C   UNL     1      48.996   6.917  15.679  0.00  0.00    +0.000 A 
ATOM     19  C   UNL     1      50.220   7.048  16.355  0.00  0.00    +0.000 A 
ATOM     20  C   UNL     1      50.584   6.151  17.376  0.00  0.00    +0.000 A 
ATOM     21  C   UNL     1      49.731   5.108  17.734  0.00  0.00    +0.000 A 
ATOM     22  C   UNL     1      48.522   4.961  17.054  0.00  0.00    +0.000 A 
ATOM     23  C   UNL     1      48.150   5.861  16.046  0.00  0.00    +0.000 A 
BRANCH  21  24
ATOM     24  O   UNL     1      49.998   4.143  18.672  0.00  0.00    +0.000 OA
BRANCH  24  25
ATOM     25  C   UNL     1      48.967   3.915  19.637  0.00  0.00    +0.000 C 
BRANCH  25  26
ATOM     26  C   UNL     1      49.236   4.780  20.872  0.00  0.00    +0.000 C 
BRANCH  26  27
ATOM     27  C   UNL     1      48.902   6.229  20.615  0.00  0.00    +0.000 A 
ATOM     28  C   UNL     1      47.636   6.603  20.147  0.00  0.00    +0.000 A 
ATOM     29  C   UNL     1      47.350   7.944  19.877  0.00  0.00    +0.000 A 
ATOM     30  C   UNL     1      48.327   8.921  20.067  0.00  0.00    +0.000 A 
ATOM     31  C   UNL     1      49.591   8.558  20.525  0.00  0.00    +0.000 A 
ATOM     32  C   UNL     1      49.879   7.219  20.798  0.00  0.00    +0.000 A 
ENDBRANCH  26  27
ENDBRANCH  25  26
ENDBRANCH  24  25
ENDBRANCH  21  24
ENDBRANCH  17  18
ENDBRANCH   3  17
TORSDOF 7
ENDMDL
MODEL 9
REMARK VINA RESULT:    -6.278      2.634      3.686
REMARK INTER + INTRA:          -9.828
REMARK INTER:                  -8.646
REMARK INTRA:                  -1.182
REMARK UNBOUND:                -0.981
REMARK  Name = 
REMARK  9 active torsions:
REMARK  status: ('A' for Active; 'I' for Inactive)
REMARK    1  A    between atoms: C_1  and  C_2
REMARK    2  A    between atoms: C_8  and  C_9
REMARK    3  A    between atoms: C_11  and  C_12
REMARK    4  A    between atoms: N_14  and  C_15
REMARK    5  A    between atoms: C_15  and  C_16
REMARK    6  A    between atoms: C_19  and  O_20
REMARK    7  A    between atoms: O_20  and  C_21
REMARK    8  A    between atoms: C_21  and  C_22
REMARK    9  A    between atoms: C_22  and  C_23
REMARK                            x       y       z     vdW  Elec       q    Type
REMARK                         _______ _______ _______ _____ _____    ______ ____
ROOT
ATOM      1  C   UNL     1      49.968   8.675  14.321  0.00  0.00    +0.000 C 
ATOM      2  O   UNL     1      50.659   8.447  13.333  0.00  0.00    +0.000 OA
ATOM      3  N   UNL     1      48.626   8.977  14.195  0.00  0.00    +0.000 N 
ATOM      4  H   UNL     1      48.183   9.455  14.966  0.00  0.00    +0.000 HD
ENDROOT
BRANCH   1  15
ATOM      5  C   UNL     1      52.033  10.860  15.366  0.00  0.00    +0.000 C 
ATOM      6  C   UNL     1      51.466   9.684  16.079  0.00  0.00    +0.000 A 
ATOM      7  N   UNL     1      51.854   9.425  17.367  0.00  0.00    +0.000 N 
ATOM      8  C   UNL     1      51.216   8.321  17.834  0.00  0.00    +0.000 A 
ATOM      9  N   UNL     1      51.430   7.839  19.067  0.00  0.00    +0.000 NA
ATOM     10  C   UNL     1      50.710   6.742  19.301  0.00  0.00    +0.000 A 
ATOM     11  N   UNL     1      49.859   6.140  18.455  0.00  0.00    +0.000 NA
ATOM     12  C   UNL     1      49.674   6.655  17.200  0.00  0.00    +0.000 A 
ATOM     13  C   UNL     1      48.720   5.884  16.347  0.00  0.00    +0.000 C 
ATOM     14  C   UNL     1      50.378   7.828  16.837  0.00  0.00    +0.000 A 
ATOM     15  C   UNL     1      50.539   8.708  15.686  0.00  0.00    +0.000 A 
ATOM     16  H   UNL     1      52.522   9.951  17.912  0.00  0.00    +0.000 HD
ENDBRANCH   1  15
BRANCH   3  17
ATOM     17  C   UNL     1      47.999   9.075  12.889  0.00  0.00    +0.000 C 
BRANCH  17  18
ATOM     18  C   UNL     1      47.141   7.869  12.569  0.00  0.00    +0.000 A 
ATOM     19  C   UNL     1      45.840   8.010  12.060  0.00  0.00    +0.000 A 
ATOM     20  C   UNL     1      45.049   6.884  11.770  0.00  0.00    +0.000 A 
ATOM     21  C   UNL     1      45.546   5.599  11.986  0.00  0.00    +0.000 A 
ATOM     22  C   UNL     1      46.831   5.452  12.508  0.00  0.00    +0.000 A 
ATOM     23  C   UNL     1      47.627   6.572  12.786  0.00  0.00    +0.000 A 
BRANCH  21  24
ATOM     24  O   UNL     1      44.854   4.431  11.791  0.00  0.00    +0.000 OA
BRANCH  24  25
ATOM     25  C   UNL     1      44.018   4.391  10.630  0.00  0.00    +0.000 C 
BRANCH  25  26
ATOM     26  C   UNL     1      44.103   2.998  10.000  0.00  0.00    +0.000 C 
BRANCH  26  27
ATOM     27  C   UNL     1      45.193   2.928   8.959  0.00  0.00    +0.000 A 
ATOM     28  C   UNL     1      45.608   4.078   8.274  0.00  0.00    +0.000 A 
ATOM     29  C   UNL     1      46.593   3.995   7.286  0.00  0.00    +0.000 A 
ATOM     30  C   UNL     1      47.165   2.764   6.969  0.00  0.00    +0.000 A 
ATOM     31  C   UNL     1      46.754   1.614   7.639  0.00  0.00    +0.000 A 
ATOM     32  C   UNL     1      45.772   1.694   8.628  0.00  0.00    +0.000 A 
ENDBRANCH  26  27
ENDBRANCH  25  26
ENDBRANCH  24  25
ENDBRANCH  21  24
ENDBRANCH  17  18
ENDBRANCH   3  17
TORSDOF 7
ENDMDL
