MODEL 1
REMARK VINA RESULT:    -7.663      0.000      0.000
REMARK INTER + INTRA:         -11.790
REMARK INTER:                 -10.798
REMARK INTRA:                  -0.992
REMARK UNBOUND:                -0.992
REMARK  Name = 
REMARK  8 active torsions:
REMARK  status: ('A' for Active; 'I' for Inactive)
REMARK    1  A    between atoms: C_1  and  N_2
REMARK    2  A    between atoms: N_2  and  C_3
REMARK    3  A    between atoms: N_2  and  C_24
REMARK    4  A    between atoms: C_3  and  C_4
REMARK    5  A    between atoms: C_7  and  C_8
REMARK    6  A    between atoms: C_8  and  N_9
REMARK    7  A    between atoms: C_10  and  C_12
REMARK    8  A    between atoms: C_24  and  C_25
REMARK                            x       y       z     vdW  Elec       q    Type
REMARK                         _______ _______ _______ _____ _____    ______ ____
ROOT
ATOM      1  C   UNL     1      45.916   4.408  12.751  0.00  0.00    +0.000 A 
ATOM      2  C   UNL     1      46.190   5.587  12.038  0.00  0.00    +0.000 A 
ATOM      3  C   UNL     1      47.078   6.541  12.540  0.00  0.00    +0.000 A 
ATOM      4  C   UNL     1      47.702   6.344  13.779  0.00  0.00    +0.000 A 
ATOM      5  C   UNL     1      47.393   5.191  14.514  0.00  0.00    +0.000 A 
ATOM      6  C   UNL     1      46.524   4.224  13.999  0.00  0.00    +0.000 A 
ENDROOT
BRANCH   1   7
ATOM      7  C   UNL     1      45.019   3.339  12.152  0.00  0.00    +0.000 C 
BRANCH   7   9
ATOM      8  C   UNL     1      42.901   4.264  11.381  0.00  0.00    +0.000 C 
ATOM      9  N   UNL     1      44.236   3.797  10.984  0.00  0.00    +0.000 NA
BRANCH   9  10
ATOM     10  C   UNL     1      44.121   2.704   9.996  0.00  0.00    +0.000 C 
BRANCH  10  11
ATOM     11  C   UNL     1      45.157   2.791   8.900  0.00  0.00    +0.000 A 
ATOM     12  C   UNL     1      45.858   1.663   8.462  0.00  0.00    +0.000 A 
ATOM     13  C   UNL     1      46.867   1.803   7.513  0.00  0.00    +0.000 A 
ATOM     14  C   UNL     1      47.136   3.069   7.023  0.00  0.00    +0.000 A 
ATOM     15  N   UNL     1      46.472   4.181   7.406  0.00  0.00    +0.000 NA
ATOM     16  C   UNL     1      45.502   4.016   8.334  0.00  0.00    +0.000 A 
ENDBRANCH  10  11
ENDBRANCH   9  10
ENDBRANCH   7   9
ENDBRANCH   1   7
BRANCH   4  17
ATOM     17  C   UNL     1      48.669   7.358  14.331  0.00  0.00    +0.000 C 
BRANCH  17  18
ATOM     18  N   UNL     1      48.599   7.418  15.768  0.00  0.00    +0.000 N 
ATOM     19  C   UNL     1      49.544   6.809  16.552  0.00  0.00    +0.000 C 
ATOM     20  O   UNL     1      50.504   6.210  16.076  0.00  0.00    +0.000 OA
ATOM     21  H   UNL     1      47.701   7.661  16.173  0.00  0.00    +0.000 HD
BRANCH  19  22
ATOM     22  C   UNL     1      49.382   6.969  18.003  0.00  0.00    +0.000 A 
ATOM     23  C   UNL     1      49.549   8.221  18.581  0.00  0.00    +0.000 A 
ATOM     24  S   UNL     1      49.283   8.233  20.267  0.00  0.00    +0.000 S 
ATOM     25  C   UNL     1      48.987   6.558  20.289  0.00  0.00    +0.000 A 
ATOM     26  N   UNL     1      48.726   5.907  21.455  0.00  0.00    +0.000 NA
ATOM     27  C   UNL     1      48.547   4.635  21.326  0.00  0.00    +0.000 A 
ATOM     28  N   UNL     1      48.599   3.952  20.139  0.00  0.00    +0.000 N 
ATOM     29  C   UNL     1      48.837   4.570  18.931  0.00  0.00    +0.000 A 
ATOM     30  O   UNL     1      48.830   3.943  17.881  0.00  0.00    +0.000 OA
ATOM     31  C   UNL     1      49.061   6.001  19.026  0.00  0.00    +0.000 A 
ATOM     32  H   UNL     1      48.440   2.956  20.105  0.00  0.00    +0.000 HD
ENDBRANCH  19  22
ENDBRANCH  17  18
ENDBRANCH   4  17
TORSDOF 7
ENDMDL
MODEL 2
REMARK VINA RESULT:    -7.573      2.566      3.081
REMARK INTER + INTRA:         -11.664
REMARK INTER:                 -10.704
REMARK INTRA:                  -0.959
REMARK UNBOUND:                -0.992
REMARK  Name = 
REMARK  8 active torsions:
REMARK  status: ('A' for Active; 'I' for Inactive)
REMARK    1  A    between atoms: C_1  and  N_2
REMARK    2  A    between atoms: N_2  and  C_3
REMARK    3  A    between atoms: N_2  and  C_24
REMARK    4  A    between atoms: C_3  and  C_4
REMARK    5  A    between atoms: C_7  and  C_8
REMARK    6  A    between atoms: C_8  and  N_9
REMARK    7  A    between atoms: C_10  and  C_12
REMARK    8  A    between atoms: C_24  and  C_25
REMARK                            x       y       z     vdW  Elec       q    Type
REMARK                         _______ _______ _______ _____ _____    ______ ____
ROOT
ATOM      1  C   UNL     1      46.343   4.656  13.255  0.00  0.00    +0.000 A 
ATOM      2  C   UNL     1      46.621   4.261  14.574  0.00  0.00    +0.000 A 
ATOM      3  C   UNL     1      47.493   4.999  15.378  0.00  0.00    +0.000 A 
ATOM      4  C   UNL     1      48.122   6.144  14.872  0.00  0.00    +0.000 A 
ATOM      5  C   UNL     1      47.883   6.512  13.541  0.00  0.00    +0.000 A 
ATOM      6  C   UNL     1      46.990   5.788  12.746  0.00  0.00    +0.000 A 
ENDROOT
BRANCH   1   7
ATOM      7  C   UNL     1      45.325   3.895  12.423  0.00  0.00    +0.000 C 
BRANCH   7   9
ATOM      8  C   UNL     1      43.341   5.282  12.701  0.00  0.00    +0.000 C 
ATOM      9  N   UNL     1      44.332   4.760  11.750  0.00  0.00    +0.000 NA
BRANCH   9  10
ATOM     10  C   UNL     1      43.657   4.005  10.674  0.00  0.00    +0.000 C 
BRANCH  10  11
ATOM     11  C   UNL     1      44.595   3.608   9.557  0.00  0.00    +0.000 A 
ATOM     12  C   UNL     1      44.870   2.267   9.272  0.00  0.00    +0.000 A 
ATOM     13  C   UNL     1      45.808   1.947   8.295  0.00  0.00    +0.000 A 
ATOM     14  C   UNL     1      46.437   2.982   7.625  0.00  0.00    +0.000 A 
ATOM     15  N   UNL     1      46.188   4.290   7.857  0.00  0.00    +0.000 NA
ATOM     16  C   UNL     1      45.277   4.570   8.817  0.00  0.00    +0.000 A 
ENDBRANCH  10  11
ENDBRANCH   9  10
ENDBRANCH   7   9
ENDBRANCH   1   7
BRANCH   4  17
ATOM     17  C   UNL     1      49.057   6.957  15.728  0.00  0.00    +0.000 C 
BRANCH  17  18
ATOM     18  N   UNL     1      50.121   6.144  16.256  0.00  0.00    +0.000 N 
ATOM     19  C   UNL     1      50.093   5.687  17.548  0.00  0.00    +0.000 C 
ATOM     20  O   UNL     1      49.155   5.921  18.306  0.00  0.00    +0.000 OA
ATOM     21  H   UNL     1      51.005   6.166  15.758  0.00  0.00    +0.000 HD
BRANCH  19  22
ATOM     22  C   UNL     1      51.219   4.841  17.961  0.00  0.00    +0.000 A 
ATOM     23  C   UNL     1      52.317   5.412  18.591  0.00  0.00    +0.000 A 
ATOM     24  S   UNL     1      53.512   4.278  19.039  0.00  0.00    +0.000 S 
ATOM     25  C   UNL     1      52.628   2.993  18.360  0.00  0.00    +0.000 A 
ATOM     26  N   UNL     1      53.116   1.724  18.369  0.00  0.00    +0.000 NA
ATOM     27  C   UNL     1      52.352   0.855  17.797  0.00  0.00    +0.000 A 
ATOM     28  N   UNL     1      51.140   1.136  17.220  0.00  0.00    +0.000 N 
ATOM     29  C   UNL     1      50.594   2.400  17.206  0.00  0.00    +0.000 A 
ATOM     30  O   UNL     1      49.488   2.613  16.728  0.00  0.00    +0.000 OA
ATOM     31  C   UNL     1      51.425   3.417  17.826  0.00  0.00    +0.000 A 
ATOM     32  H   UNL     1      50.585   0.407  16.796  0.00  0.00    +0.000 HD
ENDBRANCH  19  22
ENDBRANCH  17  18
ENDBRANCH   4  17
TORSDOF 7
ENDMDL
MODEL 3
REMARK VINA RESULT:    -7.321      3.328      8.911
REMARK INTER + INTRA:         -11.309
REMARK INTER:                  -9.652
REMARK INTRA:                  -1.657
REMARK UNBOUND:                -0.992
REMARK  Name = 
REMARK  8 active torsions:
REMARK  status: ('A' for Active; 'I' for Inactive)
REMARK    1  A    between atoms: C_1  and  N_2
REMARK    2  A    between atoms: N_2  and  C_3
REMARK    3  A    between atoms: N_2  and  C_24
REMARK    4  A    between atoms: C_3  and  C_4
REMARK    5  A    between atoms: C_7  and  C_8
REMARK    6  A    between atoms: C_8  and  N_9
REMARK    7  A    between atoms: C_10  and  C_12
REMARK    8  A    between atoms: C_24  and  C_25
REMARK                            x       y       z     vdW  Elec       q    Type
REMARK                         _______ _______ _______ _____ _____    ______ ____
ROOT
ATOM      1  C   UNL     1      49.053   8.042  16.102  0.00  0.00    +0.000 A 
ATOM      2  C   UNL     1      48.195   9.018  15.568  0.00  0.00    +0.000 A 
ATOM      3  C   UNL     1      47.752   8.940  14.246  0.00  0.00    +0.000 A 
ATOM      4  C   UNL     1      48.173   7.890  13.420  0.00  0.00    +0.000 A 
ATOM      5  C   UNL     1      49.067   6.942  13.936  0.00  0.00    +0.000 A 
ATOM      6  C   UNL     1      49.489   7.006  15.268  0.00  0.00    +0.000 A 
ENDROOT
BRANCH   1   7
ATOM      7  C   UNL     1      49.454   8.091  17.566  0.00  0.00    +0.000 C 
BRANCH   7   9
ATOM      8  C   UNL     1      48.081   8.344  19.563  0.00  0.00    +0.000 C 
ATOM      9  N   UNL     1      48.486   7.442  18.476  0.00  0.00    +0.000 NA
BRANCH   9  10
ATOM     10  C   UNL     1      49.073   6.204  19.033  0.00  0.00    +0.000 C 
BRANCH  10  11
ATOM     11  C   UNL     1      48.805   4.990  18.175  0.00  0.00    +0.000 A 
ATOM     12  C   UNL     1      47.505   4.617  17.817  0.00  0.00    +0.000 A 
ATOM     13  C   UNL     1      47.296   3.441  17.102  0.00  0.00    +0.000 A 
ATOM     14  C   UNL     1      48.399   2.678  16.756  0.00  0.00    +0.000 A 
ATOM     15  N   UNL     1      49.671   3.011  17.067  0.00  0.00    +0.000 NA
ATOM     16  C   UNL     1      49.842   4.155  17.768  0.00  0.00    +0.000 A 
ENDBRANCH  10  11
ENDBRANCH   9  10
ENDBRANCH   7   9
ENDBRANCH   1   7
BRANCH   4  17
ATOM     17  C   UNL     1      47.698   7.785  11.995  0.00  0.00    +0.000 C 
BRANCH  17  18
ATOM     18  N   UNL     1      46.977   6.560  11.773  0.00  0.00    +0.000 N 
ATOM     19  C   UNL     1      45.638   6.461  12.052  0.00  0.00    +0.000 C 
ATOM     20  O   UNL     1      44.985   7.412  12.474  0.00  0.00    +0.000 OA
ATOM     21  H   UNL     1      47.529   5.712  11.689  0.00  0.00    +0.000 HD
BRANCH  19  22
ATOM     22  C   UNL     1      45.008   5.170  11.752  0.00  0.00    +0.000 A 
ATOM     23  C   UNL     1      44.328   4.486  12.752  0.00  0.00    +0.000 A 
ATOM     24  S   UNL     1      43.622   3.026  12.220  0.00  0.00    +0.000 S 
ATOM     25  C   UNL     1      44.243   3.232  10.650  0.00  0.00    +0.000 A 
ATOM     26  N   UNL     1      44.032   2.298   9.684  0.00  0.00    +0.000 NA
ATOM     27  C   UNL     1      44.583   2.572   8.549  0.00  0.00    +0.000 A 
ATOM     28  N   UNL     1      45.320   3.698   8.286  0.00  0.00    +0.000 N 
ATOM     29  C   UNL     1      45.541   4.682   9.223  0.00  0.00    +0.000 A 
ATOM     30  O   UNL     1      46.162   5.699   8.948  0.00  0.00    +0.000 OA
ATOM     31  C   UNL     1      44.954   4.411  10.524  0.00  0.00    +0.000 A 
ATOM     32  H   UNL     1      45.717   3.858   7.372  0.00  0.00    +0.000 HD
ENDBRANCH  19  22
ENDBRANCH  17  18
ENDBRANCH   4  17
TORSDOF 7
ENDMDL
MODEL 4
REMARK VINA RESULT:    -7.321      2.362      2.709
REMARK INTER + INTRA:         -11.308
REMARK INTER:                 -10.120
REMARK INTRA:                  -1.188
REMARK UNBOUND:                -0.992
REMARK  Name = 
REMARK  8 active torsions:
REMARK  status: ('A' for Active; 'I' for Inactive)
REMARK    1  A    between atoms: C_1  and  N_2
REMARK    2  A    between atoms: N_2  and  C_3
REMARK    3  A    between atoms: N_2  and  C_24
REMARK    4  A    between atoms: C_3  and  C_4
REMARK    5  A    between atoms: C_7  and  C_8
REMARK    6  A    between atoms: C_8  and  N_9
REMARK    7  A    between atoms: C_10  and  C_12
REMARK    8  A    between atoms: C_24  and  C_25
REMARK                            x       y       z     vdW  Elec       q    Type
REMARK                         _______ _______ _______ _____ _____    ______ ____
ROOT
ATOM      1  C   UNL     1      45.981   5.098  12.679  0.00  0.00    +0.000 A 
ATOM      2  C   UNL     1      46.265   6.098  11.735  0.00  0.00    +0.000 A 
ATOM      3  C   UNL     1      47.306   7.006  11.941  0.00  0.00    +0.000 A 
ATOM      4  C   UNL     1      48.078   6.944  13.108  0.00  0.00    +0.000 A 
ATOM      5  C   UNL     1      47.765   5.977  14.073  0.00  0.00    +0.000 A 
ATOM      6  C   UNL     1      46.740   5.052  13.855  0.00  0.00    +0.000 A 
ENDROOT
BRANCH   1   7
ATOM      7  C   UNL     1      44.905   4.062  12.400  0.00  0.00    +0.000 C 
BRANCH   7   9
ATOM      8  C   UNL     1      42.802   4.804  11.419  0.00  0.00    +0.000 C 
ATOM      9  N   UNL     1      44.155   4.298  11.148  0.00  0.00    +0.000 NA
BRANCH   9  10
ATOM     10  C   UNL     1      44.084   3.047  10.363  0.00  0.00    +0.000 C 
BRANCH  10  11
ATOM     11  C   UNL     1      45.026   3.041   9.182  0.00  0.00    +0.000 A 
ATOM     12  C   UNL     1      45.619   1.860   8.724  0.00  0.00    +0.000 A 
ATOM     13  C   UNL     1      46.550   1.911   7.690  0.00  0.00    +0.000 A 
ATOM     14  C   UNL     1      46.852   3.145   7.139  0.00  0.00    +0.000 A 
ATOM     15  N   UNL     1      46.290   4.306   7.541  0.00  0.00    +0.000 NA
ATOM     16  C   UNL     1      45.394   4.226   8.551  0.00  0.00    +0.000 A 
ENDBRANCH  10  11
ENDBRANCH   9  10
ENDBRANCH   7   9
ENDBRANCH   1   7
BRANCH   4  17
ATOM     17  C   UNL     1      49.210   7.909  13.342  0.00  0.00    +0.000 C 
BRANCH  17  18
ATOM     18  N   UNL     1      50.278   7.292  14.085  0.00  0.00    +0.000 N 
ATOM     19  C   UNL     1      50.821   7.898  15.187  0.00  0.00    +0.000 C 
ATOM     20  O   UNL     1      50.410   8.975  15.612  0.00  0.00    +0.000 OA
ATOM     21  H   UNL     1      50.801   6.562  13.613  0.00  0.00    +0.000 HD
BRANCH  19  22
ATOM     22  C   UNL     1      51.881   7.155  15.879  0.00  0.00    +0.000 A 
ATOM     23  C   UNL     1      53.199   7.578  15.777  0.00  0.00    +0.000 A 
ATOM     24  S   UNL     1      54.293   6.625  16.677  0.00  0.00    +0.000 S 
ATOM     25  C   UNL     1      53.050   5.584  17.192  0.00  0.00    +0.000 A 
ATOM     26  N   UNL     1      53.317   4.507  17.978  0.00  0.00    +0.000 NA
ATOM     27  C   UNL     1      52.283   3.790  18.270  0.00  0.00    +0.000 A 
ATOM     28  N   UNL     1      51.004   4.054  17.854  0.00  0.00    +0.000 N 
ATOM     29  C   UNL     1      50.680   5.145  17.078  0.00  0.00    +0.000 A 
ATOM     30  O   UNL     1      49.523   5.383  16.762  0.00  0.00    +0.000 OA
ATOM     31  C   UNL     1      51.814   5.974  16.709  0.00  0.00    +0.000 A 
ATOM     32  H   UNL     1      50.236   3.459  18.126  0.00  0.00    +0.000 HD
ENDBRANCH  19  22
ENDBRANCH  17  18
ENDBRANCH   4  17
TORSDOF 7
ENDMDL
MODEL 5
REMARK VINA RESULT:    -7.309      3.590      8.500
REMARK INTER + INTRA:         -11.292
REMARK INTER:                  -9.643
REMARK INTRA:                  -1.649
REMARK UNBOUND:                -0.992
REMARK  Name = 
REMARK  8 active torsions:
REMARK  status: ('A' for Active; 'I' for Inactive)
REMARK    1  A    between atoms: C_1  and  N_2
REMARK    2  A    between atoms: N_2  and  C_3
REMARK    3  A    between atoms: N_2  and  C_24
REMARK    4  A    between atoms: C_3  and  C_4
REMARK    5  A    between atoms: C_7  and  C_8
REMARK    6  A    between atoms: C_8  and  N_9
REMARK    7  A    between atoms: C_10  and  C_12
REMARK    8  A    between atoms: C_24  and  C_25
REMARK                            x       y       z     vdW  Elec       q    Type
REMARK                         _______ _______ _______ _____ _____    ______ ____
ROOT
ATOM      1  C   UNL     1      48.855   7.945  16.210  0.00  0.00    +0.000 A 
ATOM      2  C   UNL     1      49.142   6.835  15.399  0.00  0.00    +0.000 A 
ATOM      3  C   UNL     1      48.969   6.891  14.014  0.00  0.00    +0.000 A 
ATOM      4  C   UNL     1      48.488   8.060  13.409  0.00  0.00    +0.000 A 
ATOM      5  C   UNL     1      48.156   9.152  14.221  0.00  0.00    +0.000 A 
ATOM      6  C   UNL     1      48.353   9.104  15.604  0.00  0.00    +0.000 A 
ENDROOT
BRANCH   1   7
ATOM      7  C   UNL     1      49.132   7.898  17.702  0.00  0.00    +0.000 C 
BRANCH   7   9
ATOM      8  C   UNL     1      47.518   8.412  19.454  0.00  0.00    +0.000 C 
ATOM      9  N   UNL     1      47.999   7.395  18.508  0.00  0.00    +0.000 NA
BRANCH   9  10
ATOM     10  C   UNL     1      48.404   6.173  19.236  0.00  0.00    +0.000 C 
BRANCH  10  11
ATOM     11  C   UNL     1      48.281   4.922  18.398  0.00  0.00    +0.000 A 
ATOM     12  C   UNL     1      49.381   4.096  18.148  0.00  0.00    +0.000 A 
ATOM     13  C   UNL     1      49.245   3.002  17.297  0.00  0.00    +0.000 A 
ATOM     14  C   UNL     1      48.005   2.764  16.729  0.00  0.00    +0.000 A 
ATOM     15  N   UNL     1      46.913   3.527  16.958  0.00  0.00    +0.000 NA
ATOM     16  C   UNL     1      47.078   4.586  17.783  0.00  0.00    +0.000 A 
ENDBRANCH  10  11
ENDBRANCH   9  10
ENDBRANCH   7   9
ENDBRANCH   1   7
BRANCH   4  17
ATOM     17  C   UNL     1      48.305   8.142  11.916  0.00  0.00    +0.000 C 
BRANCH  17  18
ATOM     18  N   UNL     1      47.607   6.989  11.411  0.00  0.00    +0.000 N 
ATOM     19  C   UNL     1      46.238   6.960  11.344  0.00  0.00    +0.000 C 
ATOM     20  O   UNL     1      45.544   7.916  11.681  0.00  0.00    +0.000 OA
ATOM     21  H   UNL     1      48.122   6.116  11.386  0.00  0.00    +0.000 HD
BRANCH  19  22
ATOM     22  C   UNL     1      45.643   5.742  10.779  0.00  0.00    +0.000 A 
ATOM     23  C   UNL     1      45.801   5.459   9.429  0.00  0.00    +0.000 A 
ATOM     24  S   UNL     1      45.083   3.985   8.954  0.00  0.00    +0.000 S 
ATOM     25  C   UNL     1      44.493   3.701  10.523  0.00  0.00    +0.000 A 
ATOM     26  N   UNL     1      43.742   2.601  10.802  0.00  0.00    +0.000 NA
ATOM     27  C   UNL     1      43.340   2.528  12.027  0.00  0.00    +0.000 A 
ATOM     28  N   UNL     1      43.624   3.448  13.002  0.00  0.00    +0.000 N 
ATOM     29  C   UNL     1      44.399   4.563  12.775  0.00  0.00    +0.000 A 
ATOM     30  O   UNL     1      44.678   5.343  13.675  0.00  0.00    +0.000 OA
ATOM     31  C   UNL     1      44.862   4.699  11.405  0.00  0.00    +0.000 A 
ATOM     32  H   UNL     1      43.287   3.326  13.946  0.00  0.00    +0.000 HD
ENDBRANCH  19  22
ENDBRANCH  17  18
ENDBRANCH   4  17
TORSDOF 7
ENDMDL
MODEL 6
REMARK VINA RESULT:    -7.188      3.330      5.966
REMARK INTER + INTRA:         -11.121
REMARK INTER:                 -10.584
REMARK INTRA:                  -0.537
REMARK UNBOUND:                -0.992
REMARK  Name = 
REMARK  8 active torsions:
REMARK  status: ('A' for Active; 'I' for Inactive)
REMARK    1  A    between atoms: C_1  and  N_2
REMARK    2  A    between atoms: N_2  and  C_3
REMARK    3  A    between atoms: N_2  and  C_24
REMARK    4  A    between atoms: C_3  and  C_4
REMARK    5  A    between atoms: C_7  and  C_8
REMARK    6  A    between atoms: C_8  and  N_9
REMARK    7  A    between atoms: C_10  and  C_12
REMARK    8  A    between atoms: C_24  and  C_25
REMARK                            x       y       z     vdW  Elec       q    Type
REMARK                         _______ _______ _______ _____ _____    ______ ____
ROOT
ATOM      1  C   UNL     1      45.653   3.523   7.886  0.00  0.00    +0.000 A 
ATOM      2  C   UNL     1      45.799   4.715   8.614  0.00  0.00    +0.000 A 
ATOM      3  C   UNL     1      45.337   4.817   9.928  0.00  0.00    +0.000 A 
ATOM      4  C   UNL     1      44.701   3.729  10.540  0.00  0.00    +0.000 A 
ATOM      5  C   UNL     1      44.512   2.554   9.799  0.00  0.00    +0.000 A 
ATOM      6  C   UNL     1      44.998   2.444   8.493  0.00  0.00    +0.000 A 
ENDROOT
BRANCH   1   7
ATOM      7  C   UNL     1      46.240   3.398   6.491  0.00  0.00    +0.000 C 
BRANCH   7   9
ATOM      8  C   UNL     1      47.902   1.722   7.095  0.00  0.00    +0.000 C 
ATOM      9  N   UNL     1      46.795   2.061   6.190  0.00  0.00    +0.000 NA
BRANCH   9  10
ATOM     10  C   UNL     1      47.252   2.013   4.785  0.00  0.00    +0.000 C 
BRANCH  10  11
ATOM     11  C   UNL     1      46.725   0.810   4.037  0.00  0.00    +0.000 A 
ATOM     12  C   UNL     1      47.108  -0.491   4.378  0.00  0.00    +0.000 A 
ATOM     13  C   UNL     1      46.671  -1.564   3.607  0.00  0.00    +0.000 A 
ATOM     14  C   UNL     1      45.853  -1.302   2.521  0.00  0.00    +0.000 A 
ATOM     15  N   UNL     1      45.446  -0.063   2.168  0.00  0.00    +0.000 NA
ATOM     16  C   UNL     1      45.892   0.960   2.932  0.00  0.00    +0.000 A 
ENDBRANCH  10  11
ENDBRANCH   9  10
ENDBRANCH   7   9
ENDBRANCH   1   7
BRANCH   4  17
ATOM     17  C   UNL     1      44.205   3.818  11.959  0.00  0.00    +0.000 C 
BRANCH  17  18
ATOM     18  N   UNL     1      45.105   4.585  12.780  0.00  0.00    +0.000 N 
ATOM     19  C   UNL     1      46.190   4.004  13.382  0.00  0.00    +0.000 C 
ATOM     20  O   UNL     1      46.465   2.817  13.231  0.00  0.00    +0.000 OA
ATOM     21  H   UNL     1      44.760   5.472  13.132  0.00  0.00    +0.000 HD
BRANCH  19  22
ATOM     22  C   UNL     1      47.051   4.897  14.167  0.00  0.00    +0.000 A 
ATOM     23  C   UNL     1      47.380   4.565  15.474  0.00  0.00    +0.000 A 
ATOM     24  S   UNL     1      48.421   5.691  16.223  0.00  0.00    +0.000 S 
ATOM     25  C   UNL     1      48.428   6.687  14.844  0.00  0.00    +0.000 A 
ATOM     26  N   UNL     1      49.112   7.863  14.830  0.00  0.00    +0.000 NA
ATOM     27  C   UNL     1      49.007   8.527  13.728  0.00  0.00    +0.000 A 
ATOM     28  N   UNL     1      48.286   8.124  12.635  0.00  0.00    +0.000 N 
ATOM     29  C   UNL     1      47.596   6.932  12.592  0.00  0.00    +0.000 A 
ATOM     30  O   UNL     1      47.000   6.575  11.586  0.00  0.00    +0.000 OA
ATOM     31  C   UNL     1      47.671   6.155  13.816  0.00  0.00    +0.000 A 
ATOM     32  H   UNL     1      48.252   8.686  11.798  0.00  0.00    +0.000 HD
ENDBRANCH  19  22
ENDBRANCH  17  18
ENDBRANCH   4  17
TORSDOF 7
ENDMDL
MODEL 7
REMARK VINA RESULT:    -6.608      3.403      8.587
REMARK INTER + INTRA:         -10.304
REMARK INTER:                  -8.649
REMARK INTRA:                  -1.655
REMARK UNBOUND:                -0.992
REMARK  Name = 
REMARK  8 active torsions:
REMARK  status: ('A' for Active; 'I' for Inactive)
REMARK    1  A    between atoms: C_1  and  N_2
REMARK    2  A    between atoms: N_2  and  C_3
REMARK    3  A    between atoms: N_2  and  C_24
REMARK    4  A    between atoms: C_3  and  C_4
REMARK    5  A    between atoms: C_7  and  C_8
REMARK    6  A    between atoms: C_8  and  N_9
REMARK    7  A    between atoms: C_10  and  C_12
REMARK    8  A    between atoms: C_24  and  C_25
REMARK                            x       y       z     vdW  Elec       q    Type
REMARK                         _______ _______ _______ _____ _____    ______ ____
ROOT
ATOM      1  C   UNL     1      49.741   7.628  18.453  0.00  0.00    +0.000 A 
ATOM      2  C   UNL     1      48.525   8.302  18.256  0.00  0.00    +0.000 A 
ATOM      3  C   UNL     1      48.078   8.619  16.971  0.00  0.00    +0.000 A 
ATOM      4  C   UNL     1      48.849   8.281  15.852  0.00  0.00    +0.000 A 
ATOM      5  C   UNL     1      50.085   7.651  16.049  0.00  0.00    +0.000 A 
ATOM      6  C   UNL     1      50.520   7.311  17.334  0.00  0.00    +0.000 A 
ENDROOT
BRANCH   1   7
ATOM      7  C   UNL     1      50.171   7.212  19.849  0.00  0.00    +0.000 C 
BRANCH   7   9
ATOM      8  C   UNL     1      49.456   6.047  21.866  0.00  0.00    +0.000 C 
ATOM      9  N   UNL     1      49.408   6.071  20.398  0.00  0.00    +0.000 NA
BRANCH   9  10
ATOM     10  C   UNL     1      49.937   4.804  19.850  0.00  0.00    +0.000 C 
BRANCH  10  11
ATOM     11  C   UNL     1      49.055   4.215  18.774  0.00  0.00    +0.000 A 
ATOM     12  C   UNL     1      49.528   3.239  17.891  0.00  0.00    +0.000 A 
ATOM     13  C   UNL     1      48.711   2.789  16.857  0.00  0.00    +0.000 A 
ATOM     14  C   UNL     1      47.439   3.324  16.746  0.00  0.00    +0.000 A 
ATOM     15  N   UNL     1      46.938   4.255  17.587  0.00  0.00    +0.000 NA
ATOM     16  C   UNL     1      47.757   4.678  18.577  0.00  0.00    +0.000 A 
ENDBRANCH  10  11
ENDBRANCH   9  10
ENDBRANCH   7   9
ENDBRANCH   1   7
BRANCH   4  17
ATOM     17  C   UNL     1      48.378   8.605  14.459  0.00  0.00    +0.000 C 
BRANCH  17  18
ATOM     18  N   UNL     1      47.353   7.690  14.027  0.00  0.00    +0.000 N 
ATOM     19  C   UNL     1      47.661   6.563  13.312  0.00  0.00    +0.000 C 
ATOM     20  O   UNL     1      48.818   6.262  13.028  0.00  0.00    +0.000 OA
ATOM     21  H   UNL     1      46.402   8.043  14.009  0.00  0.00    +0.000 HD
BRANCH  19  22
ATOM     22  C   UNL     1      46.534   5.692  12.958  0.00  0.00    +0.000 A 
ATOM     23  C   UNL     1      46.614   4.327  13.201  0.00  0.00    +0.000 A 
ATOM     24  S   UNL     1      45.200   3.474  12.768  0.00  0.00    +0.000 S 
ATOM     25  C   UNL     1      44.453   4.890  12.194  0.00  0.00    +0.000 A 
ATOM     26  N   UNL     1      43.211   4.853  11.641  0.00  0.00    +0.000 NA
ATOM     27  C   UNL     1      42.779   5.997  11.225  0.00  0.00    +0.000 A 
ATOM     28  N   UNL     1      43.472   7.176  11.315  0.00  0.00    +0.000 N 
ATOM     29  C   UNL     1      44.721   7.268  11.886  0.00  0.00    +0.000 A 
ATOM     30  O   UNL     1      45.296   8.342  11.997  0.00  0.00    +0.000 OA
ATOM     31  C   UNL     1      45.257   6.003  12.356  0.00  0.00    +0.000 A 
ATOM     32  H   UNL     1      43.073   8.040  10.978  0.00  0.00    +0.000 HD
ENDBRANCH  19  22
ENDBRANCH  17  18
ENDBRANCH   4  17
TORSDOF 7
ENDMDL
MODEL 8
REMARK VINA RESULT:    -6.596      5.399      8.722
REMARK INTER + INTRA:         -10.287
REMARK INTER:                  -9.195
REMARK INTRA:                  -1.092
REMARK UNBOUND:                -0.992
REMARK  Name = 
REMARK  8 active torsions:
REMARK  status: ('A' for Active; 'I' for Inactive)
REMARK    1  A    between atoms: C_1  and  N_2
REMARK    2  A    between atoms: N_2  and  C_3
REMARK    3  A    between atoms: N_2  and  C_24
REMARK    4  A    between atoms: C_3  and  C_4
REMARK    5  A    between atoms: C_7  and  C_8
REMARK    6  A    between atoms: C_8  and  N_9
REMARK    7  A    between atoms: C_10  and  C_12
REMARK    8  A    between atoms: C_24  and  C_25
REMARK                            x       y       z     vdW  Elec       q    Type
REMARK                         _______ _______ _______ _____ _____    ______ ____
ROOT
ATOM      1  C   UNL     1      50.335   8.971  11.435  0.00  0.00    +0.000 A 
ATOM      2  C   UNL     1      49.794   7.677  11.355  0.00  0.00    +0.000 A 
ATOM      3  C   UNL     1      48.510   7.403  11.834  0.00  0.00    +0.000 A 
ATOM      4  C   UNL     1      47.744   8.418  12.420  0.00  0.00    +0.000 A 
ATOM      5  C   UNL     1      48.301   9.699  12.545  0.00  0.00    +0.000 A 
ATOM      6  C   UNL     1      49.575   9.978  12.042  0.00  0.00    +0.000 A 
ENDROOT
BRANCH   1   7
ATOM      7  C   UNL     1      51.695   9.273  10.830  0.00  0.00    +0.000 C 
BRANCH   7   9
ATOM      8  C   UNL     1      53.400   8.216  12.214  0.00  0.00    +0.000 C 
ATOM      9  N   UNL     1      52.664   8.162  10.943  0.00  0.00    +0.000 NA
BRANCH   9  10
ATOM     10  C   UNL     1      53.607   8.200   9.805  0.00  0.00    +0.000 C 
BRANCH  10  11
ATOM     11  C   UNL     1      53.470   7.007   8.888  0.00  0.00    +0.000 A 
ATOM     12  C   UNL     1      54.308   5.893   9.005  0.00  0.00    +0.000 A 
ATOM     13  C   UNL     1      54.208   4.854   8.083  0.00  0.00    +0.000 A 
ATOM     14  C   UNL     1      53.263   4.959   7.077  0.00  0.00    +0.000 A 
ATOM     15  N   UNL     1      52.423   6.009   6.939  0.00  0.00    +0.000 NA
ATOM     16  C   UNL     1      52.549   7.005   7.845  0.00  0.00    +0.000 A 
ENDBRANCH  10  11
ENDBRANCH   9  10
ENDBRANCH   7   9
ENDBRANCH   1   7
BRANCH   4  17
ATOM     17  C   UNL     1      46.355   8.144  12.933  0.00  0.00    +0.000 C 
BRANCH  17  18
ATOM     18  N   UNL     1      45.927   6.811  12.596  0.00  0.00    +0.000 N 
ATOM     19  C   UNL     1      44.810   6.594  11.831  0.00  0.00    +0.000 C 
ATOM     20  O   UNL     1      44.139   7.516  11.375  0.00  0.00    +0.000 OA
ATOM     21  H   UNL     1      46.291   6.055  13.167  0.00  0.00    +0.000 HD
BRANCH  19  22
ATOM     22  C   UNL     1      44.496   5.193  11.527  0.00  0.00    +0.000 A 
ATOM     23  C   UNL     1      43.759   4.440  12.432  0.00  0.00    +0.000 A 
ATOM     24  S   UNL     1      43.449   2.848  11.900  0.00  0.00    +0.000 S 
ATOM     25  C   UNL     1      44.332   3.094  10.467  0.00  0.00    +0.000 A 
ATOM     26  N   UNL     1      44.495   2.092   9.562  0.00  0.00    +0.000 NA
ATOM     27  C   UNL     1      45.209   2.412   8.535  0.00  0.00    +0.000 A 
ATOM     28  N   UNL     1      45.772   3.644   8.325  0.00  0.00    +0.000 N 
ATOM     29  C   UNL     1      45.615   4.696   9.200  0.00  0.00    +0.000 A 
ATOM     30  O   UNL     1      46.088   5.800   8.963  0.00  0.00    +0.000 OA
ATOM     31  C   UNL     1      44.831   4.380  10.381  0.00  0.00    +0.000 A 
ATOM     32  H   UNL     1      46.312   3.834   7.494  0.00  0.00    +0.000 HD
ENDBRANCH  19  22
ENDBRANCH  17  18
ENDBRANCH   4  17
TORSDOF 7
ENDMDL
MODEL 9
REMARK VINA RESULT:    -6.463      4.646      6.465
REMARK INTER + INTRA:         -10.099
REMARK INTER:                  -8.981
REMARK INTRA:                  -1.118
REMARK UNBOUND:                -0.992
REMARK  Name = 
REMARK  8 active torsions:
REMARK  status: ('A' for Active; 'I' for Inactive)
REMARK    1  A    between atoms: C_1  and  N_2
REMARK    2  A    between atoms: N_2  and  C_3
REMARK    3  A    between atoms: N_2  and  C_24
REMARK    4  A    between atoms: C_3  and  C_4
REMARK    5  A    between atoms: C_7  and  C_8
REMARK    6  A    between atoms: C_8  and  N_9
REMARK    7  A    between atoms: C_10  and  C_12
REMARK    8  A    between atoms: C_24  and  C_25
REMARK                            x       y       z     vdW  Elec       q    Type
REMARK                         _______ _______ _______ _____ _____    ______ ____
ROOT
ATOM      1  C   UNL     1      45.123   9.263  11.773  0.00  0.00    +0.000 A 
ATOM      2  C   UNL     1      44.369   8.169  11.320  0.00  0.00    +0.000 A 
ATOM      3  C   UNL     1      44.635   6.874  11.772  0.00  0.00    +0.000 A 
ATOM      4  C   UNL     1      45.677   6.644  12.679  0.00  0.00    +0.000 A 
ATOM      5  C   UNL     1      46.461   7.728  13.096  0.00  0.00    +0.000 A 
ATOM      6  C   UNL     1      46.178   9.026  12.663  0.00  0.00    +0.000 A 
ENDROOT
BRANCH   1   7
ATOM      7  C   UNL     1      44.764  10.675  11.341  0.00  0.00    +0.000 C 
BRANCH   7   9
ATOM      8  C   UNL     1      43.947  11.121   9.090  0.00  0.00    +0.000 C 
ATOM      9  N   UNL     1      43.577  10.751  10.463  0.00  0.00    +0.000 NA
BRANCH   9  10
ATOM     10  C   UNL     1      42.610  11.726  11.011  0.00  0.00    +0.000 C 
BRANCH  10  11
ATOM     11  C   UNL     1      41.175  11.358  10.715  0.00  0.00    +0.000 A 
ATOM     12  C   UNL     1      40.411  12.074   9.787  0.00  0.00    +0.000 A 
ATOM     13  C   UNL     1      39.066  11.759   9.610  0.00  0.00    +0.000 A 
ATOM     14  C   UNL     1      38.529  10.729  10.363  0.00  0.00    +0.000 A 
ATOM     15  N   UNL     1      39.236  10.003  11.256  0.00  0.00    +0.000 NA
ATOM     16  C   UNL     1      40.537  10.335  11.412  0.00  0.00    +0.000 A 
ENDBRANCH  10  11
ENDBRANCH   9  10
ENDBRANCH   7   9
ENDBRANCH   1   7
BRANCH   4  17
ATOM     17  C   UNL     1      45.972   5.256  13.185  0.00  0.00    +0.000 C 
BRANCH  17  18
ATOM     18  N   UNL     1      46.590   5.295  14.485  0.00  0.00    +0.000 N 
ATOM     19  C   UNL     1      47.238   4.201  14.997  0.00  0.00    +0.000 C 
ATOM     20  O   UNL     1      47.348   3.151  14.369  0.00  0.00    +0.000 OA
ATOM     21  H   UNL     1      46.288   6.030  15.114  0.00  0.00    +0.000 HD
BRANCH  19  22
ATOM     22  C   UNL     1      47.857   4.374  16.317  0.00  0.00    +0.000 A 
ATOM     23  C   UNL     1      47.502   3.529  17.361  0.00  0.00    +0.000 A 
ATOM     24  S   UNL     1      48.347   3.844  18.810  0.00  0.00    +0.000 S 
ATOM     25  C   UNL     1      49.178   5.152  18.107  0.00  0.00    +0.000 A 
ATOM     26  N   UNL     1      50.052   5.899  18.834  0.00  0.00    +0.000 NA
ATOM     27  C   UNL     1      50.590   6.875  18.180  0.00  0.00    +0.000 A 
ATOM     28  N   UNL     1      50.339   7.169  16.865  0.00  0.00    +0.000 N 
ATOM     29  C   UNL     1      49.481   6.429  16.083  0.00  0.00    +0.000 A 
ATOM     30  O   UNL     1      49.314   6.685  14.899  0.00  0.00    +0.000 OA
ATOM     31  C   UNL     1      48.838   5.328  16.779  0.00  0.00    +0.000 A 
ATOM     32  H   UNL     1      50.801   7.942  16.409  0.00  0.00    +0.000 HD
ENDBRANCH  19  22
ENDBRANCH  17  18
ENDBRANCH   4  17
TORSDOF 7
ENDMDL
