MODEL 1
REMARK VINA RESULT:    -7.945      0.000      0.000
REMARK INTER + INTRA:         -11.529
REMARK INTER:                 -10.731
REMARK INTRA:                  -0.798
REMARK UNBOUND:                -0.798
REMARK  Name = 
REMARK  6 active torsions:
REMARK  status: ('A' for Active; 'I' for Inactive)
REMARK    1  A    between atoms: C_2  and  C_4
REMARK    2  A    between atoms: C_7  and  O_8
REMARK    3  A    between atoms: O_8  and  C_9
REMARK    4  A    between atoms: C_9  and  C_10
REMARK    5  A    between atoms: C_10  and  C_11
REMARK    6  A    between atoms: C_15  and  C_16
REMARK                            x       y       z     vdW  Elec       q    Type
REMARK                         _______ _______ _______ _____ _____    ______ ____
ROOT
ATOM      1  C   UNL     1      43.566   4.684  12.254  0.00  0.00    +0.000 C 
ENDROOT
BRANCH   1   2
ATOM      2  C   UNL     1      44.903   5.220  12.693  0.00  0.00    +0.000 A 
ATOM      3  C   UNL     1      45.786   4.419  13.420  0.00  0.00    +0.000 A 
ATOM      4  C   UNL     1      47.023   4.915  13.814  0.00  0.00    +0.000 A 
ATOM      5  C   UNL     1      47.392   6.216  13.476  0.00  0.00    +0.000 A 
ATOM      6  C   UNL     1      46.571   7.039  12.689  0.00  0.00    +0.000 A 
ATOM      7  C   UNL     1      45.302   6.523  12.345  0.00  0.00    +0.000 A 
BRANCH   6   8
ATOM      8  C   UNL     1      47.007   8.395  12.248  0.00  0.00    +0.000 A 
ATOM      9  C   UNL     1      46.064   9.450  12.247  0.00  0.00    +0.000 A 
ATOM     10  C   UNL     1      46.400  10.752  11.869  0.00  0.00    +0.000 A 
ATOM     11  C   UNL     1      47.703  11.046  11.501  0.00  0.00    +0.000 A 
ATOM     12  C   UNL     1      48.657  10.040  11.472  0.00  0.00    +0.000 A 
ATOM     13  C   UNL     1      48.314   8.721  11.814  0.00  0.00    +0.000 A 
ATOM     14 CL   UNL     1      49.593   7.568  11.582  0.00  0.00    +0.000 Cl
ENDBRANCH   6   8
ENDBRANCH   1   2
BRANCH   1  15
ATOM     15  C   UNL     1      43.645   3.643  11.135  0.00  0.00    +0.000 C 
BRANCH  15  16
ATOM     16  O   UNL     1      43.840   4.339   9.893  0.00  0.00    +0.000 OA
BRANCH  16  20
ATOM     17  C   UNL     1      46.549   2.432   7.534  0.00  0.00    +0.000 A 
ATOM     18  C   UNL     1      46.347   3.802   7.404  0.00  0.00    +0.000 A 
ATOM     19  N   UNL     1      45.455   4.491   8.167  0.00  0.00    +0.000 NA
ATOM     20  C   UNL     1      44.773   3.748   9.068  0.00  0.00    +0.000 A 
ATOM     21  C   UNL     1      44.977   2.376   9.197  0.00  0.00    +0.000 A 
ATOM     22  N   UNL     1      45.863   1.676   8.437  0.00  0.00    +0.000 NA
BRANCH  17  24
ATOM     23  N   UNL     1      48.694   2.428   6.378  0.00  0.00    +0.000 N 
ATOM     24  C   UNL     1      47.542   1.747   6.662  0.00  0.00    +0.000 C 
ATOM     25  O   UNL     1      47.347   0.616   6.227  0.00  0.00    +0.000 OA
ATOM     26  H   UNL     1      49.411   1.959   5.844  0.00  0.00    +0.000 HD
ATOM     27  H   UNL     1      48.899   3.306   6.842  0.00  0.00    +0.000 HD
ENDBRANCH  17  24
ENDBRANCH  16  20
ENDBRANCH  15  16
ENDBRANCH   1  15
TORSDOF 6
ENDMDL
MODEL 2
REMARK VINA RESULT:    -7.931      2.097      4.104
REMARK INTER + INTRA:         -11.511
REMARK INTER:                 -10.719
REMARK INTRA:                  -0.792
REMARK UNBOUND:                -0.798
REMARK  Name = 
REMARK  6 active torsions:
REMARK  status: ('A' for Active; 'I' for Inactive)
REMARK    1  A    between atoms: C_2  and  C_4
REMARK    2  A    between atoms: C_7  and  O_8
REMARK    3  A    between atoms: O_8  and  C_9
REMARK    4  A    between atoms: C_9  and  C_10
REMARK    5  A    between atoms: C_10  and  C_11
REMARK    6  A    between atoms: C_15  and  C_16
REMARK                            x       y       z     vdW  Elec       q    Type
REMARK                         _______ _______ _______ _____ _____    ______ ____
ROOT
ATOM      1  C   UNL     1      43.755   5.027  12.147  0.00  0.00    +0.000 C 
ENDROOT
BRANCH   1   2
ATOM      2  C   UNL     1      45.177   5.381  12.494  0.00  0.00    +0.000 A 
ATOM      3  C   UNL     1      45.919   6.228  11.668  0.00  0.00    +0.000 A 
ATOM      4  C   UNL     1      47.228   6.560  11.996  0.00  0.00    +0.000 A 
ATOM      5  C   UNL     1      47.804   6.055  13.162  0.00  0.00    +0.000 A 
ATOM      6  C   UNL     1      47.080   5.256  14.061  0.00  0.00    +0.000 A 
ATOM      7  C   UNL     1      45.769   4.898  13.674  0.00  0.00    +0.000 A 
BRANCH   6   8
ATOM      8  C   UNL     1      47.665   4.796  15.352  0.00  0.00    +0.000 A 
ATOM      9  C   UNL     1      47.409   3.473  15.787  0.00  0.00    +0.000 A 
ATOM     10  C   UNL     1      47.938   2.961  16.973  0.00  0.00    +0.000 A 
ATOM     11  C   UNL     1      48.766   3.750  17.754  0.00  0.00    +0.000 A 
ATOM     12  C   UNL     1      49.033   5.057  17.375  0.00  0.00    +0.000 A 
ATOM     13  C   UNL     1      48.470   5.590  16.203  0.00  0.00    +0.000 A 
ATOM     14 CL   UNL     1      48.793   7.280  15.960  0.00  0.00    +0.000 Cl
ENDBRANCH   6   8
ENDBRANCH   1   2
BRANCH   1  15
ATOM     15  C   UNL     1      43.497   4.862  10.648  0.00  0.00    +0.000 C 
BRANCH  15  16
ATOM     16  O   UNL     1      43.594   3.464  10.331  0.00  0.00    +0.000 OA
BRANCH  16  20
ATOM     17  C   UNL     1      46.467   2.788   7.533  0.00  0.00    +0.000 A 
ATOM     18  C   UNL     1      45.983   1.741   8.308  0.00  0.00    +0.000 A 
ATOM     19  N   UNL     1      45.022   1.909   9.257  0.00  0.00    +0.000 NA
ATOM     20  C   UNL     1      44.566   3.173   9.397  0.00  0.00    +0.000 A 
ATOM     21  C   UNL     1      45.052   4.222   8.619  0.00  0.00    +0.000 A 
ATOM     22  N   UNL     1      46.015   4.067   7.670  0.00  0.00    +0.000 NA
BRANCH  17  24
ATOM     23  N   UNL     1      47.372   3.134   5.298  0.00  0.00    +0.000 N 
ATOM     24  C   UNL     1      47.521   2.527   6.515  0.00  0.00    +0.000 C 
ATOM     25  O   UNL     1      48.489   1.814   6.756  0.00  0.00    +0.000 OA
ATOM     26  H   UNL     1      48.106   3.026   4.613  0.00  0.00    +0.000 HD
ATOM     27  H   UNL     1      46.638   3.817   5.150  0.00  0.00    +0.000 HD
ENDBRANCH  17  24
ENDBRANCH  16  20
ENDBRANCH  15  16
ENDBRANCH   1  15
TORSDOF 6
ENDMDL
MODEL 3
REMARK VINA RESULT:    -7.434      4.540      7.666
REMARK INTER + INTRA:         -10.839
REMARK INTER:                  -9.722
REMARK INTRA:                  -1.117
REMARK UNBOUND:                -0.798
REMARK  Name = 
REMARK  6 active torsions:
REMARK  status: ('A' for Active; 'I' for Inactive)
REMARK    1  A    between atoms: C_2  and  C_4
REMARK    2  A    between atoms: C_7  and  O_8
REMARK    3  A    between atoms: O_8  and  C_9
REMARK    4  A    between atoms: C_9  and  C_10
REMARK    5  A    between atoms: C_10  and  C_11
REMARK    6  A    between atoms: C_15  and  C_16
REMARK                            x       y       z     vdW  Elec       q    Type
REMARK                         _______ _______ _______ _____ _____    ______ ____
ROOT
ATOM      1  C   UNL     1      48.857   8.136  12.061  0.00  0.00    +0.000 C 
ENDROOT
BRANCH   1   2
ATOM      2  C   UNL     1      47.392   7.831  11.892  0.00  0.00    +0.000 A 
ATOM      3  C   UNL     1      46.425   8.775  12.243  0.00  0.00    +0.000 A 
ATOM      4  C   UNL     1      45.074   8.493  12.076  0.00  0.00    +0.000 A 
ATOM      5  C   UNL     1      44.679   7.265  11.547  0.00  0.00    +0.000 A 
ATOM      6  C   UNL     1      45.612   6.309  11.115  0.00  0.00    +0.000 A 
ATOM      7  C   UNL     1      46.974   6.607  11.342  0.00  0.00    +0.000 A 
BRANCH   6   8
ATOM      8  C   UNL     1      45.190   5.037  10.461  0.00  0.00    +0.000 A 
ATOM      9  C   UNL     1      45.471   4.848   9.087  0.00  0.00    +0.000 A 
ATOM     10  C   UNL     1      45.128   3.677   8.409  0.00  0.00    +0.000 A 
ATOM     11  C   UNL     1      44.512   2.642   9.093  0.00  0.00    +0.000 A 
ATOM     12  C   UNL     1      44.205   2.788  10.437  0.00  0.00    +0.000 A 
ATOM     13  C   UNL     1      44.512   3.980  11.114  0.00  0.00    +0.000 A 
ATOM     14 CL   UNL     1      43.926   4.044  12.748  0.00  0.00    +0.000 Cl
ENDBRANCH   6   8
ENDBRANCH   1   2
BRANCH   1  15
ATOM     15  C   UNL     1      49.570   7.243  13.079  0.00  0.00    +0.000 C 
BRANCH  15  16
ATOM     16  O   UNL     1      49.157   7.651  14.393  0.00  0.00    +0.000 OA
BRANCH  16  20
ATOM     17  C   UNL     1      48.046   4.636  16.888  0.00  0.00    +0.000 A 
ATOM     18  C   UNL     1      47.522   4.712  15.603  0.00  0.00    +0.000 A 
ATOM     19  N   UNL     1      47.859   5.697  14.726  0.00  0.00    +0.000 NA
ATOM     20  C   UNL     1      48.745   6.605  15.193  0.00  0.00    +0.000 A 
ATOM     21  C   UNL     1      49.270   6.527  16.481  0.00  0.00    +0.000 A 
ATOM     22  N   UNL     1      48.938   5.550  17.368  0.00  0.00    +0.000 NA
BRANCH  17  24
ATOM     23  N   UNL     1      48.279   3.428  18.991  0.00  0.00    +0.000 N 
ATOM     24  C   UNL     1      47.629   3.530  17.791  0.00  0.00    +0.000 C 
ATOM     25  O   UNL     1      46.732   2.750  17.486  0.00  0.00    +0.000 OA
ATOM     26  H   UNL     1      47.970   2.728  19.649  0.00  0.00    +0.000 HD
ATOM     27  H   UNL     1      48.929   4.149  19.286  0.00  0.00    +0.000 HD
ENDBRANCH  17  24
ENDBRANCH  16  20
ENDBRANCH  15  16
ENDBRANCH   1  15
TORSDOF 6
ENDMDL
MODEL 4
REMARK VINA RESULT:    -7.072      4.414      7.565
REMARK INTER + INTRA:         -10.351
REMARK INTER:                  -9.376
REMARK INTRA:                  -0.975
REMARK UNBOUND:                -0.798
REMARK  Name = 
REMARK  6 active torsions:
REMARK  status: ('A' for Active; 'I' for Inactive)
REMARK    1  A    between atoms: C_2  and  C_4
REMARK    2  A    between atoms: C_7  and  O_8
REMARK    3  A    between atoms: O_8  and  C_9
REMARK    4  A    between atoms: C_9  and  C_10
REMARK    5  A    between atoms: C_10  and  C_11
REMARK    6  A    between atoms: C_15  and  C_16
REMARK                            x       y       z     vdW  Elec       q    Type
REMARK                         _______ _______ _______ _____ _____    ______ ____
ROOT
ATOM      1  C   UNL     1      49.030   8.140  12.045  0.00  0.00    +0.000 C 
ENDROOT
BRANCH   1   2
ATOM      2  C   UNL     1      47.531   8.020  11.971  0.00  0.00    +0.000 A 
ATOM      3  C   UNL     1      46.725   9.160  12.002  0.00  0.00    +0.000 A 
ATOM      4  C   UNL     1      45.342   9.046  11.924  0.00  0.00    +0.000 A 
ATOM      5  C   UNL     1      44.753   7.788  11.804  0.00  0.00    +0.000 A 
ATOM      6  C   UNL     1      45.519   6.616  11.699  0.00  0.00    +0.000 A 
ATOM      7  C   UNL     1      46.919   6.762  11.830  0.00  0.00    +0.000 A 
BRANCH   6   8
ATOM      8  C   UNL     1      44.892   5.283  11.475  0.00  0.00    +0.000 A 
ATOM      9  C   UNL     1      44.194   4.667  12.541  0.00  0.00    +0.000 A 
ATOM     10  C   UNL     1      43.561   3.429  12.403  0.00  0.00    +0.000 A 
ATOM     11  C   UNL     1      43.586   2.777  11.182  0.00  0.00    +0.000 A 
ATOM     12  C   UNL     1      44.270   3.336  10.113  0.00  0.00    +0.000 A 
ATOM     13  C   UNL     1      44.942   4.561  10.258  0.00  0.00    +0.000 A 
ATOM     14 CL   UNL     1      45.865   5.039   8.866  0.00  0.00    +0.000 Cl
ENDBRANCH   6   8
ENDBRANCH   1   2
BRANCH   1  15
ATOM     15  C   UNL     1      49.674   7.281  13.137  0.00  0.00    +0.000 C 
BRANCH  15  16
ATOM     16  O   UNL     1      49.129   7.689  14.402  0.00  0.00    +0.000 OA
BRANCH  16  20
ATOM     17  C   UNL     1      47.958   4.661  16.852  0.00  0.00    +0.000 A 
ATOM     18  C   UNL     1      47.520   4.705  15.533  0.00  0.00    +0.000 A 
ATOM     19  N   UNL     1      47.881   5.693  14.670  0.00  0.00    +0.000 NA
ATOM     20  C   UNL     1      48.701   6.636  15.185  0.00  0.00    +0.000 A 
ATOM     21  C   UNL     1      49.139   6.590  16.506  0.00  0.00    +0.000 A 
ATOM     22  N   UNL     1      48.782   5.610  17.380  0.00  0.00    +0.000 NA
BRANCH  17  24
ATOM     23  N   UNL     1      48.186   3.399  18.924  0.00  0.00    +0.000 N 
ATOM     24  C   UNL     1      47.519   3.549  17.738  0.00  0.00    +0.000 C 
ATOM     25  O   UNL     1      46.591   2.806  17.432  0.00  0.00    +0.000 OA
ATOM     26  H   UNL     1      47.864   2.695  19.571  0.00  0.00    +0.000 HD
ATOM     27  H   UNL     1      48.864   4.090  19.222  0.00  0.00    +0.000 HD
ENDBRANCH  17  24
ENDBRANCH  16  20
ENDBRANCH  15  16
ENDBRANCH   1  15
TORSDOF 6
ENDMDL
MODEL 5
REMARK VINA RESULT:    -6.916      2.084      3.081
REMARK INTER + INTRA:         -10.140
REMARK INTER:                  -9.776
REMARK INTRA:                  -0.363
REMARK UNBOUND:                -0.798
REMARK  Name = 
REMARK  6 active torsions:
REMARK  status: ('A' for Active; 'I' for Inactive)
REMARK    1  A    between atoms: C_2  and  C_4
REMARK    2  A    between atoms: C_7  and  O_8
REMARK    3  A    between atoms: O_8  and  C_9
REMARK    4  A    between atoms: C_9  and  C_10
REMARK    5  A    between atoms: C_10  and  C_11
REMARK    6  A    between atoms: C_15  and  C_16
REMARK                            x       y       z     vdW  Elec       q    Type
REMARK                         _______ _______ _______ _____ _____    ______ ____
ROOT
ATOM      1  C   UNL     1      45.346   4.460  11.581  0.00  0.00    +0.000 C 
ENDROOT
BRANCH   1   2
ATOM      2  C   UNL     1      45.822   5.760  12.174  0.00  0.00    +0.000 A 
ATOM      3  C   UNL     1      45.052   6.919  12.058  0.00  0.00    +0.000 A 
ATOM      4  C   UNL     1      45.491   8.114  12.615  0.00  0.00    +0.000 A 
ATOM      5  C   UNL     1      46.702   8.158  13.304  0.00  0.00    +0.000 A 
ATOM      6  C   UNL     1      47.481   7.008  13.509  0.00  0.00    +0.000 A 
ATOM      7  C   UNL     1      47.031   5.820  12.890  0.00  0.00    +0.000 A 
BRANCH   6   8
ATOM      8  C   UNL     1      48.727   7.037  14.328  0.00  0.00    +0.000 A 
ATOM      9  C   UNL     1      49.816   7.827  13.888  0.00  0.00    +0.000 A 
ATOM     10  C   UNL     1      51.008   7.924  14.609  0.00  0.00    +0.000 A 
ATOM     11  C   UNL     1      51.140   7.250  15.812  0.00  0.00    +0.000 A 
ATOM     12  C   UNL     1      50.105   6.452  16.274  0.00  0.00    +0.000 A 
ATOM     13  C   UNL     1      48.919   6.320  15.532  0.00  0.00    +0.000 A 
ATOM     14 CL   UNL     1      47.792   5.171  16.186  0.00  0.00    +0.000 Cl
ENDBRANCH   6   8
ENDBRANCH   1   2
BRANCH   1  15
ATOM     15  C   UNL     1      43.863   4.449  11.204  0.00  0.00    +0.000 C 
BRANCH  15  16
ATOM     16  O   UNL     1      43.763   4.670   9.788  0.00  0.00    +0.000 OA
BRANCH  16  20
ATOM     17  C   UNL     1      46.472   2.486   7.682  0.00  0.00    +0.000 A 
ATOM     18  C   UNL     1      46.469   3.873   7.594  0.00  0.00    +0.000 A 
ATOM     19  N   UNL     1      45.587   4.653   8.276  0.00  0.00    +0.000 NA
ATOM     20  C   UNL     1      44.707   3.983   9.053  0.00  0.00    +0.000 A 
ATOM     21  C   UNL     1      44.711   2.592   9.141  0.00  0.00    +0.000 A 
ATOM     22  N   UNL     1      45.585   1.802   8.460  0.00  0.00    +0.000 NA
BRANCH  17  24
ATOM     23  N   UNL     1      48.468   2.400   6.288  0.00  0.00    +0.000 N 
ATOM     24  C   UNL     1      47.467   1.699   6.904  0.00  0.00    +0.000 C 
ATOM     25  O   UNL     1      47.406   0.476   6.827  0.00  0.00    +0.000 OA
ATOM     26  H   UNL     1      49.192   1.884   5.809  0.00  0.00    +0.000 HD
ATOM     27  H   UNL     1      48.581   3.392   6.459  0.00  0.00    +0.000 HD
ENDBRANCH  17  24
ENDBRANCH  16  20
ENDBRANCH  15  16
ENDBRANCH   1  15
TORSDOF 6
ENDMDL
MODEL 6
REMARK VINA RESULT:    -6.914      2.257      4.006
REMARK INTER + INTRA:         -10.137
REMARK INTER:                  -9.472
REMARK INTRA:                  -0.665
REMARK UNBOUND:                -0.798
REMARK  Name = 
REMARK  6 active torsions:
REMARK  status: ('A' for Active; 'I' for Inactive)
REMARK    1  A    between atoms: C_2  and  C_4
REMARK    2  A    between atoms: C_7  and  O_8
REMARK    3  A    between atoms: O_8  and  C_9
REMARK    4  A    between atoms: C_9  and  C_10
REMARK    5  A    between atoms: C_10  and  C_11
REMARK    6  A    between atoms: C_15  and  C_16
REMARK                            x       y       z     vdW  Elec       q    Type
REMARK                         _______ _______ _______ _____ _____    ______ ____
ROOT
ATOM      1  C   UNL     1      45.650   6.599  11.249  0.00  0.00    +0.000 C 
ENDROOT
BRANCH   1   2
ATOM      2  C   UNL     1      46.881   6.808  12.092  0.00  0.00    +0.000 A 
ATOM      3  C   UNL     1      47.934   7.599  11.627  0.00  0.00    +0.000 A 
ATOM      4  C   UNL     1      49.063   7.797  12.413  0.00  0.00    +0.000 A 
ATOM      5  C   UNL     1      49.145   7.213  13.676  0.00  0.00    +0.000 A 
ATOM      6  C   UNL     1      48.087   6.467  14.218  0.00  0.00    +0.000 A 
ATOM      7  C   UNL     1      46.974   6.244  13.376  0.00  0.00    +0.000 A 
BRANCH   6   8
ATOM      8  C   UNL     1      48.136   5.923  15.606  0.00  0.00    +0.000 A 
ATOM      9  C   UNL     1      48.596   6.759  16.651  0.00  0.00    +0.000 A 
ATOM     10  C   UNL     1      48.651   6.331  17.980  0.00  0.00    +0.000 A 
ATOM     11  C   UNL     1      48.222   5.056  18.309  0.00  0.00    +0.000 A 
ATOM     12  C   UNL     1      47.777   4.197  17.315  0.00  0.00    +0.000 A 
ATOM     13  C   UNL     1      47.758   4.610  15.972  0.00  0.00    +0.000 A 
ATOM     14 CL   UNL     1      47.311   3.362  14.849  0.00  0.00    +0.000 Cl
ENDBRANCH   6   8
ENDBRANCH   1   2
BRANCH   1  15
ATOM     15  C   UNL     1      45.082   5.179  11.312  0.00  0.00    +0.000 C 
BRANCH  15  16
ATOM     16  O   UNL     1      44.432   4.905  10.060  0.00  0.00    +0.000 OA
BRANCH  16  20
ATOM     17  C   UNL     1      46.583   2.459   7.624  0.00  0.00    +0.000 A 
ATOM     18  C   UNL     1      46.626   3.837   7.449  0.00  0.00    +0.000 A 
ATOM     19  N   UNL     1      45.929   4.702   8.234  0.00  0.00    +0.000 NA
ATOM     20  C   UNL     1      45.185   4.126   9.205  0.00  0.00    +0.000 A 
ATOM     21  C   UNL     1      45.143   2.745   9.380  0.00  0.00    +0.000 A 
ATOM     22  N   UNL     1      45.832   1.870   8.598  0.00  0.00    +0.000 NA
BRANCH  17  24
ATOM     23  N   UNL     1      48.438   2.140   6.078  0.00  0.00    +0.000 N 
ATOM     24  C   UNL     1      47.372   1.575   6.723  0.00  0.00    +0.000 C 
ATOM     25  O   UNL     1      47.093   0.389   6.574  0.00  0.00    +0.000 OA
ATOM     26  H   UNL     1      49.028   1.546   5.513  0.00  0.00    +0.000 HD
ATOM     27  H   UNL     1      48.734   3.083   6.303  0.00  0.00    +0.000 HD
ENDBRANCH  17  24
ENDBRANCH  16  20
ENDBRANCH  15  16
ENDBRANCH   1  15
TORSDOF 6
ENDMDL
MODEL 7
REMARK VINA RESULT:    -6.881      5.660      8.185
REMARK INTER + INTRA:         -10.093
REMARK INTER:                  -9.325
REMARK INTRA:                  -0.768
REMARK UNBOUND:                -0.798
REMARK  Name = 
REMARK  6 active torsions:
REMARK  status: ('A' for Active; 'I' for Inactive)
REMARK    1  A    between atoms: C_2  and  C_4
REMARK    2  A    between atoms: C_7  and  O_8
REMARK    3  A    between atoms: O_8  and  C_9
REMARK    4  A    between atoms: C_9  and  C_10
REMARK    5  A    between atoms: C_10  and  C_11
REMARK    6  A    between atoms: C_15  and  C_16
REMARK                            x       y       z     vdW  Elec       q    Type
REMARK                         _______ _______ _______ _____ _____    ______ ____
ROOT
ATOM      1  C   UNL     1      48.126   6.618  14.290  0.00  0.00    +0.000 C 
ENDROOT
BRANCH   1   2
ATOM      2  C   UNL     1      47.008   6.824  13.301  0.00  0.00    +0.000 A 
ATOM      3  C   UNL     1      46.380   8.065  13.187  0.00  0.00    +0.000 A 
ATOM      4  C   UNL     1      45.356   8.253  12.267  0.00  0.00    +0.000 A 
ATOM      5  C   UNL     1      44.958   7.201  11.443  0.00  0.00    +0.000 A 
ATOM      6  C   UNL     1      45.602   5.954  11.469  0.00  0.00    +0.000 A 
ATOM      7  C   UNL     1      46.606   5.781  12.448  0.00  0.00    +0.000 A 
BRANCH   6   8
ATOM      8  C   UNL     1      45.240   4.861  10.522  0.00  0.00    +0.000 A 
ATOM      9  C   UNL     1      45.624   4.976   9.165  0.00  0.00    +0.000 A 
ATOM     10  C   UNL     1      45.342   3.985   8.222  0.00  0.00    +0.000 A 
ATOM     11  C   UNL     1      44.684   2.831   8.613  0.00  0.00    +0.000 A 
ATOM     12  C   UNL     1      44.275   2.682   9.930  0.00  0.00    +0.000 A 
ATOM     13  C   UNL     1      44.522   3.693  10.873  0.00  0.00    +0.000 A 
ATOM     14 CL   UNL     1      43.814   3.402  12.434  0.00  0.00    +0.000 Cl
ENDBRANCH   6   8
ENDBRANCH   1   2
BRANCH   1  15
ATOM     15  C   UNL     1      47.847   5.534  15.334  0.00  0.00    +0.000 C 
BRANCH  15  16
ATOM     16  O   UNL     1      48.650   5.815  16.492  0.00  0.00    +0.000 OA
BRANCH  16  20
ATOM     17  C   UNL     1      51.167   2.840  17.657  0.00  0.00    +0.000 A 
ATOM     18  C   UNL     1      49.880   2.541  17.225  0.00  0.00    +0.000 A 
ATOM     19  N   UNL     1      48.997   3.495  16.823  0.00  0.00    +0.000 NA
ATOM     20  C   UNL     1      49.459   4.764  16.872  0.00  0.00    +0.000 A 
ATOM     21  C   UNL     1      50.749   5.063  17.304  0.00  0.00    +0.000 A 
ATOM     22  N   UNL     1      51.639   4.118  17.713  0.00  0.00    +0.000 NA
BRANCH  17  24
ATOM     23  N   UNL     1      51.619   0.462  17.931  0.00  0.00    +0.000 N 
ATOM     24  C   UNL     1      52.076   1.743  18.083  0.00  0.00    +0.000 C 
ATOM     25  O   UNL     1      53.194   1.969  18.538  0.00  0.00    +0.000 OA
ATOM     26  H   UNL     1      52.241  -0.301  18.151  0.00  0.00    +0.000 HD
ATOM     27  H   UNL     1      50.749   0.282  17.441  0.00  0.00    +0.000 HD
ENDBRANCH  17  24
ENDBRANCH  16  20
ENDBRANCH  15  16
ENDBRANCH   1  15
TORSDOF 6
ENDMDL
MODEL 8
REMARK VINA RESULT:    -6.871      3.882      7.240
REMARK INTER + INTRA:         -10.079
REMARK INTER:                  -9.630
REMARK INTRA:                  -0.449
REMARK UNBOUND:                -0.798
REMARK  Name = 
REMARK  6 active torsions:
REMARK  status: ('A' for Active; 'I' for Inactive)
REMARK    1  A    between atoms: C_2  and  C_4
REMARK    2  A    between atoms: C_7  and  O_8
REMARK    3  A    between atoms: O_8  and  C_9
REMARK    4  A    between atoms: C_9  and  C_10
REMARK    5  A    between atoms: C_10  and  C_11
REMARK    6  A    between atoms: C_15  and  C_16
REMARK                            x       y       z     vdW  Elec       q    Type
REMARK                         _______ _______ _______ _____ _____    ______ ____
ROOT
ATOM      1  C   UNL     1      44.345   6.717  11.092  0.00  0.00    +0.000 C 
ENDROOT
BRANCH   1   2
ATOM      2  C   UNL     1      44.244   5.231  10.864  0.00  0.00    +0.000 A 
ATOM      3  C   UNL     1      43.282   4.474  11.536  0.00  0.00    +0.000 A 
ATOM      4  C   UNL     1      43.186   3.105  11.315  0.00  0.00    +0.000 A 
ATOM      5  C   UNL     1      44.045   2.483  10.411  0.00  0.00    +0.000 A 
ATOM      6  C   UNL     1      44.983   3.208   9.659  0.00  0.00    +0.000 A 
ATOM      7  C   UNL     1      45.088   4.589   9.941  0.00  0.00    +0.000 A 
BRANCH   6   8
ATOM      8  C   UNL     1      45.835   2.557   8.623  0.00  0.00    +0.000 A 
ATOM      9  C   UNL     1      45.862   1.144   8.549  0.00  0.00    +0.000 A 
ATOM     10  C   UNL     1      46.617   0.461   7.594  0.00  0.00    +0.000 A 
ATOM     11  C   UNL     1      47.354   1.173   6.662  0.00  0.00    +0.000 A 
ATOM     12  C   UNL     1      47.370   2.559   6.706  0.00  0.00    +0.000 A 
ATOM     13  C   UNL     1      46.643   3.250   7.690  0.00  0.00    +0.000 A 
ATOM     14 CL   UNL     1      46.893   4.969   7.686  0.00  0.00    +0.000 Cl
ENDBRANCH   6   8
ENDBRANCH   1   2
BRANCH   1  15
ATOM     15  C   UNL     1      45.058   7.104  12.390  0.00  0.00    +0.000 C 
BRANCH  15  16
ATOM     16  O   UNL     1      46.416   6.642  12.306  0.00  0.00    +0.000 OA
BRANCH  16  20
ATOM     17  C   UNL     1      47.485   4.303  15.457  0.00  0.00    +0.000 A 
ATOM     18  C   UNL     1      48.029   5.574  15.311  0.00  0.00    +0.000 A 
ATOM     19  N   UNL     1      47.707   6.399  14.278  0.00  0.00    +0.000 NA
ATOM     20  C   UNL     1      46.814   5.896  13.396  0.00  0.00    +0.000 A 
ATOM     21  C   UNL     1      46.270   4.622  13.545  0.00  0.00    +0.000 A 
ATOM     22  N   UNL     1      46.587   3.787  14.570  0.00  0.00    +0.000 NA
BRANCH  17  24
ATOM     23  N   UNL     1      46.898   3.073  17.476  0.00  0.00    +0.000 N 
ATOM     24  C   UNL     1      47.888   3.457  16.613  0.00  0.00    +0.000 C 
ATOM     25  O   UNL     1      49.051   3.104  16.781  0.00  0.00    +0.000 OA
ATOM     26  H   UNL     1      47.134   2.445  18.231  0.00  0.00    +0.000 HD
ATOM     27  H   UNL     1      45.926   3.264  17.261  0.00  0.00    +0.000 HD
ENDBRANCH  17  24
ENDBRANCH  16  20
ENDBRANCH  15  16
ENDBRANCH   1  15
TORSDOF 6
ENDMDL
MODEL 9
REMARK VINA RESULT:    -6.506      4.972      7.618
REMARK INTER + INTRA:          -9.587
REMARK INTER:                  -8.528
REMARK INTRA:                  -1.059
REMARK UNBOUND:                -0.798
REMARK  Name = 
REMARK  6 active torsions:
REMARK  status: ('A' for Active; 'I' for Inactive)
REMARK    1  A    between atoms: C_2  and  C_4
REMARK    2  A    between atoms: C_7  and  O_8
REMARK    3  A    between atoms: O_8  and  C_9
REMARK    4  A    between atoms: C_9  and  C_10
REMARK    5  A    between atoms: C_10  and  C_11
REMARK    6  A    between atoms: C_15  and  C_16
REMARK                            x       y       z     vdW  Elec       q    Type
REMARK                         _______ _______ _______ _____ _____    ______ ____
ROOT
ATOM      1  C   UNL     1      49.511   7.970  15.548  0.00  0.00    +0.000 C 
ENDROOT
BRANCH   1   2
ATOM      2  C   UNL     1      49.431   6.986  16.686  0.00  0.00    +0.000 A 
ATOM      3  C   UNL     1      48.487   7.149  17.701  0.00  0.00    +0.000 A 
ATOM      4  C   UNL     1      48.411   6.234  18.744  0.00  0.00    +0.000 A 
ATOM      5  C   UNL     1      49.274   5.140  18.775  0.00  0.00    +0.000 A 
ATOM      6  C   UNL     1      50.195   4.892  17.744  0.00  0.00    +0.000 A 
ATOM      7  C   UNL     1      50.280   5.866  16.724  0.00  0.00    +0.000 A 
BRANCH   6   8
ATOM      8  C   UNL     1      51.051   3.671  17.730  0.00  0.00    +0.000 A 
ATOM      9  C   UNL     1      52.404   3.779  18.131  0.00  0.00    +0.000 A 
ATOM     10  C   UNL     1      53.263   2.679  18.166  0.00  0.00    +0.000 A 
ATOM     11  C   UNL     1      52.787   1.424  17.823  0.00  0.00    +0.000 A 
ATOM     12  C   UNL     1      51.472   1.273  17.409  0.00  0.00    +0.000 A 
ATOM     13  C   UNL     1      50.615   2.384  17.334  0.00  0.00    +0.000 A 
ATOM     14 CL   UNL     1      49.052   2.036  16.660  0.00  0.00    +0.000 Cl
ENDBRANCH   6   8
ENDBRANCH   1   2
BRANCH   1  15
ATOM     15  C   UNL     1      48.450   7.761  14.464  0.00  0.00    +0.000 C 
BRANCH  15  16
ATOM     16  O   UNL     1      48.844   6.631  13.668  0.00  0.00    +0.000 OA
BRANCH  16  20
ATOM     17  C   UNL     1      45.723   4.256  12.590  0.00  0.00    +0.000 A 
ATOM     18  C   UNL     1      46.549   3.892  13.648  0.00  0.00    +0.000 A 
ATOM     19  N   UNL     1      47.606   4.648  14.052  0.00  0.00    +0.000 NA
ATOM     20  C   UNL     1      47.800   5.787  13.350  0.00  0.00    +0.000 A 
ATOM     21  C   UNL     1      46.971   6.151  12.291  0.00  0.00    +0.000 A 
ATOM     22  N   UNL     1      45.915   5.402  11.875  0.00  0.00    +0.000 NA
BRANCH  17  24
ATOM     23  N   UNL     1      44.633   2.812  10.959  0.00  0.00    +0.000 N 
ATOM     24  C   UNL     1      44.587   3.376  12.205  0.00  0.00    +0.000 C 
ATOM     25  O   UNL     1      43.655   3.151  12.971  0.00  0.00    +0.000 OA
ATOM     26  H   UNL     1      43.908   2.160  10.699  0.00  0.00    +0.000 HD
ATOM     27  H   UNL     1      45.463   2.904  10.384  0.00  0.00    +0.000 HD
ENDBRANCH  17  24
ENDBRANCH  16  20
ENDBRANCH  15  16
ENDBRANCH   1  15
TORSDOF 6
ENDMDL
