MODEL 1
REMARK VINA RESULT:    -7.781      0.000      0.000
REMARK INTER + INTRA:         -10.171
REMARK INTER:                  -9.600
REMARK INTRA:                  -0.571
REMARK UNBOUND:                -0.571
REMARK  Name = 
REMARK  5 active torsions:
REMARK  status: ('A' for Active; 'I' for Inactive)
REMARK    1  A    between atoms: C_1  and  C_2
REMARK    2  A    between atoms: C_5  and  N_6
REMARK    3  A    between atoms: N_6  and  C_7
REMARK    4  A    between atoms: C_7  and  C_8
REMARK    5  A    between atoms: C_13  and  N_14
REMARK                            x       y       z     vdW  Elec       q    Type
REMARK                         _______ _______ _______ _____ _____    ______ ____
ROOT
ATOM      1  C   UNL     1      44.663   4.700  11.796  0.00  0.00    +0.000 A 
ATOM      2  C   UNL     1      45.419   3.765  12.507  0.00  0.00    +0.000 A 
ATOM      3  C   UNL     1      46.403   4.205  13.381  0.00  0.00    +0.000 A 
ATOM      4  F   UNL     1      47.149   3.306  14.038  0.00  0.00    +0.000 F 
ATOM      5  C   UNL     1      46.657   5.563  13.566  0.00  0.00    +0.000 A 
ATOM      6  C   UNL     1      45.921   6.537  12.881  0.00  0.00    +0.000 A 
ATOM      7  C   UNL     1      44.912   6.073  12.013  0.00  0.00    +0.000 A 
ENDROOT
BRANCH   6   8
ATOM      8  N   UNL     1      46.227   7.879  13.003  0.00  0.00    +0.000 N 
ATOM      9  C   UNL     1      45.265   8.936  12.658  0.00  0.00    +0.000 C 
ATOM     10  C   UNL     1      45.992  10.090  11.925  0.00  0.00    +0.000 C 
ATOM     11  N   UNL     1      47.167  10.625  12.649  0.00  0.00    +0.000 NA
ATOM     12  C   UNL     1      48.087   9.505  12.949  0.00  0.00    +0.000 C 
ATOM     13  C   UNL     1      47.418   8.350  13.730  0.00  0.00    +0.000 C 
ATOM     14  H   UNL     1      46.842  11.009  13.536  0.00  0.00    +0.000 HD
ENDBRANCH   6   8
BRANCH   1  15
ATOM     15  C   UNL     1      43.601   4.258  10.810  0.00  0.00    +0.000 C 
BRANCH  15  16
ATOM     16  N   UNL     1      43.962   4.717   9.478  0.00  0.00    +0.000 N 
ATOM     17  H   UNL     1      43.146   4.825   8.881  0.00  0.00    +0.000 HD
BRANCH  16  22
ATOM     18  C   UNL     1      47.617   1.376   6.805  0.00  0.00    +0.000 C 
ATOM     19  C   UNL     1      46.682   2.285   7.536  0.00  0.00    +0.000 A 
ATOM     20  C   UNL     1      46.657   3.657   7.314  0.00  0.00    +0.000 A 
ATOM     21  N   UNL     1      45.795   4.506   7.935  0.00  0.00    +0.000 NA
ATOM     22  C   UNL     1      44.934   3.950   8.816  0.00  0.00    +0.000 A 
ATOM     23  C   UNL     1      44.971   2.566   9.031  0.00  0.00    +0.000 A 
ATOM     24  N   UNL     1      45.830   1.716   8.417  0.00  0.00    +0.000 NA
ENDBRANCH  16  22
ENDBRANCH  15  16
ENDBRANCH   1  15
TORSDOF 4
ENDMDL
MODEL 2
REMARK VINA RESULT:    -7.687      2.226      3.299
REMARK INTER + INTRA:         -10.056
REMARK INTER:                  -9.432
REMARK INTRA:                  -0.623
REMARK UNBOUND:                -0.571
REMARK  Name = 
REMARK  5 active torsions:
REMARK  status: ('A' for Active; 'I' for Inactive)
REMARK    1  A    between atoms: C_1  and  C_2
REMARK    2  A    between atoms: C_5  and  N_6
REMARK    3  A    between atoms: N_6  and  C_7
REMARK    4  A    between atoms: C_7  and  C_8
REMARK    5  A    between atoms: C_13  and  N_14
REMARK                            x       y       z     vdW  Elec       q    Type
REMARK                         _______ _______ _______ _____ _____    ______ ____
ROOT
ATOM      1  C   UNL     1      44.458   5.507  11.486  0.00  0.00    +0.000 A 
ATOM      2  C   UNL     1      44.260   6.872  11.269  0.00  0.00    +0.000 A 
ATOM      3  C   UNL     1      45.053   7.791  11.941  0.00  0.00    +0.000 A 
ATOM      4  F   UNL     1      44.840   9.102  11.756  0.00  0.00    +0.000 F 
ATOM      5  C   UNL     1      46.045   7.383  12.830  0.00  0.00    +0.000 A 
ATOM      6  C   UNL     1      46.284   6.026  13.076  0.00  0.00    +0.000 A 
ATOM      7  C   UNL     1      45.484   5.106  12.369  0.00  0.00    +0.000 A 
ENDROOT
BRANCH   6   8
ATOM      8  N   UNL     1      47.212   5.623  14.017  0.00  0.00    +0.000 N 
ATOM      9  C   UNL     1      47.161   4.297  14.649  0.00  0.00    +0.000 C 
ATOM     10  C   UNL     1      47.498   4.419  16.156  0.00  0.00    +0.000 C 
ATOM     11  N   UNL     1      48.770   5.121  16.439  0.00  0.00    +0.000 NA
ATOM     12  C   UNL     1      48.737   6.445  15.779  0.00  0.00    +0.000 C 
ATOM     13  C   UNL     1      48.458   6.369  14.260  0.00  0.00    +0.000 C 
ATOM     14  H   UNL     1      49.526   4.581  16.020  0.00  0.00    +0.000 HD
ENDBRANCH   6   8
BRANCH   1  15
ATOM     15  C   UNL     1      43.592   4.473  10.795  0.00  0.00    +0.000 C 
BRANCH  15  16
ATOM     16  N   UNL     1      43.732   4.614   9.354  0.00  0.00    +0.000 N 
ATOM     17  H   UNL     1      42.855   4.444   8.870  0.00  0.00    +0.000 HD
BRANCH  16  22
ATOM     18  C   UNL     1      47.595   1.267   7.000  0.00  0.00    +0.000 C 
ATOM     19  C   UNL     1      46.604   2.181   7.646  0.00  0.00    +0.000 A 
ATOM     20  C   UNL     1      46.519   3.530   7.322  0.00  0.00    +0.000 A 
ATOM     21  N   UNL     1      45.605   4.379   7.864  0.00  0.00    +0.000 NA
ATOM     22  C   UNL     1      44.753   3.848   8.768  0.00  0.00    +0.000 A 
ATOM     23  C   UNL     1      44.850   2.488   9.085  0.00  0.00    +0.000 A 
ATOM     24  N   UNL     1      45.761   1.637   8.551  0.00  0.00    +0.000 NA
ENDBRANCH  16  22
ENDBRANCH  15  16
ENDBRANCH   1  15
TORSDOF 4
ENDMDL
MODEL 3
REMARK VINA RESULT:    -6.934      3.258      7.373
REMARK INTER + INTRA:          -9.126
REMARK INTER:                  -8.721
REMARK INTRA:                  -0.405
REMARK UNBOUND:                -0.571
REMARK  Name = 
REMARK  5 active torsions:
REMARK  status: ('A' for Active; 'I' for Inactive)
REMARK    1  A    between atoms: C_1  and  C_2
REMARK    2  A    between atoms: C_5  and  N_6
REMARK    3  A    between atoms: N_6  and  C_7
REMARK    4  A    between atoms: C_7  and  C_8
REMARK    5  A    between atoms: C_13  and  N_14
REMARK                            x       y       z     vdW  Elec       q    Type
REMARK                         _______ _______ _______ _____ _____    ______ ____
ROOT
ATOM      1  C   UNL     1      45.275   5.156  12.694  0.00  0.00    +0.000 A 
ATOM      2  C   UNL     1      43.980   5.663  12.821  0.00  0.00    +0.000 A 
ATOM      3  C   UNL     1      43.059   5.444  11.806  0.00  0.00    +0.000 A 
ATOM      4  F   UNL     1      41.826   5.959  11.914  0.00  0.00    +0.000 F 
ATOM      5  C   UNL     1      43.397   4.728  10.659  0.00  0.00    +0.000 A 
ATOM      6  C   UNL     1      44.681   4.195  10.490  0.00  0.00    +0.000 A 
ATOM      7  C   UNL     1      45.597   4.410  11.540  0.00  0.00    +0.000 A 
ENDROOT
BRANCH   6   8
ATOM      8  N   UNL     1      45.040   3.556   9.319  0.00  0.00    +0.000 N 
ATOM      9  C   UNL     1      44.799   2.122   9.105  0.00  0.00    +0.000 C 
ATOM     10  C   UNL     1      46.017   1.486   8.388  0.00  0.00    +0.000 C 
ATOM     11  N   UNL     1      46.416   2.174   7.141  0.00  0.00    +0.000 NA
ATOM     12  C   UNL     1      46.649   3.604   7.444  0.00  0.00    +0.000 C 
ATOM     13  C   UNL     1      45.438   4.298   8.111  0.00  0.00    +0.000 C 
ATOM     14  H   UNL     1      45.637   2.116   6.486  0.00  0.00    +0.000 HD
ENDBRANCH   6   8
BRANCH   1  15
ATOM     15  C   UNL     1      46.317   5.401  13.766  0.00  0.00    +0.000 C 
BRANCH  15  16
ATOM     16  N   UNL     1      46.169   4.405  14.816  0.00  0.00    +0.000 N 
ATOM     17  H   UNL     1      45.324   4.552  15.362  0.00  0.00    +0.000 HD
BRANCH  16  22
ATOM     18  C   UNL     1      50.546   4.193  18.346  0.00  0.00    +0.000 C 
ATOM     19  C   UNL     1      49.403   4.215  17.383  0.00  0.00    +0.000 A 
ATOM     20  C   UNL     1      48.529   3.142  17.247  0.00  0.00    +0.000 A 
ATOM     21  N   UNL     1      47.459   3.144  16.407  0.00  0.00    +0.000 NA
ATOM     22  C   UNL     1      47.270   4.265  15.677  0.00  0.00    +0.000 A 
ATOM     23  C   UNL     1      48.159   5.337  15.824  0.00  0.00    +0.000 A 
ATOM     24  N   UNL     1      49.229   5.340  16.657  0.00  0.00    +0.000 NA
ENDBRANCH  16  22
ENDBRANCH  15  16
ENDBRANCH   1  15
TORSDOF 4
ENDMDL
MODEL 4
REMARK VINA RESULT:    -6.915      2.367      3.096
REMARK INTER + INTRA:          -9.103
REMARK INTER:                  -8.552
REMARK INTRA:                  -0.551
REMARK UNBOUND:                -0.571
REMARK  Name = 
REMARK  5 active torsions:
REMARK  status: ('A' for Active; 'I' for Inactive)
REMARK    1  A    between atoms: C_1  and  C_2
REMARK    2  A    between atoms: C_5  and  N_6
REMARK    3  A    between atoms: N_6  and  C_7
REMARK    4  A    between atoms: C_7  and  C_8
REMARK    5  A    between atoms: C_13  and  N_14
REMARK                            x       y       z     vdW  Elec       q    Type
REMARK                         _______ _______ _______ _____ _____    ______ ____
ROOT
ATOM      1  C   UNL     1      45.017   6.287  11.494  0.00  0.00    +0.000 A 
ATOM      2  C   UNL     1      44.377   7.528  11.480  0.00  0.00    +0.000 A 
ATOM      3  C   UNL     1      45.090   8.668  11.827  0.00  0.00    +0.000 A 
ATOM      4  F   UNL     1      44.466   9.854  11.844  0.00  0.00    +0.000 F 
ATOM      5  C   UNL     1      46.434   8.602  12.189  0.00  0.00    +0.000 A 
ATOM      6  C   UNL     1      47.119   7.381  12.212  0.00  0.00    +0.000 A 
ATOM      7  C   UNL     1      46.385   6.238  11.837  0.00  0.00    +0.000 A 
ENDROOT
BRANCH   6   8
ATOM      8  N   UNL     1      48.428   7.305  12.649  0.00  0.00    +0.000 N 
ATOM      9  C   UNL     1      48.784   6.744  13.960  0.00  0.00    +0.000 C 
ATOM     10  C   UNL     1      49.902   7.596  14.611  0.00  0.00    +0.000 C 
ATOM     11  N   UNL     1      51.090   7.798  13.753  0.00  0.00    +0.000 NA
ATOM     12  C   UNL     1      50.649   8.372  12.462  0.00  0.00    +0.000 C 
ATOM     13  C   UNL     1      49.571   7.525  11.747  0.00  0.00    +0.000 C 
ATOM     14  H   UNL     1      51.500   6.884  13.565  0.00  0.00    +0.000 HD
ENDBRANCH   6   8
BRANCH   1  15
ATOM     15  C   UNL     1      44.264   5.018  11.152  0.00  0.00    +0.000 C 
BRANCH  15  16
ATOM     16  N   UNL     1      44.085   4.939   9.710  0.00  0.00    +0.000 N 
ATOM     17  H   UNL     1      43.121   4.736   9.460  0.00  0.00    +0.000 HD
BRANCH  16  22
ATOM     18  C   UNL     1      47.275   1.131   7.066  0.00  0.00    +0.000 C 
ATOM     19  C   UNL     1      46.467   2.164   7.783  0.00  0.00    +0.000 A 
ATOM     20  C   UNL     1      46.478   3.504   7.411  0.00  0.00    +0.000 A 
ATOM     21  N   UNL     1      45.726   4.461   8.019  0.00  0.00    +0.000 NA
ATOM     22  C   UNL     1      44.944   4.052   9.042  0.00  0.00    +0.000 A 
ATOM     23  C   UNL     1      44.944   2.700   9.406  0.00  0.00    +0.000 A 
ATOM     24  N   UNL     1      45.693   1.741   8.806  0.00  0.00    +0.000 NA
ENDBRANCH  16  22
ENDBRANCH  15  16
ENDBRANCH   1  15
TORSDOF 4
ENDMDL
MODEL 5
REMARK VINA RESULT:    -6.844      1.281      1.936
REMARK INTER + INTRA:          -9.016
REMARK INTER:                  -8.473
REMARK INTRA:                  -0.543
REMARK UNBOUND:                -0.571
REMARK  Name = 
REMARK  5 active torsions:
REMARK  status: ('A' for Active; 'I' for Inactive)
REMARK    1  A    between atoms: C_1  and  C_2
REMARK    2  A    between atoms: C_5  and  N_6
REMARK    3  A    between atoms: N_6  and  C_7
REMARK    4  A    between atoms: C_7  and  C_8
REMARK    5  A    between atoms: C_13  and  N_14
REMARK                            x       y       z     vdW  Elec       q    Type
REMARK                         _______ _______ _______ _____ _____    ______ ____
ROOT
ATOM      1  C   UNL     1      45.327   4.949  11.578  0.00  0.00    +0.000 A 
ATOM      2  C   UNL     1      45.641   4.135  12.668  0.00  0.00    +0.000 A 
ATOM      3  C   UNL     1      46.612   4.548  13.570  0.00  0.00    +0.000 A 
ATOM      4  F   UNL     1      46.935   3.751  14.598  0.00  0.00    +0.000 F 
ATOM      5  C   UNL     1      47.283   5.759  13.413  0.00  0.00    +0.000 A 
ATOM      6  C   UNL     1      46.998   6.611  12.338  0.00  0.00    +0.000 A 
ATOM      7  C   UNL     1      45.995   6.186  11.444  0.00  0.00    +0.000 A 
ENDROOT
BRANCH   6   8
ATOM      8  N   UNL     1      47.720   7.772  12.137  0.00  0.00    +0.000 N 
ATOM      9  C   UNL     1      49.050   7.768  11.513  0.00  0.00    +0.000 C 
ATOM     10  C   UNL     1      49.978   8.768  12.248  0.00  0.00    +0.000 C 
ATOM     11  N   UNL     1      49.425  10.136  12.367  0.00  0.00    +0.000 NA
ATOM     12  C   UNL     1      48.095  10.053  13.011  0.00  0.00    +0.000 C 
ATOM     13  C   UNL     1      47.114   9.106  12.279  0.00  0.00    +0.000 C 
ATOM     14  H   UNL     1      49.294  10.505  11.425  0.00  0.00    +0.000 HD
ENDBRANCH   6   8
BRANCH   1  15
ATOM     15  C   UNL     1      44.295   4.519  10.555  0.00  0.00    +0.000 C 
BRANCH  15  16
ATOM     16  N   UNL     1      44.487   3.111  10.241  0.00  0.00    +0.000 N 
ATOM     17  H   UNL     1      44.881   2.599  11.026  0.00  0.00    +0.000 HD
BRANCH  16  22
ATOM     18  C   UNL     1      47.607   2.382   5.615  0.00  0.00    +0.000 C 
ATOM     19  C   UNL     1      46.748   2.545   6.827  0.00  0.00    +0.000 A 
ATOM     20  C   UNL     1      46.530   1.507   7.726  0.00  0.00    +0.000 A 
ATOM     21  N   UNL     1      45.784   1.633   8.857  0.00  0.00    +0.000 NA
ATOM     22  C   UNL     1      45.233   2.846   9.081  0.00  0.00    +0.000 A 
ATOM     23  C   UNL     1      45.460   3.882   8.167  0.00  0.00    +0.000 A 
ATOM     24  N   UNL     1      46.200   3.762   7.037  0.00  0.00    +0.000 NA
ENDBRANCH  16  22
ENDBRANCH  15  16
ENDBRANCH   1  15
TORSDOF 4
ENDMDL
MODEL 6
REMARK VINA RESULT:    -6.778      4.090      7.288
REMARK INTER + INTRA:          -8.934
REMARK INTER:                  -8.353
REMARK INTRA:                  -0.581
REMARK UNBOUND:                -0.571
REMARK  Name = 
REMARK  5 active torsions:
REMARK  status: ('A' for Active; 'I' for Inactive)
REMARK    1  A    between atoms: C_1  and  C_2
REMARK    2  A    between atoms: C_5  and  N_6
REMARK    3  A    between atoms: N_6  and  C_7
REMARK    4  A    between atoms: C_7  and  C_8
REMARK    5  A    between atoms: C_13  and  N_14
REMARK                            x       y       z     vdW  Elec       q    Type
REMARK                         _______ _______ _______ _____ _____    ______ ____
ROOT
ATOM      1  C   UNL     1      48.008   6.450  14.342  0.00  0.00    +0.000 A 
ATOM      2  C   UNL     1      48.587   7.160  13.289  0.00  0.00    +0.000 A 
ATOM      3  C   UNL     1      48.009   7.103  12.028  0.00  0.00    +0.000 A 
ATOM      4  F   UNL     1      48.584   7.759  11.011  0.00  0.00    +0.000 F 
ATOM      5  C   UNL     1      46.860   6.351  11.789  0.00  0.00    +0.000 A 
ATOM      6  C   UNL     1      46.241   5.628  12.815  0.00  0.00    +0.000 A 
ATOM      7  C   UNL     1      46.830   5.714  14.093  0.00  0.00    +0.000 A 
ENDROOT
BRANCH   6   8
ATOM      8  N   UNL     1      45.150   4.818  12.560  0.00  0.00    +0.000 N 
ATOM      9  C   UNL     1      45.295   3.402  12.194  0.00  0.00    +0.000 C 
ATOM     10  C   UNL     1      44.281   3.041  11.080  0.00  0.00    +0.000 C 
ATOM     11  N   UNL     1      42.879   3.391  11.398  0.00  0.00    +0.000 NA
ATOM     12  C   UNL     1      42.818   4.829  11.744  0.00  0.00    +0.000 C 
ATOM     13  C   UNL     1      43.775   5.227  12.892  0.00  0.00    +0.000 C 
ATOM     14  H   UNL     1      42.601   2.858  12.222  0.00  0.00    +0.000 HD
ENDBRANCH   6   8
BRANCH   1  15
ATOM     15  C   UNL     1      48.627   6.462  15.725  0.00  0.00    +0.000 C 
BRANCH  15  16
ATOM     16  N   UNL     1      48.070   5.372  16.511  0.00  0.00    +0.000 N 
ATOM     17  H   UNL     1      47.617   5.708  17.357  0.00  0.00    +0.000 HD
BRANCH  16  22
ATOM     18  C   UNL     1      51.552   1.063  17.498  0.00  0.00    +0.000 C 
ATOM     19  C   UNL     1      50.624   2.215  17.282  0.00  0.00    +0.000 A 
ATOM     20  C   UNL     1      50.974   3.520  17.611  0.00  0.00    +0.000 A 
ATOM     21  N   UNL     1      50.167   4.593  17.394  0.00  0.00    +0.000 NA
ATOM     22  C   UNL     1      48.965   4.338  16.832  0.00  0.00    +0.000 A 
ATOM     23  C   UNL     1      48.627   3.019  16.506  0.00  0.00    +0.000 A 
ATOM     24  N   UNL     1      49.425   1.945  16.723  0.00  0.00    +0.000 NA
ENDBRANCH  16  22
ENDBRANCH  15  16
ENDBRANCH   1  15
TORSDOF 4
ENDMDL
MODEL 7
REMARK VINA RESULT:    -6.767      1.742      2.448
REMARK INTER + INTRA:          -8.921
REMARK INTER:                  -8.369
REMARK INTRA:                  -0.552
REMARK UNBOUND:                -0.571
REMARK  Name = 
REMARK  5 active torsions:
REMARK  status: ('A' for Active; 'I' for Inactive)
REMARK    1  A    between atoms: C_1  and  C_2
REMARK    2  A    between atoms: C_5  and  N_6
REMARK    3  A    between atoms: N_6  and  C_7
REMARK    4  A    between atoms: C_7  and  C_8
REMARK    5  A    between atoms: C_13  and  N_14
REMARK                            x       y       z     vdW  Elec       q    Type
REMARK                         _______ _______ _______ _____ _____    ______ ____
ROOT
ATOM      1  C   UNL     1      45.055   5.848  11.715  0.00  0.00    +0.000 A 
ATOM      2  C   UNL     1      46.189   5.724  12.520  0.00  0.00    +0.000 A 
ATOM      3  C   UNL     1      46.845   6.867  12.956  0.00  0.00    +0.000 A 
ATOM      4  F   UNL     1      47.952   6.746  13.702  0.00  0.00    +0.000 F 
ATOM      5  C   UNL     1      46.397   8.140  12.608  0.00  0.00    +0.000 A 
ATOM      6  C   UNL     1      45.261   8.314  11.807  0.00  0.00    +0.000 A 
ATOM      7  C   UNL     1      44.596   7.143  11.391  0.00  0.00    +0.000 A 
ENDROOT
BRANCH   6   8
ATOM      8  N   UNL     1      44.865   9.572  11.395  0.00  0.00    +0.000 N 
ATOM      9  C   UNL     1      45.805  10.697  11.300  0.00  0.00    +0.000 C 
ATOM     10  C   UNL     1      45.130  11.992  11.817  0.00  0.00    +0.000 C 
ATOM     11  N   UNL     1      43.832  12.298  11.176  0.00  0.00    +0.000 NA
ATOM     12  C   UNL     1      42.943  11.124  11.324  0.00  0.00    +0.000 C 
ATOM     13  C   UNL     1      43.554   9.815  10.770  0.00  0.00    +0.000 C 
ATOM     14  H   UNL     1      43.999  12.441  10.181  0.00  0.00    +0.000 HD
ENDBRANCH   6   8
BRANCH   1  15
ATOM     15  C   UNL     1      44.331   4.624  11.194  0.00  0.00    +0.000 C 
BRANCH  15  16
ATOM     16  N   UNL     1      44.197   4.723   9.748  0.00  0.00    +0.000 N 
ATOM     17  H   UNL     1      43.238   4.570   9.446  0.00  0.00    +0.000 HD
BRANCH  16  22
ATOM     18  C   UNL     1      47.432   1.194   6.792  0.00  0.00    +0.000 C 
ATOM     19  C   UNL     1      46.612   2.153   7.592  0.00  0.00    +0.000 A 
ATOM     20  C   UNL     1      46.553   3.509   7.289  0.00  0.00    +0.000 A 
ATOM     21  N   UNL     1      45.788   4.402   7.974  0.00  0.00    +0.000 NA
ATOM     22  C   UNL     1      45.064   3.908   9.003  0.00  0.00    +0.000 A 
ATOM     23  C   UNL     1      45.134   2.541   9.296  0.00  0.00    +0.000 A 
ATOM     24  N   UNL     1      45.896   1.647   8.620  0.00  0.00    +0.000 NA
ENDBRANCH  16  22
ENDBRANCH  15  16
ENDBRANCH   1  15
TORSDOF 4
ENDMDL
MODEL 8
REMARK VINA RESULT:    -6.754      2.976      4.281
REMARK INTER + INTRA:          -8.904
REMARK INTER:                  -8.464
REMARK INTRA:                  -0.440
REMARK UNBOUND:                -0.571
REMARK  Name = 
REMARK  5 active torsions:
REMARK  status: ('A' for Active; 'I' for Inactive)
REMARK    1  A    between atoms: C_1  and  C_2
REMARK    2  A    between atoms: C_5  and  N_6
REMARK    3  A    between atoms: N_6  and  C_7
REMARK    4  A    between atoms: C_7  and  C_8
REMARK    5  A    between atoms: C_13  and  N_14
REMARK                            x       y       z     vdW  Elec       q    Type
REMARK                         _______ _______ _______ _____ _____    ______ ____
ROOT
ATOM      1  C   UNL     1      45.918   4.767  12.813  0.00  0.00    +0.000 A 
ATOM      2  C   UNL     1      46.406   5.914  12.183  0.00  0.00    +0.000 A 
ATOM      3  C   UNL     1      47.373   6.682  12.818  0.00  0.00    +0.000 A 
ATOM      4  F   UNL     1      47.817   7.800  12.225  0.00  0.00    +0.000 F 
ATOM      5  C   UNL     1      47.869   6.335  14.073  0.00  0.00    +0.000 A 
ATOM      6  C   UNL     1      47.413   5.192  14.741  0.00  0.00    +0.000 A 
ATOM      7  C   UNL     1      46.448   4.412  14.073  0.00  0.00    +0.000 A 
ENDROOT
BRANCH   6   8
ATOM      8  N   UNL     1      47.844   4.893  16.019  0.00  0.00    +0.000 N 
ATOM      9  C   UNL     1      48.869   5.691  16.706  0.00  0.00    +0.000 C 
ATOM     10  C   UNL     1      49.833   4.757  17.479  0.00  0.00    +0.000 C 
ATOM     11  N   UNL     1      49.158   3.812  18.397  0.00  0.00    +0.000 NA
ATOM     12  C   UNL     1      48.154   3.043  17.628  0.00  0.00    +0.000 C 
ATOM     13  C   UNL     1      47.134   3.935  16.883  0.00  0.00    +0.000 C 
ATOM     14  H   UNL     1      48.663   4.357  19.101  0.00  0.00    +0.000 HD
ENDBRANCH   6   8
BRANCH   1  15
ATOM     15  C   UNL     1      44.841   3.920  12.166  0.00  0.00    +0.000 C 
BRANCH  15  16
ATOM     16  N   UNL     1      44.460   4.516  10.895  0.00  0.00    +0.000 N 
ATOM     17  H   UNL     1      43.450   4.580  10.795  0.00  0.00    +0.000 HD
BRANCH  16  22
ATOM     18  C   UNL     1      46.915   2.353   6.317  0.00  0.00    +0.000 C 
ATOM     19  C   UNL     1      46.222   2.910   7.519  0.00  0.00    +0.000 A 
ATOM     20  C   UNL     1      45.668   2.093   8.499  0.00  0.00    +0.000 A 
ATOM     21  N   UNL     1      45.063   2.568   9.621  0.00  0.00    +0.000 NA
ATOM     22  C   UNL     1      45.011   3.911   9.754  0.00  0.00    +0.000 A 
ATOM     23  C   UNL     1      45.573   4.721   8.759  0.00  0.00    +0.000 A 
ATOM     24  N   UNL     1      46.174   4.254   7.636  0.00  0.00    +0.000 NA
ENDBRANCH  16  22
ENDBRANCH  15  16
ENDBRANCH   1  15
TORSDOF 4
ENDMDL
MODEL 9
REMARK VINA RESULT:    -6.252      3.666      7.541
REMARK INTER + INTRA:          -8.285
REMARK INTER:                  -7.752
REMARK INTRA:                  -0.533
REMARK UNBOUND:                -0.571
REMARK  Name = 
REMARK  5 active torsions:
REMARK  status: ('A' for Active; 'I' for Inactive)
REMARK    1  A    between atoms: C_1  and  C_2
REMARK    2  A    between atoms: C_5  and  N_6
REMARK    3  A    between atoms: N_6  and  C_7
REMARK    4  A    between atoms: C_7  and  C_8
REMARK    5  A    between atoms: C_13  and  N_14
REMARK                            x       y       z     vdW  Elec       q    Type
REMARK                         _______ _______ _______ _____ _____    ______ ____
ROOT
ATOM      1  C   UNL     1      45.317   8.773  11.827  0.00  0.00    +0.000 A 
ATOM      2  C   UNL     1      46.660   8.669  12.195  0.00  0.00    +0.000 A 
ATOM      3  C   UNL     1      47.262   7.419  12.234  0.00  0.00    +0.000 A 
ATOM      4  F   UNL     1      48.543   7.318  12.618  0.00  0.00    +0.000 F 
ATOM      5  C   UNL     1      46.555   6.261  11.915  0.00  0.00    +0.000 A 
ATOM      6  C   UNL     1      45.209   6.316  11.535  0.00  0.00    +0.000 A 
ATOM      7  C   UNL     1      44.620   7.596  11.480  0.00  0.00    +0.000 A 
ENDROOT
BRANCH   6   8
ATOM      8  N   UNL     1      44.486   5.163  11.298  0.00  0.00    +0.000 N 
ATOM      9  C   UNL     1      43.458   4.678  12.229  0.00  0.00    +0.000 C 
ATOM     10  C   UNL     1      43.549   3.136  12.356  0.00  0.00    +0.000 C 
ATOM     11  N   UNL     1      43.511   2.417  11.063  0.00  0.00    +0.000 NA
ATOM     12  C   UNL     1      44.579   2.955  10.191  0.00  0.00    +0.000 C 
ATOM     13  C   UNL     1      44.496   4.486   9.990  0.00  0.00    +0.000 C 
ATOM     14  H   UNL     1      42.614   2.615  10.620  0.00  0.00    +0.000 HD
ENDBRANCH   6   8
BRANCH   1  15
ATOM     15  C   UNL     1      44.617  10.116  11.802  0.00  0.00    +0.000 C 
BRANCH  15  16
ATOM     16  N   UNL     1      43.532  10.075  10.833  0.00  0.00    +0.000 N 
ATOM     17  H   UNL     1      43.780  10.546   9.967  0.00  0.00    +0.000 HD
BRANCH  16  22
ATOM     18  C   UNL     1      38.445  11.637  12.661  0.00  0.00    +0.000 C 
ATOM     19  C   UNL     1      39.802  11.264  12.156  0.00  0.00    +0.000 A 
ATOM     20  C   UNL     1      40.959  11.887  12.612  0.00  0.00    +0.000 A 
ATOM     21  N   UNL     1      42.209  11.546  12.199  0.00  0.00    +0.000 NA
ATOM     22  C   UNL     1      42.293  10.549  11.292  0.00  0.00    +0.000 A 
ATOM     23  C   UNL     1      41.119   9.932  10.842  0.00  0.00    +0.000 A 
ATOM     24  N   UNL     1      39.869  10.268  11.246  0.00  0.00    +0.000 NA
ENDBRANCH  16  22
ENDBRANCH  15  16
ENDBRANCH   1  15
TORSDOF 4
ENDMDL
