MODEL 1
REMARK VINA RESULT:    -8.215      0.000      0.000
REMARK INTER + INTRA:         -12.835
REMARK INTER:                 -11.817
REMARK INTRA:                  -1.018
REMARK UNBOUND:                -1.018
REMARK  Name = 
REMARK  8 active torsions:
REMARK  status: ('A' for Active; 'I' for Inactive)
REMARK    1  A    between atoms: N_1  and  C_2
REMARK    2  A    between atoms: C_2  and  C_3
REMARK    3  A    between atoms: C_2  and  C_18
REMARK    4  A    between atoms: C_3  and  C_4
REMARK    5  A    between atoms: C_7  and  C_8
REMARK    6  A    between atoms: C_8  and  N_9
REMARK    7  A    between atoms: N_9  and  C_10
REMARK    8  A    between atoms: N_20  and  C_21
REMARK                            x       y       z     vdW  Elec       q    Type
REMARK                         _______ _______ _______ _____ _____    ______ ____
ROOT
ATOM      1  C   UNL     1      44.517   3.166  11.591  0.00  0.00    +0.000 C 
ENDROOT
BRANCH   1   2
ATOM      2  C   UNL     1      44.599   4.564  12.238  0.00  0.00    +0.000 C 
ATOM      3  O   UNL     1      43.958   4.829  13.254  0.00  0.00    +0.000 OA
ATOM      4  N   UNL     1      45.395   5.467  11.553  0.00  0.00    +0.000 N 
ATOM      5  H   UNL     1      45.761   5.177  10.645  0.00  0.00    +0.000 HD
BRANCH   4   6
ATOM      6  C   UNL     1      45.721   6.740  12.023  0.00  0.00    +0.000 A 
ATOM      7  C   UNL     1      45.097   7.911  11.639  0.00  0.00    +0.000 A 
ATOM      8  S   UNL     1      45.711   9.297  12.425  0.00  0.00    +0.000 S 
ATOM      9  C   UNL     1      46.828   8.362  13.304  0.00  0.00    +0.000 A 
ATOM     10  N   UNL     1      47.689   8.941  14.183  0.00  0.00    +0.000 NA
ATOM     11  C   UNL     1      48.488   8.107  14.762  0.00  0.00    +0.000 A 
ATOM     12  N   UNL     1      48.504   6.751  14.545  0.00  0.00    +0.000 N 
ATOM     13  C   UNL     1      47.652   6.121  13.662  0.00  0.00    +0.000 A 
ATOM     14  O   UNL     1      47.698   4.911  13.460  0.00  0.00    +0.000 OA
ATOM     15  C   UNL     1      46.731   7.017  12.997  0.00  0.00    +0.000 A 
ATOM     16  H   UNL     1      49.169   6.163  15.023  0.00  0.00    +0.000 HD
ENDBRANCH   4   6
ENDBRANCH   1   2
BRANCH   1  17
ATOM     17  N   UNL     1      43.673   2.269  12.420  0.00  0.00    +0.000 NA
ATOM     18  H   UNL     1      43.172   1.637  11.790  0.00  0.00    +0.000 HD
ATOM     19  H   UNL     1      42.943   2.831  12.865  0.00  0.00    +0.000 HD
ENDBRANCH   1  17
BRANCH   1  20
ATOM     20  C   UNL     1      43.999   3.344  10.147  0.00  0.00    +0.000 C 
BRANCH  20  21
ATOM     21  C   UNL     1      44.985   3.008   9.060  0.00  0.00    +0.000 A 
ATOM     22  C   UNL     1      45.434   1.694   8.882  0.00  0.00    +0.000 A 
ATOM     23  C   UNL     1      46.334   1.388   7.859  0.00  0.00    +0.000 A 
ATOM     24  C   UNL     1      46.793   2.387   6.993  0.00  0.00    +0.000 A 
ATOM     25  C   UNL     1      46.332   3.699   7.167  0.00  0.00    +0.000 A 
ATOM     26  C   UNL     1      45.441   4.009   8.195  0.00  0.00    +0.000 A 
BRANCH  24  27
ATOM     27  C   UNL     1      47.795   2.075   5.908  0.00  0.00    +0.000 C 
BRANCH  27  28
ATOM     28  N   UNL     1      47.748   0.670   5.505  0.00  0.00    +0.000 NA
ATOM     29  H   UNL     1      47.141   0.160   6.147  0.00  0.00    +0.000 HD
BRANCH  28  30
ATOM     30  C   UNL     1      47.288   0.489   4.121  0.00  0.00    +0.000 C 
ATOM     31  C   UNL     1      46.058   1.353   3.781  0.00  0.00    +0.000 C 
ATOM     32  C   UNL     1      45.513   1.055   2.387  0.00  0.00    +0.000 C 
ATOM     33  C   UNL     1      45.192  -0.423   2.221  0.00  0.00    +0.000 C 
ATOM     34  C   UNL     1      46.418  -1.282   2.513  0.00  0.00    +0.000 C 
ATOM     35  C   UNL     1      46.976  -1.004   3.909  0.00  0.00    +0.000 C 
ENDBRANCH  28  30
ENDBRANCH  27  28
ENDBRANCH  24  27
ENDBRANCH  20  21
ENDBRANCH   1  20
TORSDOF 8
ENDMDL
MODEL 2
REMARK VINA RESULT:    -8.153      3.918      5.484
REMARK INTER + INTRA:         -12.746
REMARK INTER:                 -12.174
REMARK INTRA:                  -0.572
REMARK UNBOUND:                -1.018
REMARK  Name = 
REMARK  8 active torsions:
REMARK  status: ('A' for Active; 'I' for Inactive)
REMARK    1  A    between atoms: N_1  and  C_2
REMARK    2  A    between atoms: C_2  and  C_3
REMARK    3  A    between atoms: C_2  and  C_18
REMARK    4  A    between atoms: C_3  and  C_4
REMARK    5  A    between atoms: C_7  and  C_8
REMARK    6  A    between atoms: C_8  and  N_9
REMARK    7  A    between atoms: N_9  and  C_10
REMARK    8  A    between atoms: N_20  and  C_21
REMARK                            x       y       z     vdW  Elec       q    Type
REMARK                         _______ _______ _______ _____ _____    ______ ____
ROOT
ATOM      1  C   UNL     1      47.165   4.441  14.626  0.00  0.00    +0.000 C 
ENDROOT
BRANCH   1   2
ATOM      2  C   UNL     1      47.146   4.431  16.169  0.00  0.00    +0.000 C 
ATOM      3  O   UNL     1      46.549   3.551  16.787  0.00  0.00    +0.000 OA
ATOM      4  N   UNL     1      47.799   5.501  16.757  0.00  0.00    +0.000 N 
ATOM      5  H   UNL     1      48.133   6.244  16.142  0.00  0.00    +0.000 HD
BRANCH   4   6
ATOM      6  C   UNL     1      48.025   5.624  18.129  0.00  0.00    +0.000 A 
ATOM      7  C   UNL     1      47.121   6.141  19.037  0.00  0.00    +0.000 A 
ATOM      8  S   UNL     1      47.691   6.123  20.647  0.00  0.00    +0.000 S 
ATOM      9  C   UNL     1      49.164   5.417  20.169  0.00  0.00    +0.000 A 
ATOM     10  N   UNL     1      50.133   5.132  21.078  0.00  0.00    +0.000 NA
ATOM     11  C   UNL     1      51.200   4.616  20.564  0.00  0.00    +0.000 A 
ATOM     12  N   UNL     1      51.385   4.359  19.228  0.00  0.00    +0.000 N 
ATOM     13  C   UNL     1      50.433   4.634  18.270  0.00  0.00    +0.000 A 
ATOM     14  O   UNL     1      50.626   4.422  17.076  0.00  0.00    +0.000 OA
ATOM     15  C   UNL     1      49.214   5.204  18.803  0.00  0.00    +0.000 A 
ATOM     16  H   UNL     1      52.254   3.968  18.897  0.00  0.00    +0.000 HD
ENDBRANCH   4   6
ENDBRANCH   1   2
BRANCH   1  17
ATOM     17  N   UNL     1      47.586   3.114  14.112  0.00  0.00    +0.000 NA
ATOM     18  H   UNL     1      46.745   2.550  13.969  0.00  0.00    +0.000 HD
ATOM     19  H   UNL     1      48.104   2.630  14.850  0.00  0.00    +0.000 HD
ENDBRANCH   1  17
BRANCH   1  20
ATOM     20  C   UNL     1      45.765   4.877  14.141  0.00  0.00    +0.000 C 
BRANCH  20  21
ATOM     21  C   UNL     1      45.481   4.634  12.682  0.00  0.00    +0.000 A 
ATOM     22  C   UNL     1      45.818   5.592  11.719  0.00  0.00    +0.000 A 
ATOM     23  C   UNL     1      45.569   5.350  10.366  0.00  0.00    +0.000 A 
ATOM     24  C   UNL     1      44.989   4.145   9.953  0.00  0.00    +0.000 A 
ATOM     25  C   UNL     1      44.665   3.183  10.920  0.00  0.00    +0.000 A 
ATOM     26  C   UNL     1      44.903   3.427  12.273  0.00  0.00    +0.000 A 
BRANCH  24  27
ATOM     27  C   UNL     1      44.681   3.889   8.499  0.00  0.00    +0.000 C 
BRANCH  27  28
ATOM     28  N   UNL     1      45.738   4.385   7.617  0.00  0.00    +0.000 NA
ATOM     29  H   UNL     1      46.231   5.145   8.085  0.00  0.00    +0.000 HD
BRANCH  28  30
ATOM     30  C   UNL     1      46.686   3.335   7.217  0.00  0.00    +0.000 C 
ATOM     31  C   UNL     1      46.815   3.195   5.689  0.00  0.00    +0.000 C 
ATOM     32  C   UNL     1      47.698   2.016   5.292  0.00  0.00    +0.000 C 
ATOM     33  C   UNL     1      47.201   0.716   5.910  0.00  0.00    +0.000 C 
ATOM     34  C   UNL     1      47.113   0.834   7.427  0.00  0.00    +0.000 C 
ATOM     35  C   UNL     1      46.226   2.007   7.847  0.00  0.00    +0.000 C 
ENDBRANCH  28  30
ENDBRANCH  27  28
ENDBRANCH  24  27
ENDBRANCH  20  21
ENDBRANCH   1  20
TORSDOF 8
ENDMDL
MODEL 3
REMARK VINA RESULT:    -7.972      4.466      7.422
REMARK INTER + INTRA:         -12.486
REMARK INTER:                 -11.539
REMARK INTRA:                  -0.947
REMARK UNBOUND:                -1.018
REMARK  Name = 
REMARK  8 active torsions:
REMARK  status: ('A' for Active; 'I' for Inactive)
REMARK    1  A    between atoms: N_1  and  C_2
REMARK    2  A    between atoms: C_2  and  C_3
REMARK    3  A    between atoms: C_2  and  C_18
REMARK    4  A    between atoms: C_3  and  C_4
REMARK    5  A    between atoms: C_7  and  C_8
REMARK    6  A    between atoms: C_8  and  N_9
REMARK    7  A    between atoms: N_9  and  C_10
REMARK    8  A    between atoms: N_20  and  C_21
REMARK                            x       y       z     vdW  Elec       q    Type
REMARK                         _______ _______ _______ _____ _____    ______ ____
ROOT
ATOM      1  C   UNL     1      48.512   6.621  15.945  0.00  0.00    +0.000 C 
ENDROOT
BRANCH   1   2
ATOM      2  C   UNL     1      49.903   6.066  16.314  0.00  0.00    +0.000 C 
ATOM      3  O   UNL     1      50.918   6.483  15.760  0.00  0.00    +0.000 OA
ATOM      4  N   UNL     1      49.883   5.052  17.259  0.00  0.00    +0.000 N 
ATOM      5  H   UNL     1      48.971   4.691  17.541  0.00  0.00    +0.000 HD
BRANCH   4   6
ATOM      6  C   UNL     1      51.025   4.499  17.840  0.00  0.00    +0.000 A 
ATOM      7  C   UNL     1      51.936   5.194  18.612  0.00  0.00    +0.000 A 
ATOM      8  S   UNL     1      53.208   4.218  19.202  0.00  0.00    +0.000 S 
ATOM      9  C   UNL     1      52.567   2.838  18.441  0.00  0.00    +0.000 A 
ATOM     10  N   UNL     1      53.185   1.631  18.541  0.00  0.00    +0.000 NA
ATOM     11  C   UNL     1      52.591   0.682  17.897  0.00  0.00    +0.000 A 
ATOM     12  N   UNL     1      51.438   0.828  17.164  0.00  0.00    +0.000 N 
ATOM     13  C   UNL     1      50.779   2.032  17.032  0.00  0.00    +0.000 A 
ATOM     14  O   UNL     1      49.764   2.151  16.352  0.00  0.00    +0.000 OA
ATOM     15  C   UNL     1      51.404   3.124  17.748  0.00  0.00    +0.000 A 
ATOM     16  H   UNL     1      51.039   0.043  16.673  0.00  0.00    +0.000 HD
ENDBRANCH   4   6
ENDBRANCH   1   2
BRANCH   1  17
ATOM     17  N   UNL     1      48.203   7.814  16.773  0.00  0.00    +0.000 NA
ATOM     18  H   UNL     1      47.198   7.993  16.705  0.00  0.00    +0.000 HD
ATOM     19  H   UNL     1      48.647   8.630  16.344  0.00  0.00    +0.000 HD
ENDBRANCH   1  17
BRANCH   1  20
ATOM     20  C   UNL     1      48.506   6.904  14.426  0.00  0.00    +0.000 C 
BRANCH  20  21
ATOM     21  C   UNL     1      47.360   6.299  13.660  0.00  0.00    +0.000 A 
ATOM     22  C   UNL     1      46.975   4.971  13.879  0.00  0.00    +0.000 A 
ATOM     23  C   UNL     1      45.898   4.423  13.178  0.00  0.00    +0.000 A 
ATOM     24  C   UNL     1      45.183   5.196  12.256  0.00  0.00    +0.000 A 
ATOM     25  C   UNL     1      45.564   6.529  12.049  0.00  0.00    +0.000 A 
ATOM     26  C   UNL     1      46.645   7.074  12.740  0.00  0.00    +0.000 A 
BRANCH  24  27
ATOM     27  C   UNL     1      44.042   4.604  11.466  0.00  0.00    +0.000 C 
BRANCH  27  28
ATOM     28  N   UNL     1      44.030   5.074  10.081  0.00  0.00    +0.000 NA
ATOM     29  H   UNL     1      44.683   5.852   9.988  0.00  0.00    +0.000 HD
BRANCH  28  30
ATOM     30  C   UNL     1      44.362   4.015   9.116  0.00  0.00    +0.000 C 
ATOM     31  C   UNL     1      44.514   2.631   9.775  0.00  0.00    +0.000 C 
ATOM     32  C   UNL     1      44.989   1.572   8.785  0.00  0.00    +0.000 C 
ATOM     33  C   UNL     1      46.286   1.988   8.106  0.00  0.00    +0.000 C 
ATOM     34  C   UNL     1      46.129   3.337   7.414  0.00  0.00    +0.000 C 
ATOM     35  C   UNL     1      45.660   4.416   8.391  0.00  0.00    +0.000 C 
ENDBRANCH  28  30
ENDBRANCH  27  28
ENDBRANCH  24  27
ENDBRANCH  20  21
ENDBRANCH   1  20
TORSDOF 8
ENDMDL
MODEL 4
REMARK VINA RESULT:    -7.794      3.252      6.021
REMARK INTER + INTRA:         -12.230
REMARK INTER:                 -11.063
REMARK INTRA:                  -1.167
REMARK UNBOUND:                -1.018
REMARK  Name = 
REMARK  8 active torsions:
REMARK  status: ('A' for Active; 'I' for Inactive)
REMARK    1  A    between atoms: N_1  and  C_2
REMARK    2  A    between atoms: C_2  and  C_3
REMARK    3  A    between atoms: C_2  and  C_18
REMARK    4  A    between atoms: C_3  and  C_4
REMARK    5  A    between atoms: C_7  and  C_8
REMARK    6  A    between atoms: C_8  and  N_9
REMARK    7  A    between atoms: N_9  and  C_10
REMARK    8  A    between atoms: N_20  and  C_21
REMARK                            x       y       z     vdW  Elec       q    Type
REMARK                         _______ _______ _______ _____ _____    ______ ____
ROOT
ATOM      1  C   UNL     1      48.847   7.558  13.528  0.00  0.00    +0.000 C 
ENDROOT
BRANCH   1   2
ATOM      2  C   UNL     1      49.357   7.229  14.946  0.00  0.00    +0.000 C 
ATOM      3  O   UNL     1      50.542   6.966  15.146  0.00  0.00    +0.000 OA
ATOM      4  N   UNL     1      48.372   7.208  15.920  0.00  0.00    +0.000 N 
ATOM      5  H   UNL     1      47.403   7.300  15.611  0.00  0.00    +0.000 HD
BRANCH   4   6
ATOM      6  C   UNL     1      48.622   7.068  17.286  0.00  0.00    +0.000 A 
ATOM      7  C   UNL     1      48.931   8.106  18.144  0.00  0.00    +0.000 A 
ATOM      8  S   UNL     1      49.148   7.605  19.763  0.00  0.00    +0.000 S 
ATOM      9  C   UNL     1      48.831   5.984  19.354  0.00  0.00    +0.000 A 
ATOM     10  N   UNL     1      48.859   5.005  20.297  0.00  0.00    +0.000 NA
ATOM     11  C   UNL     1      48.615   3.823  19.835  0.00  0.00    +0.000 A 
ATOM     12  N   UNL     1      48.346   3.533  18.520  0.00  0.00    +0.000 N 
ATOM     13  C   UNL     1      48.310   4.491  17.530  0.00  0.00    +0.000 A 
ATOM     14  O   UNL     1      48.094   4.210  16.354  0.00  0.00    +0.000 OA
ATOM     15  C   UNL     1      48.567   5.834  18.005  0.00  0.00    +0.000 A 
ATOM     16  H   UNL     1      48.181   2.581  18.228  0.00  0.00    +0.000 HD
ENDBRANCH   4   6
ENDBRANCH   1   2
BRANCH   1  17
ATOM     17  N   UNL     1      49.309   6.526  12.567  0.00  0.00    +0.000 NA
ATOM     18  H   UNL     1      50.329   6.581  12.512  0.00  0.00    +0.000 HD
ATOM     19  H   UNL     1      48.980   6.783  11.633  0.00  0.00    +0.000 HD
ENDBRANCH   1  17
BRANCH   1  20
ATOM     20  C   UNL     1      47.309   7.693  13.601  0.00  0.00    +0.000 C 
BRANCH  20  21
ATOM     21  C   UNL     1      46.534   6.713  12.762  0.00  0.00    +0.000 A 
ATOM     22  C   UNL     1      46.179   7.023  11.444  0.00  0.00    +0.000 A 
ATOM     23  C   UNL     1      45.475   6.099  10.667  0.00  0.00    +0.000 A 
ATOM     24  C   UNL     1      45.125   4.849  11.190  0.00  0.00    +0.000 A 
ATOM     25  C   UNL     1      45.494   4.539  12.507  0.00  0.00    +0.000 A 
ATOM     26  C   UNL     1      46.186   5.463  13.288  0.00  0.00    +0.000 A 
BRANCH  24  27
ATOM     27  C   UNL     1      44.333   3.859  10.373  0.00  0.00    +0.000 C 
BRANCH  27  28
ATOM     28  N   UNL     1      44.296   4.221   8.956  0.00  0.00    +0.000 NA
ATOM     29  H   UNL     1      44.746   5.128   8.833  0.00  0.00    +0.000 HD
BRANCH  28  30
ATOM     30  C   UNL     1      44.937   3.216   8.095  0.00  0.00    +0.000 C 
ATOM     31  C   UNL     1      45.489   2.014   8.885  0.00  0.00    +0.000 C 
ATOM     32  C   UNL     1      46.266   1.049   7.995  0.00  0.00    +0.000 C 
ATOM     33  C   UNL     1      47.386   1.761   7.249  0.00  0.00    +0.000 C 
ATOM     34  C   UNL     1      46.841   2.924   6.430  0.00  0.00    +0.000 C 
ATOM     35  C   UNL     1      46.063   3.909   7.305  0.00  0.00    +0.000 C 
ENDBRANCH  28  30
ENDBRANCH  27  28
ENDBRANCH  24  27
ENDBRANCH  20  21
ENDBRANCH   1  20
TORSDOF 8
ENDMDL
MODEL 5
REMARK VINA RESULT:    -7.309      4.047      5.922
REMARK INTER + INTRA:         -11.532
REMARK INTER:                 -11.193
REMARK INTRA:                  -0.338
REMARK UNBOUND:                -1.018
REMARK  Name = 
REMARK  8 active torsions:
REMARK  status: ('A' for Active; 'I' for Inactive)
REMARK    1  A    between atoms: N_1  and  C_2
REMARK    2  A    between atoms: C_2  and  C_3
REMARK    3  A    between atoms: C_2  and  C_18
REMARK    4  A    between atoms: C_3  and  C_4
REMARK    5  A    between atoms: C_7  and  C_8
REMARK    6  A    between atoms: C_8  and  N_9
REMARK    7  A    between atoms: N_9  and  C_10
REMARK    8  A    between atoms: N_20  and  C_21
REMARK                            x       y       z     vdW  Elec       q    Type
REMARK                         _______ _______ _______ _____ _____    ______ ____
ROOT
ATOM      1  C   UNL     1      47.600   4.521  14.959  0.00  0.00    +0.000 C 
ENDROOT
BRANCH   1   2
ATOM      2  C   UNL     1      47.445   4.467  16.493  0.00  0.00    +0.000 C 
ATOM      3  O   UNL     1      46.612   3.730  17.018  0.00  0.00    +0.000 OA
ATOM      4  N   UNL     1      48.272   5.338  17.184  0.00  0.00    +0.000 N 
ATOM      5  H   UNL     1      48.818   6.003  16.635  0.00  0.00    +0.000 HD
BRANCH   4   6
ATOM      6  C   UNL     1      48.399   5.362  18.574  0.00  0.00    +0.000 A 
ATOM      7  C   UNL     1      48.717   4.270  19.359  0.00  0.00    +0.000 A 
ATOM      8  S   UNL     1      48.827   4.641  21.023  0.00  0.00    +0.000 S 
ATOM      9  C   UNL     1      48.454   6.275  20.733  0.00  0.00    +0.000 A 
ATOM     10  N   UNL     1      48.379   7.169  21.754  0.00  0.00    +0.000 NA
ATOM     11  C   UNL     1      48.070   8.367  21.382  0.00  0.00    +0.000 A 
ATOM     12  N   UNL     1      47.832   8.752  20.086  0.00  0.00    +0.000 N 
ATOM     13  C   UNL     1      47.894   7.881  19.019  0.00  0.00    +0.000 A 
ATOM     14  O   UNL     1      47.652   8.236  17.869  0.00  0.00    +0.000 OA
ATOM     15  C   UNL     1      48.248   6.527  19.388  0.00  0.00    +0.000 A 
ATOM     16  H   UNL     1      47.579   9.705  19.871  0.00  0.00    +0.000 HD
ENDBRANCH   4   6
ENDBRANCH   1   2
BRANCH   1  17
ATOM     17  N   UNL     1      47.437   3.164  14.382  0.00  0.00    +0.000 NA
ATOM     18  H   UNL     1      48.239   2.599  14.673  0.00  0.00    +0.000 HD
ATOM     19  H   UNL     1      47.518   3.233  13.364  0.00  0.00    +0.000 HD
ENDBRANCH   1  17
BRANCH   1  20
ATOM     20  C   UNL     1      46.583   5.551  14.419  0.00  0.00    +0.000 C 
BRANCH  20  21
ATOM     21  C   UNL     1      45.977   5.220  13.081  0.00  0.00    +0.000 A 
ATOM     22  C   UNL     1      45.007   4.217  12.964  0.00  0.00    +0.000 A 
ATOM     23  C   UNL     1      44.436   3.929  11.723  0.00  0.00    +0.000 A 
ATOM     24  C   UNL     1      44.816   4.645  10.581  0.00  0.00    +0.000 A 
ATOM     25  C   UNL     1      45.779   5.656  10.706  0.00  0.00    +0.000 A 
ATOM     26  C   UNL     1      46.358   5.938  11.942  0.00  0.00    +0.000 A 
BRANCH  24  27
ATOM     27  C   UNL     1      44.233   4.317   9.229  0.00  0.00    +0.000 C 
BRANCH  27  28
ATOM     28  N   UNL     1      45.198   4.525   8.149  0.00  0.00    +0.000 NA
ATOM     29  H   UNL     1      46.024   4.988   8.527  0.00  0.00    +0.000 HD
BRANCH  28  30
ATOM     30  C   UNL     1      45.580   3.275   7.477  0.00  0.00    +0.000 C 
ATOM     31  C   UNL     1      46.024   2.177   8.462  0.00  0.00    +0.000 C 
ATOM     32  C   UNL     1      46.543   0.935   7.743  0.00  0.00    +0.000 C 
ATOM     33  C   UNL     1      47.671   1.281   6.781  0.00  0.00    +0.000 C 
ATOM     34  C   UNL     1      47.223   2.335   5.775  0.00  0.00    +0.000 C 
ATOM     35  C   UNL     1      46.705   3.592   6.475  0.00  0.00    +0.000 C 
ENDBRANCH  28  30
ENDBRANCH  27  28
ENDBRANCH  24  27
ENDBRANCH  20  21
ENDBRANCH   1  20
TORSDOF 8
ENDMDL
MODEL 6
REMARK VINA RESULT:    -7.232      4.313      6.461
REMARK INTER + INTRA:         -11.422
REMARK INTER:                 -10.558
REMARK INTRA:                  -0.863
REMARK UNBOUND:                -1.018
REMARK  Name = 
REMARK  8 active torsions:
REMARK  status: ('A' for Active; 'I' for Inactive)
REMARK    1  A    between atoms: N_1  and  C_2
REMARK    2  A    between atoms: C_2  and  C_3
REMARK    3  A    between atoms: C_2  and  C_18
REMARK    4  A    between atoms: C_3  and  C_4
REMARK    5  A    between atoms: C_7  and  C_8
REMARK    6  A    between atoms: C_8  and  N_9
REMARK    7  A    between atoms: N_9  and  C_10
REMARK    8  A    between atoms: N_20  and  C_21
REMARK                            x       y       z     vdW  Elec       q    Type
REMARK                         _______ _______ _______ _____ _____    ______ ____
ROOT
ATOM      1  C   UNL     1      47.418   3.818  15.825  0.00  0.00    +0.000 C 
ENDROOT
BRANCH   1   2
ATOM      2  C   UNL     1      48.809   3.813  16.492  0.00  0.00    +0.000 C 
ATOM      3  O   UNL     1      49.475   2.781  16.557  0.00  0.00    +0.000 OA
ATOM      4  N   UNL     1      49.189   5.030  17.033  0.00  0.00    +0.000 N 
ATOM      5  H   UNL     1      48.493   5.777  17.045  0.00  0.00    +0.000 HD
BRANCH   4   6
ATOM      6  C   UNL     1      50.454   5.293  17.561  0.00  0.00    +0.000 A 
ATOM      7  C   UNL     1      51.538   5.742  16.832  0.00  0.00    +0.000 A 
ATOM      8  S   UNL     1      52.935   5.997  17.782  0.00  0.00    +0.000 S 
ATOM      9  C   UNL     1      52.120   5.516  19.196  0.00  0.00    +0.000 A 
ATOM     10  N   UNL     1      52.754   5.497  20.398  0.00  0.00    +0.000 NA
ATOM     11  C   UNL     1      52.013   5.093  21.376  0.00  0.00    +0.000 A 
ATOM     12  N   UNL     1      50.700   4.708  21.262  0.00  0.00    +0.000 N 
ATOM     13  C   UNL     1      50.017   4.708  20.064  0.00  0.00    +0.000 A 
ATOM     14  O   UNL     1      48.851   4.336  19.976  0.00  0.00    +0.000 OA
ATOM     15  C   UNL     1      50.807   5.165  18.941  0.00  0.00    +0.000 A 
ATOM     16  H   UNL     1      50.187   4.388  22.069  0.00  0.00    +0.000 HD
ENDBRANCH   4   6
ENDBRANCH   1   2
BRANCH   1  17
ATOM     17  N   UNL     1      46.355   3.792  16.862  0.00  0.00    +0.000 NA
ATOM     18  H   UNL     1      46.126   4.760  17.102  0.00  0.00    +0.000 HD
ATOM     19  H   UNL     1      46.748   3.395  17.719  0.00  0.00    +0.000 HD
ENDBRANCH   1  17
BRANCH   1  20
ATOM     20  C   UNL     1      47.345   5.048  14.895  0.00  0.00    +0.000 C 
BRANCH  20  21
ATOM     21  C   UNL     1      46.564   4.852  13.623  0.00  0.00    +0.000 A 
ATOM     22  C   UNL     1      46.037   3.598  13.293  0.00  0.00    +0.000 A 
ATOM     23  C   UNL     1      45.298   3.429  12.120  0.00  0.00    +0.000 A 
ATOM     24  C   UNL     1      45.064   4.512  11.264  0.00  0.00    +0.000 A 
ATOM     25  C   UNL     1      45.583   5.769  11.605  0.00  0.00    +0.000 A 
ATOM     26  C   UNL     1      46.331   5.937  12.770  0.00  0.00    +0.000 A 
BRANCH  24  27
ATOM     27  C   UNL     1      44.299   4.333   9.976  0.00  0.00    +0.000 C 
BRANCH  27  28
ATOM     28  N   UNL     1      45.113   4.654   8.804  0.00  0.00    +0.000 NA
ATOM     29  H   UNL     1      45.969   5.116   9.110  0.00  0.00    +0.000 HD
BRANCH  28  30
ATOM     30  C   UNL     1      45.437   3.470   7.995  0.00  0.00    +0.000 C 
ATOM     31  C   UNL     1      45.726   2.221   8.850  0.00  0.00    +0.000 C 
ATOM     32  C   UNL     1      46.190   1.040   8.003  0.00  0.00    +0.000 C 
ATOM     33  C   UNL     1      47.404   1.404   7.160  0.00  0.00    +0.000 C 
ATOM     34  C   UNL     1      47.110   2.612   6.278  0.00  0.00    +0.000 C 
ATOM     35  C   UNL     1      46.649   3.811   7.108  0.00  0.00    +0.000 C 
ENDBRANCH  28  30
ENDBRANCH  27  28
ENDBRANCH  24  27
ENDBRANCH  20  21
ENDBRANCH   1  20
TORSDOF 8
ENDMDL
MODEL 7
REMARK VINA RESULT:    -7.015      2.888      5.185
REMARK INTER + INTRA:         -11.109
REMARK INTER:                 -10.903
REMARK INTRA:                  -0.206
REMARK UNBOUND:                -1.018
REMARK  Name = 
REMARK  8 active torsions:
REMARK  status: ('A' for Active; 'I' for Inactive)
REMARK    1  A    between atoms: N_1  and  C_2
REMARK    2  A    between atoms: C_2  and  C_3
REMARK    3  A    between atoms: C_2  and  C_18
REMARK    4  A    between atoms: C_3  and  C_4
REMARK    5  A    between atoms: C_7  and  C_8
REMARK    6  A    between atoms: C_8  and  N_9
REMARK    7  A    between atoms: N_9  and  C_10
REMARK    8  A    between atoms: N_20  and  C_21
REMARK                            x       y       z     vdW  Elec       q    Type
REMARK                         _______ _______ _______ _____ _____    ______ ____
ROOT
ATOM      1  C   UNL     1      47.202   7.782  12.704  0.00  0.00    +0.000 C 
ENDROOT
BRANCH   1   2
ATOM      2  C   UNL     1      47.975   7.762  14.039  0.00  0.00    +0.000 C 
ATOM      3  O   UNL     1      48.563   8.763  14.444  0.00  0.00    +0.000 OA
ATOM      4  N   UNL     1      47.981   6.533  14.679  0.00  0.00    +0.000 N 
ATOM      5  H   UNL     1      47.580   5.739  14.177  0.00  0.00    +0.000 HD
BRANCH   4   6
ATOM      6  C   UNL     1      48.498   6.317  15.957  0.00  0.00    +0.000 A 
ATOM      7  C   UNL     1      49.165   7.263  16.712  0.00  0.00    +0.000 A 
ATOM      8  S   UNL     1      49.644   6.691  18.248  0.00  0.00    +0.000 S 
ATOM      9  C   UNL     1      48.966   5.160  17.943  0.00  0.00    +0.000 A 
ATOM     10  N   UNL     1      49.030   4.168  18.869  0.00  0.00    +0.000 NA
ATOM     11  C   UNL     1      48.487   3.059  18.488  0.00  0.00    +0.000 A 
ATOM     12  N   UNL     1      47.888   2.853  17.270  0.00  0.00    +0.000 N 
ATOM     13  C   UNL     1      47.802   3.828  16.300  0.00  0.00    +0.000 A 
ATOM     14  O   UNL     1      47.285   3.619  15.206  0.00  0.00    +0.000 OA
ATOM     15  C   UNL     1      48.388   5.093  16.688  0.00  0.00    +0.000 A 
ATOM     16  H   UNL     1      47.498   1.952  17.036  0.00  0.00    +0.000 HD
ENDBRANCH   4   6
ENDBRANCH   1   2
BRANCH   1  17
ATOM     17  N   UNL     1      47.951   7.027  11.669  0.00  0.00    +0.000 NA
ATOM     18  H   UNL     1      47.871   7.538  10.786  0.00  0.00    +0.000 HD
ATOM     19  H   UNL     1      47.470   6.139  11.504  0.00  0.00    +0.000 HD
ENDBRANCH   1  17
BRANCH   1  20
ATOM     20  C   UNL     1      45.785   7.227  12.972  0.00  0.00    +0.000 C 
BRANCH  20  21
ATOM     21  C   UNL     1      45.388   6.038  12.137  0.00  0.00    +0.000 A 
ATOM     22  C   UNL     1      44.712   6.210  10.924  0.00  0.00    +0.000 A 
ATOM     23  C   UNL     1      44.364   5.103  10.147  0.00  0.00    +0.000 A 
ATOM     24  C   UNL     1      44.695   3.808  10.564  0.00  0.00    +0.000 A 
ATOM     25  C   UNL     1      45.384   3.642  11.774  0.00  0.00    +0.000 A 
ATOM     26  C   UNL     1      45.722   4.746  12.557  0.00  0.00    +0.000 A 
BRANCH  24  27
ATOM     27  C   UNL     1      44.291   2.603   9.752  0.00  0.00    +0.000 C 
BRANCH  27  28
ATOM     28  N   UNL     1      45.435   1.752   9.425  0.00  0.00    +0.000 NA
ATOM     29  H   UNL     1      45.232   0.796   9.718  0.00  0.00    +0.000 HD
BRANCH  28  30
ATOM     30  C   UNL     1      45.777   1.782   7.995  0.00  0.00    +0.000 C 
ATOM     31  C   UNL     1      46.895   0.788   7.625  0.00  0.00    +0.000 C 
ATOM     32  C   UNL     1      47.329   0.927   6.170  0.00  0.00    +0.000 C 
ATOM     33  C   UNL     1      47.753   2.353   5.850  0.00  0.00    +0.000 C 
ATOM     34  C   UNL     1      46.636   3.338   6.172  0.00  0.00    +0.000 C 
ATOM     35  C   UNL     1      46.189   3.220   7.630  0.00  0.00    +0.000 C 
ENDBRANCH  28  30
ENDBRANCH  27  28
ENDBRANCH  24  27
ENDBRANCH  20  21
ENDBRANCH   1  20
TORSDOF 8
ENDMDL
MODEL 8
REMARK VINA RESULT:    -6.888      3.702      5.938
REMARK INTER + INTRA:         -10.927
REMARK INTER:                  -9.804
REMARK INTRA:                  -1.123
REMARK UNBOUND:                -1.018
REMARK  Name = 
REMARK  8 active torsions:
REMARK  status: ('A' for Active; 'I' for Inactive)
REMARK    1  A    between atoms: N_1  and  C_2
REMARK    2  A    between atoms: C_2  and  C_3
REMARK    3  A    between atoms: C_2  and  C_18
REMARK    4  A    between atoms: C_3  and  C_4
REMARK    5  A    between atoms: C_7  and  C_8
REMARK    6  A    between atoms: C_8  and  N_9
REMARK    7  A    between atoms: N_9  and  C_10
REMARK    8  A    between atoms: N_20  and  C_21
REMARK                            x       y       z     vdW  Elec       q    Type
REMARK                         _______ _______ _______ _____ _____    ______ ____
ROOT
ATOM      1  C   UNL     1      48.867   6.991  13.579  0.00  0.00    +0.000 C 
ENDROOT
BRANCH   1   2
ATOM      2  C   UNL     1      49.246   8.428  13.164  0.00  0.00    +0.000 C 
ATOM      3  O   UNL     1      49.425   9.303  14.009  0.00  0.00    +0.000 OA
ATOM      4  N   UNL     1      49.309   8.631  11.795  0.00  0.00    +0.000 N 
ATOM      5  H   UNL     1      49.000   7.867  11.192  0.00  0.00    +0.000 HD
BRANCH   4   6
ATOM      6  C   UNL     1      49.763   9.807  11.197  0.00  0.00    +0.000 A 
ATOM      7  C   UNL     1      48.984  10.920  10.946  0.00  0.00    +0.000 A 
ATOM      8  S   UNL     1      49.849  12.207  10.232  0.00  0.00    +0.000 S 
ATOM      9  C   UNL     1      51.293  11.307  10.244  0.00  0.00    +0.000 A 
ATOM     10  N   UNL     1      52.450  11.831   9.758  0.00  0.00    +0.000 NA
ATOM     11  C   UNL     1      53.457  11.024   9.818  0.00  0.00    +0.000 A 
ATOM     12  N   UNL     1      53.414   9.746  10.320  0.00  0.00    +0.000 N 
ATOM     13  C   UNL     1      52.264   9.173  10.820  0.00  0.00    +0.000 A 
ATOM     14  O   UNL     1      52.237   8.020  11.241  0.00  0.00    +0.000 OA
ATOM     15  C   UNL     1      51.111  10.046  10.782  0.00  0.00    +0.000 A 
ATOM     16  H   UNL     1      54.239   9.167  10.320  0.00  0.00    +0.000 HD
ENDBRANCH   4   6
ENDBRANCH   1   2
BRANCH   1  17
ATOM     17  N   UNL     1      49.696   6.558  14.732  0.00  0.00    +0.000 NA
ATOM     18  H   UNL     1      50.509   6.057  14.365  0.00  0.00    +0.000 HD
ATOM     19  H   UNL     1      49.172   5.858  15.263  0.00  0.00    +0.000 HD
ENDBRANCH   1  17
BRANCH   1  20
ATOM     20  C   UNL     1      47.349   6.968  13.864  0.00  0.00    +0.000 C 
BRANCH  20  21
ATOM     21  C   UNL     1      46.521   6.168  12.893  0.00  0.00    +0.000 A 
ATOM     22  C   UNL     1      46.381   6.581  11.563  0.00  0.00    +0.000 A 
ATOM     23  C   UNL     1      45.626   5.823  10.665  0.00  0.00    +0.000 A 
ATOM     24  C   UNL     1      45.010   4.636  11.078  0.00  0.00    +0.000 A 
ATOM     25  C   UNL     1      45.164   4.220  12.408  0.00  0.00    +0.000 A 
ATOM     26  C   UNL     1      45.907   4.981  13.309  0.00  0.00    +0.000 A 
BRANCH  24  27
ATOM     27  C   UNL     1      44.161   3.829  10.126  0.00  0.00    +0.000 C 
BRANCH  27  28
ATOM     28  N   UNL     1      44.362   4.232   8.735  0.00  0.00    +0.000 NA
ATOM     29  H   UNL     1      44.906   5.094   8.714  0.00  0.00    +0.000 HD
BRANCH  28  30
ATOM     30  C   UNL     1      45.024   3.195   7.931  0.00  0.00    +0.000 C 
ATOM     31  C   UNL     1      45.517   2.005   8.777  0.00  0.00    +0.000 C 
ATOM     32  C   UNL     1      46.318   1.004   7.950  0.00  0.00    +0.000 C 
ATOM     33  C   UNL     1      47.484   1.677   7.240  0.00  0.00    +0.000 C 
ATOM     34  C   UNL     1      46.998   2.827   6.366  0.00  0.00    +0.000 C 
ATOM     35  C   UNL     1      46.198   3.847   7.178  0.00  0.00    +0.000 C 
ENDBRANCH  28  30
ENDBRANCH  27  28
ENDBRANCH  24  27
ENDBRANCH  20  21
ENDBRANCH   1  20
TORSDOF 8
ENDMDL
MODEL 9
REMARK VINA RESULT:    -6.834      3.641      5.978
REMARK INTER + INTRA:         -10.848
REMARK INTER:                  -9.728
REMARK INTRA:                  -1.120
REMARK UNBOUND:                -1.018
REMARK  Name = 
REMARK  8 active torsions:
REMARK  status: ('A' for Active; 'I' for Inactive)
REMARK    1  A    between atoms: N_1  and  C_2
REMARK    2  A    between atoms: C_2  and  C_3
REMARK    3  A    between atoms: C_2  and  C_18
REMARK    4  A    between atoms: C_3  and  C_4
REMARK    5  A    between atoms: C_7  and  C_8
REMARK    6  A    between atoms: C_8  and  N_9
REMARK    7  A    between atoms: N_9  and  C_10
REMARK    8  A    between atoms: N_20  and  C_21
REMARK                            x       y       z     vdW  Elec       q    Type
REMARK                         _______ _______ _______ _____ _____    ______ ____
ROOT
ATOM      1  C   UNL     1      48.365   6.699  14.172  0.00  0.00    +0.000 C 
ENDROOT
BRANCH   1   2
ATOM      2  C   UNL     1      49.359   7.847  13.903  0.00  0.00    +0.000 C 
ATOM      3  O   UNL     1      48.963   8.994  13.703  0.00  0.00    +0.000 OA
ATOM      4  N   UNL     1      50.688   7.456  13.861  0.00  0.00    +0.000 N 
ATOM      5  H   UNL     1      50.885   6.455  13.899  0.00  0.00    +0.000 HD
BRANCH   4   6
ATOM      6  C   UNL     1      51.764   8.341  13.769  0.00  0.00    +0.000 A 
ATOM      7  C   UNL     1      52.374   8.960  14.842  0.00  0.00    +0.000 A 
ATOM      8  S   UNL     1      53.684   9.960  14.393  0.00  0.00    +0.000 S 
ATOM      9  C   UNL     1      53.469   9.584  12.748  0.00  0.00    +0.000 A 
ATOM     10  N   UNL     1      54.276  10.122  11.795  0.00  0.00    +0.000 NA
ATOM     11  C   UNL     1      53.980   9.758  10.591  0.00  0.00    +0.000 A 
ATOM     12  N   UNL     1      52.956   8.908  10.254  0.00  0.00    +0.000 N 
ATOM     13  C   UNL     1      52.112   8.341  11.185  0.00  0.00    +0.000 A 
ATOM     14  O   UNL     1      51.184   7.604  10.864  0.00  0.00    +0.000 OA
ATOM     15  C   UNL     1      52.413   8.713  12.551  0.00  0.00    +0.000 A 
ATOM     16  H   UNL     1      52.775   8.681   9.288  0.00  0.00    +0.000 HD
ENDBRANCH   4   6
ENDBRANCH   1   2
BRANCH   1  17
ATOM     17  N   UNL     1      48.355   6.361  15.618  0.00  0.00    +0.000 NA
ATOM     18  H   UNL     1      48.787   7.137  16.126  0.00  0.00    +0.000 HD
ATOM     19  H   UNL     1      48.980   5.566  15.769  0.00  0.00    +0.000 HD
ENDBRANCH   1  17
BRANCH   1  20
ATOM     20  C   UNL     1      46.986   7.134  13.628  0.00  0.00    +0.000 C 
BRANCH  20  21
ATOM     21  C   UNL     1      46.295   6.132  12.742  0.00  0.00    +0.000 A 
ATOM     22  C   UNL     1      45.818   4.924  13.265  0.00  0.00    +0.000 A 
ATOM     23  C   UNL     1      45.162   4.008  12.439  0.00  0.00    +0.000 A 
ATOM     24  C   UNL     1      44.963   4.289  11.082  0.00  0.00    +0.000 A 
ATOM     25  C   UNL     1      45.431   5.505  10.566  0.00  0.00    +0.000 A 
ATOM     26  C   UNL     1      46.096   6.416  11.386  0.00  0.00    +0.000 A 
BRANCH  24  27
ATOM     27  C   UNL     1      44.289   3.291  10.173  0.00  0.00    +0.000 C 
BRANCH  27  28
ATOM     28  N   UNL     1      44.282   3.734   8.779  0.00  0.00    +0.000 NA
ATOM     29  H   UNL     1      44.652   4.682   8.730  0.00  0.00    +0.000 HD
BRANCH  28  30
ATOM     30  C   UNL     1      45.049   2.844   7.895  0.00  0.00    +0.000 C 
ATOM     31  C   UNL     1      45.697   1.666   8.646  0.00  0.00    +0.000 C 
ATOM     32  C   UNL     1      46.597   0.831   7.741  0.00  0.00    +0.000 C 
ATOM     33  C   UNL     1      47.660   1.689   7.069  0.00  0.00    +0.000 C 
ATOM     34  C   UNL     1      47.022   2.831   6.287  0.00  0.00    +0.000 C 
ATOM     35  C   UNL     1      46.121   3.686   7.179  0.00  0.00    +0.000 C 
ENDBRANCH  28  30
ENDBRANCH  27  28
ENDBRANCH  24  27
ENDBRANCH  20  21
ENDBRANCH   1  20
TORSDOF 8
ENDMDL
