MODEL 1
REMARK VINA RESULT:    -7.898      0.000      0.000
REMARK INTER + INTRA:         -11.997
REMARK INTER:                 -11.130
REMARK INTRA:                  -0.867
REMARK UNBOUND:                -0.867
REMARK  Name = 
REMARK  7 active torsions:
REMARK  status: ('A' for Active; 'I' for Inactive)
REMARK    1  A    between atoms: C_2  and  C_4
REMARK    2  A    between atoms: C_7  and  O_8
REMARK    3  A    between atoms: O_8  and  C_9
REMARK    4  A    between atoms: C_9  and  C_10
REMARK    5  A    between atoms: C_10  and  C_11
REMARK    6  A    between atoms: C_15  and  O_16
REMARK    7  A    between atoms: O_16  and  C_17
REMARK                            x       y       z     vdW  Elec       q    Type
REMARK                         _______ _______ _______ _____ _____    ______ ____
ROOT
ATOM      1  C   UNL     1      43.885   3.175  11.597  0.00  0.00    +0.000 C 
ENDROOT
BRANCH   1   2
ATOM      2  O   UNL     1      43.561   3.589  10.262  0.00  0.00    +0.000 OA
BRANCH   2   6
ATOM      3  C   UNL     1      46.467   2.425   7.573  0.00  0.00    +0.000 A 
ATOM      4  C   UNL     1      46.109   3.773   7.661  0.00  0.00    +0.000 A 
ATOM      5  C   UNL     1      45.118   4.159   8.570  0.00  0.00    +0.000 A 
ATOM      6  C   UNL     1      44.523   3.182   9.355  0.00  0.00    +0.000 A 
ATOM      7  N   UNL     1      44.842   1.872   9.275  0.00  0.00    +0.000 NA
ATOM      8  C   UNL     1      45.797   1.520   8.382  0.00  0.00    +0.000 A 
BRANCH   3  10
ATOM      9  N   UNL     1      48.618   2.681   6.476  0.00  0.00    +0.000 N 
ATOM     10  C   UNL     1      47.508   1.908   6.666  0.00  0.00    +0.000 C 
ATOM     11  O   UNL     1      47.408   0.805   6.138  0.00  0.00    +0.000 OA
ATOM     12  H   UNL     1      49.375   2.252   5.957  0.00  0.00    +0.000 HD
ATOM     13  H   UNL     1      48.853   3.450   7.088  0.00  0.00    +0.000 HD
ENDBRANCH   3  10
ENDBRANCH   2   6
ENDBRANCH   1   2
BRANCH   1  14
ATOM     14  C   UNL     1      43.835   4.371  12.549  0.00  0.00    +0.000 C 
BRANCH  14  15
ATOM     15  C   UNL     1      45.211   4.959  12.751  0.00  0.00    +0.000 A 
ATOM     16  C   UNL     1      45.689   5.966  11.904  0.00  0.00    +0.000 A 
ATOM     17  C   UNL     1      46.936   6.552  12.137  0.00  0.00    +0.000 A 
ATOM     18  C   UNL     1      47.721   6.141  13.218  0.00  0.00    +0.000 A 
ATOM     19  C   UNL     1      47.258   5.138  14.065  0.00  0.00    +0.000 A 
ATOM     20  C   UNL     1      46.006   4.558  13.835  0.00  0.00    +0.000 A 
BRANCH  19  21
ATOM     21  O   UNL     1      47.922   4.679  15.175  0.00  0.00    +0.000 OA
BRANCH  21  22
ATOM     22  C   UNL     1      47.155   4.196  16.303  0.00  0.00    +0.000 C 
ATOM     23  C   UNL     1      47.393   4.862  17.673  0.00  0.00    +0.000 C 
ATOM     24  N   UNL     1      47.644   3.550  18.288  0.00  0.00    +0.000 NA
ATOM     25  C   UNL     1      47.714   2.918  16.963  0.00  0.00    +0.000 C 
ATOM     26  H   UNL     1      46.883   3.208  18.872  0.00  0.00    +0.000 HD
ENDBRANCH  21  22
ENDBRANCH  19  21
ENDBRANCH  14  15
ENDBRANCH   1  14
TORSDOF 7
ENDMDL
MODEL 2
REMARK VINA RESULT:    -6.972      2.490      3.392
REMARK INTER + INTRA:         -10.692
REMARK INTER:                  -9.757
REMARK INTRA:                  -0.936
REMARK UNBOUND:                -0.867
REMARK  Name = 
REMARK  7 active torsions:
REMARK  status: ('A' for Active; 'I' for Inactive)
REMARK    1  A    between atoms: C_2  and  C_4
REMARK    2  A    between atoms: C_7  and  O_8
REMARK    3  A    between atoms: O_8  and  C_9
REMARK    4  A    between atoms: C_9  and  C_10
REMARK    5  A    between atoms: C_10  and  C_11
REMARK    6  A    between atoms: C_15  and  O_16
REMARK    7  A    between atoms: O_16  and  C_17
REMARK                            x       y       z     vdW  Elec       q    Type
REMARK                         _______ _______ _______ _____ _____    ______ ____
ROOT
ATOM      1  C   UNL     1      43.201   4.854  10.808  0.00  0.00    +0.000 C 
ENDROOT
BRANCH   1   2
ATOM      2  O   UNL     1      43.473   3.452  10.665  0.00  0.00    +0.000 OA
BRANCH   2   6
ATOM      3  C   UNL     1      46.326   2.794   7.757  0.00  0.00    +0.000 A 
ATOM      4  C   UNL     1      45.925   4.101   8.045  0.00  0.00    +0.000 A 
ATOM      5  C   UNL     1      44.951   4.315   9.027  0.00  0.00    +0.000 A 
ATOM      6  C   UNL     1      44.418   3.215   9.682  0.00  0.00    +0.000 A 
ATOM      7  N   UNL     1      44.780   1.943   9.409  0.00  0.00    +0.000 NA
ATOM      8  C   UNL     1      45.716   1.758   8.448  0.00  0.00    +0.000 A 
BRANCH   3  10
ATOM      9  N   UNL     1      47.342   3.144   5.579  0.00  0.00    +0.000 N 
ATOM     10  C   UNL     1      47.354   2.451   6.756  0.00  0.00    +0.000 C 
ATOM     11  O   UNL     1      48.217   1.611   6.986  0.00  0.00    +0.000 OA
ATOM     12  H   UNL     1      48.131   2.987   4.964  0.00  0.00    +0.000 HD
ATOM     13  H   UNL     1      46.829   4.008   5.465  0.00  0.00    +0.000 HD
ENDBRANCH   3  10
ENDBRANCH   2   6
ENDBRANCH   1   2
BRANCH   1  14
ATOM     14  C   UNL     1      43.337   5.273  12.272  0.00  0.00    +0.000 C 
BRANCH  14  15
ATOM     15  C   UNL     1      44.788   5.444  12.654  0.00  0.00    +0.000 A 
ATOM     16  C   UNL     1      45.481   4.419  13.309  0.00  0.00    +0.000 A 
ATOM     17  C   UNL     1      46.840   4.559  13.601  0.00  0.00    +0.000 A 
ATOM     18  C   UNL     1      47.525   5.723  13.242  0.00  0.00    +0.000 A 
ATOM     19  C   UNL     1      46.846   6.751  12.595  0.00  0.00    +0.000 A 
ATOM     20  C   UNL     1      45.487   6.607  12.296  0.00  0.00    +0.000 A 
BRANCH  19  21
ATOM     21  O   UNL     1      47.419   7.922  12.164  0.00  0.00    +0.000 OA
BRANCH  21  22
ATOM     22  C   UNL     1      47.183   9.138  12.912  0.00  0.00    +0.000 C 
ATOM     23  C   UNL     1      47.965  10.401  12.499  0.00  0.00    +0.000 C 
ATOM     24  N   UNL     1      48.443  10.578  13.878  0.00  0.00    +0.000 NA
ATOM     25  C   UNL     1      47.960   9.238  14.241  0.00  0.00    +0.000 C 
ATOM     26  H   UNL     1      47.989  11.335  14.385  0.00  0.00    +0.000 HD
ENDBRANCH  21  22
ENDBRANCH  19  21
ENDBRANCH  14  15
ENDBRANCH   1  14
TORSDOF 7
ENDMDL
MODEL 3
REMARK VINA RESULT:    -6.741      2.489      3.696
REMARK INTER + INTRA:         -10.367
REMARK INTER:                  -9.698
REMARK INTRA:                  -0.668
REMARK UNBOUND:                -0.867
REMARK  Name = 
REMARK  7 active torsions:
REMARK  status: ('A' for Active; 'I' for Inactive)
REMARK    1  A    between atoms: C_2  and  C_4
REMARK    2  A    between atoms: C_7  and  O_8
REMARK    3  A    between atoms: O_8  and  C_9
REMARK    4  A    between atoms: C_9  and  C_10
REMARK    5  A    between atoms: C_10  and  C_11
REMARK    6  A    between atoms: C_15  and  O_16
REMARK    7  A    between atoms: O_16  and  C_17
REMARK                            x       y       z     vdW  Elec       q    Type
REMARK                         _______ _______ _______ _____ _____    ______ ____
ROOT
ATOM      1  C   UNL     1      44.147   4.726  10.985  0.00  0.00    +0.000 C 
ENDROOT
BRANCH   1   2
ATOM      2  O   UNL     1      43.744   4.519   9.623  0.00  0.00    +0.000 OA
BRANCH   2   6
ATOM      3  C   UNL     1      46.566   2.399   7.486  0.00  0.00    +0.000 A 
ATOM      4  C   UNL     1      45.787   1.740   8.441  0.00  0.00    +0.000 A 
ATOM      5  C   UNL     1      44.838   2.468   9.167  0.00  0.00    +0.000 A 
ATOM      6  C   UNL     1      44.704   3.824   8.909  0.00  0.00    +0.000 A 
ATOM      7  N   UNL     1      45.457   4.483   8.002  0.00  0.00    +0.000 NA
ATOM      8  C   UNL     1      46.376   3.762   7.319  0.00  0.00    +0.000 A 
BRANCH   3  10
ATOM      9  N   UNL     1      48.711   2.439   6.348  0.00  0.00    +0.000 N 
ATOM     10  C   UNL     1      47.583   1.731   6.652  0.00  0.00    +0.000 C 
ATOM     11  O   UNL     1      47.448   0.569   6.284  0.00  0.00    +0.000 OA
ATOM     12  H   UNL     1      49.451   1.920   5.889  0.00  0.00    +0.000 HD
ATOM     13  H   UNL     1      48.973   3.279   6.846  0.00  0.00    +0.000 HD
ENDBRANCH   3  10
ENDBRANCH   2   6
ENDBRANCH   1   2
BRANCH   1  14
ATOM     14  C   UNL     1      45.143   5.883  11.071  0.00  0.00    +0.000 C 
BRANCH  14  15
ATOM     15  C   UNL     1      46.020   5.752  12.294  0.00  0.00    +0.000 A 
ATOM     16  C   UNL     1      45.693   4.851  13.315  0.00  0.00    +0.000 A 
ATOM     17  C   UNL     1      46.542   4.687  14.412  0.00  0.00    +0.000 A 
ATOM     18  C   UNL     1      47.729   5.419  14.504  0.00  0.00    +0.000 A 
ATOM     19  C   UNL     1      48.063   6.321  13.498  0.00  0.00    +0.000 A 
ATOM     20  C   UNL     1      47.216   6.478  12.396  0.00  0.00    +0.000 A 
BRANCH  19  21
ATOM     21  O   UNL     1      49.215   7.066  13.461  0.00  0.00    +0.000 OA
BRANCH  21  22
ATOM     22  C   UNL     1      49.370   8.072  12.433  0.00  0.00    +0.000 C 
ATOM     23  C   UNL     1      50.487   7.870  11.389  0.00  0.00    +0.000 C 
ATOM     24  N   UNL     1      51.024   9.208  11.677  0.00  0.00    +0.000 NA
ATOM     25  C   UNL     1      50.168   9.320  12.867  0.00  0.00    +0.000 C 
ATOM     26  H   UNL     1      50.828   9.902  10.958  0.00  0.00    +0.000 HD
ENDBRANCH  21  22
ENDBRANCH  19  21
ENDBRANCH  14  15
ENDBRANCH   1  14
TORSDOF 7
ENDMDL
MODEL 4
REMARK VINA RESULT:    -6.715      2.707      3.107
REMARK INTER + INTRA:         -10.330
REMARK INTER:                  -9.781
REMARK INTRA:                  -0.549
REMARK UNBOUND:                -0.867
REMARK  Name = 
REMARK  7 active torsions:
REMARK  status: ('A' for Active; 'I' for Inactive)
REMARK    1  A    between atoms: C_2  and  C_4
REMARK    2  A    between atoms: C_7  and  O_8
REMARK    3  A    between atoms: O_8  and  C_9
REMARK    4  A    between atoms: C_9  and  C_10
REMARK    5  A    between atoms: C_10  and  C_11
REMARK    6  A    between atoms: C_15  and  O_16
REMARK    7  A    between atoms: O_16  and  C_17
REMARK                            x       y       z     vdW  Elec       q    Type
REMARK                         _______ _______ _______ _____ _____    ______ ____
ROOT
ATOM      1  C   UNL     1      43.831   4.316  10.502  0.00  0.00    +0.000 C 
ENDROOT
BRANCH   1   2
ATOM      2  O   UNL     1      43.799   2.957  10.045  0.00  0.00    +0.000 OA
BRANCH   2   6
ATOM      3  C   UNL     1      46.680   2.323   7.159  0.00  0.00    +0.000 A 
ATOM      4  C   UNL     1      46.020   3.553   7.215  0.00  0.00    +0.000 A 
ATOM      5  C   UNL     1      45.039   3.757   8.191  0.00  0.00    +0.000 A 
ATOM      6  C   UNL     1      44.757   2.724   9.073  0.00  0.00    +0.000 A 
ATOM      7  N   UNL     1      45.372   1.523   9.027  0.00  0.00    +0.000 NA
ATOM      8  C   UNL     1      46.310   1.343   8.068  0.00  0.00    +0.000 A 
BRANCH   3  10
ATOM      9  N   UNL     1      48.916   2.691   6.285  0.00  0.00    +0.000 N 
ATOM     10  C   UNL     1      47.741   2.002   6.185  0.00  0.00    +0.000 C 
ATOM     11  O   UNL     1      47.596   1.118   5.348  0.00  0.00    +0.000 OA
ATOM     12  H   UNL     1      49.673   2.366   5.696  0.00  0.00    +0.000 HD
ATOM     13  H   UNL     1      49.164   3.221   7.109  0.00  0.00    +0.000 HD
ENDBRANCH   3  10
ENDBRANCH   2   6
ENDBRANCH   1   2
BRANCH   1  14
ATOM     14  C   UNL     1      44.922   4.494  11.558  0.00  0.00    +0.000 C 
BRANCH  14  15
ATOM     15  C   UNL     1      45.202   5.957  11.808  0.00  0.00    +0.000 A 
ATOM     16  C   UNL     1      44.428   6.947  11.191  0.00  0.00    +0.000 A 
ATOM     17  C   UNL     1      44.649   8.297  11.477  0.00  0.00    +0.000 A 
ATOM     18  C   UNL     1      45.644   8.675  12.382  0.00  0.00    +0.000 A 
ATOM     19  C   UNL     1      46.423   7.700  12.998  0.00  0.00    +0.000 A 
ATOM     20  C   UNL     1      46.195   6.349  12.718  0.00  0.00    +0.000 A 
BRANCH  19  21
ATOM     21  O   UNL     1      47.402   7.948  13.928  0.00  0.00    +0.000 OA
BRANCH  21  22
ATOM     22  C   UNL     1      48.705   8.388  13.478  0.00  0.00    +0.000 C 
ATOM     23  C   UNL     1      49.128   8.031  12.039  0.00  0.00    +0.000 C 
ATOM     24  N   UNL     1      50.374   7.427  12.535  0.00  0.00    +0.000 NA
ATOM     25  C   UNL     1      49.877   7.486  13.917  0.00  0.00    +0.000 C 
ATOM     26  H   UNL     1      51.207   7.989  12.369  0.00  0.00    +0.000 HD
ENDBRANCH  21  22
ENDBRANCH  19  21
ENDBRANCH  14  15
ENDBRANCH   1  14
TORSDOF 7
ENDMDL
MODEL 5
REMARK VINA RESULT:    -6.497      1.997      8.371
REMARK INTER + INTRA:         -10.023
REMARK INTER:                  -9.520
REMARK INTRA:                  -0.503
REMARK UNBOUND:                -0.867
REMARK  Name = 
REMARK  7 active torsions:
REMARK  status: ('A' for Active; 'I' for Inactive)
REMARK    1  A    between atoms: C_2  and  C_4
REMARK    2  A    between atoms: C_7  and  O_8
REMARK    3  A    between atoms: O_8  and  C_9
REMARK    4  A    between atoms: C_9  and  C_10
REMARK    5  A    between atoms: C_10  and  C_11
REMARK    6  A    between atoms: C_15  and  O_16
REMARK    7  A    between atoms: O_16  and  C_17
REMARK                            x       y       z     vdW  Elec       q    Type
REMARK                         _______ _______ _______ _____ _____    ______ ____
ROOT
ATOM      1  C   UNL     1      45.954   5.937  12.772  0.00  0.00    +0.000 C 
ENDROOT
BRANCH   1   2
ATOM      2  O   UNL     1      47.186   6.454  13.297  0.00  0.00    +0.000 OA
BRANCH   2   6
ATOM      3  C   UNL     1      48.373   4.453  16.704  0.00  0.00    +0.000 A 
ATOM      4  C   UNL     1      48.856   5.740  16.458  0.00  0.00    +0.000 A 
ATOM      5  C   UNL     1      48.455   6.409  15.297  0.00  0.00    +0.000 A 
ATOM      6  C   UNL     1      47.586   5.765  14.428  0.00  0.00    +0.000 A 
ATOM      7  N   UNL     1      47.120   4.515  14.639  0.00  0.00    +0.000 NA
ATOM      8  C   UNL     1      47.529   3.883  15.763  0.00  0.00    +0.000 A 
BRANCH   3  10
ATOM      9  N   UNL     1      48.083   3.982  19.069  0.00  0.00    +0.000 N 
ATOM     10  C   UNL     1      48.714   3.661  17.902  0.00  0.00    +0.000 C 
ATOM     11  O   UNL     1      49.497   2.719  17.846  0.00  0.00    +0.000 OA
ATOM     12  H   UNL     1      48.231   3.347  19.844  0.00  0.00    +0.000 HD
ATOM     13  H   UNL     1      47.253   4.559  19.094  0.00  0.00    +0.000 HD
ENDBRANCH   3  10
ENDBRANCH   2   6
ENDBRANCH   1   2
BRANCH   1  14
ATOM     14  C   UNL     1      45.802   6.324  11.300  0.00  0.00    +0.000 C 
BRANCH  14  15
ATOM     15  C   UNL     1      45.418   5.127  10.463  0.00  0.00    +0.000 A 
ATOM     16  C   UNL     1      44.525   4.168  10.955  0.00  0.00    +0.000 A 
ATOM     17  C   UNL     1      44.122   3.098  10.151  0.00  0.00    +0.000 A 
ATOM     18  C   UNL     1      44.606   2.973   8.845  0.00  0.00    +0.000 A 
ATOM     19  C   UNL     1      45.497   3.918   8.346  0.00  0.00    +0.000 A 
ATOM     20  C   UNL     1      45.893   4.993   9.150  0.00  0.00    +0.000 A 
BRANCH  19  21
ATOM     21  O   UNL     1      46.010   3.920   7.073  0.00  0.00    +0.000 OA
BRANCH  21  22
ATOM     22  C   UNL     1      46.582   2.702   6.543  0.00  0.00    +0.000 C 
ATOM     23  C   UNL     1      48.071   2.420   6.831  0.00  0.00    +0.000 C 
ATOM     24  N   UNL     1      48.333   2.238   5.396  0.00  0.00    +0.000 NA
ATOM     25  C   UNL     1      47.009   2.781   5.062  0.00  0.00    +0.000 C 
ATOM     26  H   UNL     1      48.468   1.268   5.115  0.00  0.00    +0.000 HD
ENDBRANCH  21  22
ENDBRANCH  19  21
ENDBRANCH  14  15
ENDBRANCH   1  14
TORSDOF 7
ENDMDL
MODEL 6
REMARK VINA RESULT:    -6.459      2.044      2.444
REMARK INTER + INTRA:          -9.969
REMARK INTER:                  -9.192
REMARK INTRA:                  -0.777
REMARK UNBOUND:                -0.867
REMARK  Name = 
REMARK  7 active torsions:
REMARK  status: ('A' for Active; 'I' for Inactive)
REMARK    1  A    between atoms: C_2  and  C_4
REMARK    2  A    between atoms: C_7  and  O_8
REMARK    3  A    between atoms: O_8  and  C_9
REMARK    4  A    between atoms: C_9  and  C_10
REMARK    5  A    between atoms: C_10  and  C_11
REMARK    6  A    between atoms: C_15  and  O_16
REMARK    7  A    between atoms: O_16  and  C_17
REMARK                            x       y       z     vdW  Elec       q    Type
REMARK                         _______ _______ _______ _____ _____    ______ ____
ROOT
ATOM      1  C   UNL     1      44.855   5.614  10.950  0.00  0.00    +0.000 C 
ENDROOT
BRANCH   1   2
ATOM      2  O   UNL     1      44.177   4.473  10.406  0.00  0.00    +0.000 OA
BRANCH   2   6
ATOM      3  C   UNL     1      46.561   2.541   7.647  0.00  0.00    +0.000 A 
ATOM      4  C   UNL     1      46.487   3.936   7.635  0.00  0.00    +0.000 A 
ATOM      5  C   UNL     1      45.670   4.583   8.569  0.00  0.00    +0.000 A 
ATOM      6  C   UNL     1      44.961   3.810   9.477  0.00  0.00    +0.000 A 
ATOM      7  N   UNL     1      45.007   2.461   9.496  0.00  0.00    +0.000 NA
ATOM      8  C   UNL     1      45.795   1.855   8.577  0.00  0.00    +0.000 A 
BRANCH   3  10
ATOM      9  N   UNL     1      48.491   2.374   6.181  0.00  0.00    +0.000 N 
ATOM     10  C   UNL     1      47.401   1.755   6.722  0.00  0.00    +0.000 C 
ATOM     11  O   UNL     1      47.161   0.576   6.484  0.00  0.00    +0.000 OA
ATOM     12  H   UNL     1      49.124   1.782   5.657  0.00  0.00    +0.000 HD
ATOM     13  H   UNL     1      48.865   3.236   6.555  0.00  0.00    +0.000 HD
ENDBRANCH   3  10
ENDBRANCH   2   6
ENDBRANCH   1   2
BRANCH   1  14
ATOM     14  C   UNL     1      45.538   5.246  12.268  0.00  0.00    +0.000 C 
BRANCH  14  15
ATOM     15  C   UNL     1      46.827   6.013  12.443  0.00  0.00    +0.000 A 
ATOM     16  C   UNL     1      47.277   6.890  11.449  0.00  0.00    +0.000 A 
ATOM     17  C   UNL     1      48.436   7.646  11.645  0.00  0.00    +0.000 A 
ATOM     18  C   UNL     1      49.159   7.537  12.836  0.00  0.00    +0.000 A 
ATOM     19  C   UNL     1      48.724   6.665  13.830  0.00  0.00    +0.000 A 
ATOM     20  C   UNL     1      47.559   5.915  13.636  0.00  0.00    +0.000 A 
BRANCH  19  21
ATOM     21  O   UNL     1      49.329   6.500  15.051  0.00  0.00    +0.000 OA
BRANCH  21  22
ATOM     22  C   UNL     1      49.714   7.670  15.809  0.00  0.00    +0.000 C 
ATOM     23  C   UNL     1      49.973   7.498  17.320  0.00  0.00    +0.000 C 
ATOM     24  N   UNL     1      49.025   8.580  17.624  0.00  0.00    +0.000 NA
ATOM     25  C   UNL     1      48.541   8.576  16.237  0.00  0.00    +0.000 C 
ATOM     26  H   UNL     1      49.465   9.454  17.909  0.00  0.00    +0.000 HD
ENDBRANCH  21  22
ENDBRANCH  19  21
ENDBRANCH  14  15
ENDBRANCH   1  14
TORSDOF 7
ENDMDL
MODEL 7
REMARK VINA RESULT:    -6.409      2.082      7.839
REMARK INTER + INTRA:          -9.899
REMARK INTER:                  -9.200
REMARK INTRA:                  -0.699
REMARK UNBOUND:                -0.867
REMARK  Name = 
REMARK  7 active torsions:
REMARK  status: ('A' for Active; 'I' for Inactive)
REMARK    1  A    between atoms: C_2  and  C_4
REMARK    2  A    between atoms: C_7  and  O_8
REMARK    3  A    between atoms: O_8  and  C_9
REMARK    4  A    between atoms: C_9  and  C_10
REMARK    5  A    between atoms: C_10  and  C_11
REMARK    6  A    between atoms: C_15  and  O_16
REMARK    7  A    between atoms: O_16  and  C_17
REMARK                            x       y       z     vdW  Elec       q    Type
REMARK                         _______ _______ _______ _____ _____    ______ ____
ROOT
ATOM      1  C   UNL     1      44.415   3.521  13.063  0.00  0.00    +0.000 C 
ENDROOT
BRANCH   1   2
ATOM      2  O   UNL     1      45.799   3.144  13.033  0.00  0.00    +0.000 OA
BRANCH   2   6
ATOM      3  C   UNL     1      48.078   5.729  15.303  0.00  0.00    +0.000 A 
ATOM      4  C   UNL     1      47.743   6.076  13.991  0.00  0.00    +0.000 A 
ATOM      5  C   UNL     1      46.977   5.191  13.226  0.00  0.00    +0.000 A 
ATOM      6  C   UNL     1      46.575   3.994  13.802  0.00  0.00    +0.000 A 
ATOM      7  N   UNL     1      46.900   3.632  15.061  0.00  0.00    +0.000 NA
ATOM      8  C   UNL     1      47.651   4.499  15.780  0.00  0.00    +0.000 A 
BRANCH   3  10
ATOM      9  N   UNL     1      48.234   7.090  17.308  0.00  0.00    +0.000 N 
ATOM     10  C   UNL     1      48.866   6.590  16.206  0.00  0.00    +0.000 C 
ATOM     11  O   UNL     1      50.056   6.810  16.005  0.00  0.00    +0.000 OA
ATOM     12  H   UNL     1      48.823   7.567  17.980  0.00  0.00    +0.000 HD
ATOM     13  H   UNL     1      47.354   6.720  17.642  0.00  0.00    +0.000 HD
ENDBRANCH   3  10
ENDBRANCH   2   6
ENDBRANCH   1   2
BRANCH   1  14
ATOM     14  C   UNL     1      43.731   3.131  11.752  0.00  0.00    +0.000 C 
BRANCH  14  15
ATOM     15  C   UNL     1      44.470   3.704  10.566  0.00  0.00    +0.000 A 
ATOM     16  C   UNL     1      44.861   5.049  10.548  0.00  0.00    +0.000 A 
ATOM     17  C   UNL     1      45.600   5.556   9.477  0.00  0.00    +0.000 A 
ATOM     18  C   UNL     1      45.960   4.729   8.410  0.00  0.00    +0.000 A 
ATOM     19  C   UNL     1      45.574   3.391   8.413  0.00  0.00    +0.000 A 
ATOM     20  C   UNL     1      44.840   2.882   9.491  0.00  0.00    +0.000 A 
BRANCH  19  21
ATOM     21  O   UNL     1      45.897   2.477   7.442  0.00  0.00    +0.000 OA
BRANCH  21  22
ATOM     22  C   UNL     1      46.904   2.820   6.461  0.00  0.00    +0.000 C 
ATOM     23  C   UNL     1      46.861   2.093   5.101  0.00  0.00    +0.000 C 
ATOM     24  N   UNL     1      48.269   1.694   5.250  0.00  0.00    +0.000 NA
ATOM     25  C   UNL     1      48.263   2.115   6.658  0.00  0.00    +0.000 C 
ATOM     26  H   UNL     1      48.917   2.215   4.663  0.00  0.00    +0.000 HD
ENDBRANCH  21  22
ENDBRANCH  19  21
ENDBRANCH  14  15
ENDBRANCH   1  14
TORSDOF 7
ENDMDL
MODEL 8
REMARK VINA RESULT:    -6.344      3.134      7.619
REMARK INTER + INTRA:          -9.808
REMARK INTER:                  -9.044
REMARK INTRA:                  -0.763
REMARK UNBOUND:                -0.867
REMARK  Name = 
REMARK  7 active torsions:
REMARK  status: ('A' for Active; 'I' for Inactive)
REMARK    1  A    between atoms: C_2  and  C_4
REMARK    2  A    between atoms: C_7  and  O_8
REMARK    3  A    between atoms: O_8  and  C_9
REMARK    4  A    between atoms: C_9  and  C_10
REMARK    5  A    between atoms: C_10  and  C_11
REMARK    6  A    between atoms: C_15  and  O_16
REMARK    7  A    between atoms: O_16  and  C_17
REMARK                            x       y       z     vdW  Elec       q    Type
REMARK                         _______ _______ _______ _____ _____    ______ ____
ROOT
ATOM      1  C   UNL     1      49.469   7.179  13.134  0.00  0.00    +0.000 C 
ENDROOT
BRANCH   1   2
ATOM      2  O   UNL     1      49.273   7.614  14.488  0.00  0.00    +0.000 OA
BRANCH   2   6
ATOM      3  C   UNL     1      48.161   4.528  16.991  0.00  0.00    +0.000 A 
ATOM      4  C   UNL     1      49.138   5.436  17.408  0.00  0.00    +0.000 A 
ATOM      5  C   UNL     1      49.515   6.475  16.551  0.00  0.00    +0.000 A 
ATOM      6  C   UNL     1      48.900   6.566  15.310  0.00  0.00    +0.000 A 
ATOM      7  N   UNL     1      47.966   5.691  14.881  0.00  0.00    +0.000 NA
ATOM      8  C   UNL     1      47.624   4.687  15.722  0.00  0.00    +0.000 A 
BRANCH   3  10
ATOM      9  N   UNL     1      48.352   3.133  18.970  0.00  0.00    +0.000 N 
ATOM     10  C   UNL     1      47.674   3.406  17.816  0.00  0.00    +0.000 C 
ATOM     11  O   UNL     1      46.672   2.771  17.507  0.00  0.00    +0.000 OA
ATOM     12  H   UNL     1      47.926   2.450  19.584  0.00  0.00    +0.000 HD
ATOM     13  H   UNL     1      49.001   3.789  19.384  0.00  0.00    +0.000 HD
ENDBRANCH   3  10
ENDBRANCH   2   6
ENDBRANCH   1   2
BRANCH   1  14
ATOM     14  C   UNL     1      48.754   8.123  12.167  0.00  0.00    +0.000 C 
BRANCH  14  15
ATOM     15  C   UNL     1      47.306   7.729  11.997  0.00  0.00    +0.000 A 
ATOM     16  C   UNL     1      46.297   8.700  11.991  0.00  0.00    +0.000 A 
ATOM     17  C   UNL     1      44.966   8.336  11.768  0.00  0.00    +0.000 A 
ATOM     18  C   UNL     1      44.626   6.998  11.548  0.00  0.00    +0.000 A 
ATOM     19  C   UNL     1      45.619   6.023  11.556  0.00  0.00    +0.000 A 
ATOM     20  C   UNL     1      46.952   6.390  11.771  0.00  0.00    +0.000 A 
BRANCH  19  21
ATOM     21  O   UNL     1      45.412   4.687  11.317  0.00  0.00    +0.000 OA
BRANCH  21  22
ATOM     22  C   UNL     1      44.056   4.197  11.192  0.00  0.00    +0.000 C 
ATOM     23  C   UNL     1      43.415   3.529  12.425  0.00  0.00    +0.000 C 
ATOM     24  N   UNL     1      43.083   2.337  11.630  0.00  0.00    +0.000 NA
ATOM     25  C   UNL     1      43.931   2.811  10.527  0.00  0.00    +0.000 C 
ATOM     26  H   UNL     1      42.097   2.255  11.390  0.00  0.00    +0.000 HD
ENDBRANCH  21  22
ENDBRANCH  19  21
ENDBRANCH  14  15
ENDBRANCH   1  14
TORSDOF 7
ENDMDL
MODEL 9
REMARK VINA RESULT:    -5.974      2.911      4.748
REMARK INTER + INTRA:          -9.285
REMARK INTER:                  -8.378
REMARK INTRA:                  -0.907
REMARK UNBOUND:                -0.867
REMARK  Name = 
REMARK  7 active torsions:
REMARK  status: ('A' for Active; 'I' for Inactive)
REMARK    1  A    between atoms: C_2  and  C_4
REMARK    2  A    between atoms: C_7  and  O_8
REMARK    3  A    between atoms: O_8  and  C_9
REMARK    4  A    between atoms: C_9  and  C_10
REMARK    5  A    between atoms: C_10  and  C_11
REMARK    6  A    between atoms: C_15  and  O_16
REMARK    7  A    between atoms: O_16  and  C_17
REMARK                            x       y       z     vdW  Elec       q    Type
REMARK                         _______ _______ _______ _____ _____    ______ ____
ROOT
ATOM      1  C   UNL     1      46.441   8.586  13.203  0.00  0.00    +0.000 C 
ENDROOT
BRANCH   1   2
ATOM      2  O   UNL     1      45.983   8.294  11.875  0.00  0.00    +0.000 OA
BRANCH   2   6
ATOM      3  C   UNL     1      44.508   4.449  11.606  0.00  0.00    +0.000 A 
ATOM      4  C   UNL     1      44.325   5.176  12.785  0.00  0.00    +0.000 A 
ATOM      5  C   UNL     1      44.835   6.476  12.871  0.00  0.00    +0.000 A 
ATOM      6  C   UNL     1      45.507   6.998  11.775  0.00  0.00    +0.000 A 
ATOM      7  N   UNL     1      45.708   6.307  10.632  0.00  0.00    +0.000 NA
ATOM      8  C   UNL     1      45.216   5.048  10.575  0.00  0.00    +0.000 A 
BRANCH   3  10
ATOM      9  N   UNL     1      43.721   2.336  12.508  0.00  0.00    +0.000 N 
ATOM     10  C   UNL     1      44.000   3.080  11.397  0.00  0.00    +0.000 C 
ATOM     11  O   UNL     1      43.790   2.639  10.272  0.00  0.00    +0.000 OA
ATOM     12  H   UNL     1      43.251   1.453  12.345  0.00  0.00    +0.000 HD
ATOM     13  H   UNL     1      43.626   2.749  13.426  0.00  0.00    +0.000 HD
ENDBRANCH   3  10
ENDBRANCH   2   6
ENDBRANCH   1   2
BRANCH   1  14
ATOM     14  C   UNL     1      47.960   8.428  13.286  0.00  0.00    +0.000 C 
BRANCH  14  15
ATOM     15  C   UNL     1      48.388   8.045  14.682  0.00  0.00    +0.000 A 
ATOM     16  C   UNL     1      48.474   9.009  15.694  0.00  0.00    +0.000 A 
ATOM     17  C   UNL     1      48.807   8.638  16.999  0.00  0.00    +0.000 A 
ATOM     18  C   UNL     1      49.058   7.299  17.311  0.00  0.00    +0.000 A 
ATOM     19  C   UNL     1      48.980   6.331  16.314  0.00  0.00    +0.000 A 
ATOM     20  C   UNL     1      48.638   6.703  15.009  0.00  0.00    +0.000 A 
BRANCH  19  21
ATOM     21  O   UNL     1      49.170   4.986  16.508  0.00  0.00    +0.000 OA
BRANCH  21  22
ATOM     22  C   UNL     1      48.439   4.317  17.562  0.00  0.00    +0.000 C 
ATOM     23  C   UNL     1      48.348   2.778  17.512  0.00  0.00    +0.000 C 
ATOM     24  N   UNL     1      46.883   2.843  17.612  0.00  0.00    +0.000 NA
ATOM     25  C   UNL     1      46.908   4.292  17.370  0.00  0.00    +0.000 C 
ATOM     26  H   UNL     1      46.513   2.580  18.524  0.00  0.00    +0.000 HD
ENDBRANCH  21  22
ENDBRANCH  19  21
ENDBRANCH  14  15
ENDBRANCH   1  14
TORSDOF 7
ENDMDL
