MODEL 1
REMARK VINA RESULT:    -8.379      0.000      0.000
REMARK INTER + INTRA:         -12.482
REMARK INTER:                 -11.318
REMARK INTRA:                  -1.164
REMARK UNBOUND:                -1.164
REMARK  Name = 
REMARK  6 active torsions:
REMARK  status: ('A' for Active; 'I' for Inactive)
REMARK    1  A    between atoms: C_2  and  C_25
REMARK    2  A    between atoms: N_3  and  C_4
REMARK    3  A    between atoms: C_4  and  C_5
REMARK    4  A    between atoms: C_8  and  C_9
REMARK    5  A    between atoms: C_9  and  N_10
REMARK    6  A    between atoms: C_11  and  C_13
REMARK                            x       y       z     vdW  Elec       q    Type
REMARK                         _______ _______ _______ _____ _____    ______ ____
ROOT
ATOM      1  C   UNL     1      44.760   5.554  10.759  0.00  0.00    +0.000 A 
ATOM      2  C   UNL     1      44.157   6.122  11.890  0.00  0.00    +0.000 A 
ATOM      3  C   UNL     1      44.884   6.964  12.737  0.00  0.00    +0.000 A 
ATOM      4  C   UNL     1      46.223   7.272  12.459  0.00  0.00    +0.000 A 
ATOM      5  C   UNL     1      46.829   6.691  11.337  0.00  0.00    +0.000 A 
ATOM      6  C   UNL     1      46.102   5.850  10.490  0.00  0.00    +0.000 A 
ENDROOT
BRANCH   1   7
ATOM      7  C   UNL     1      43.976   4.656   9.841  0.00  0.00    +0.000 C 
BRANCH   7  10
ATOM      8  O   UNL     1      45.097   2.088   9.826  0.00  0.00    +0.000 OA
ATOM      9  C   UNL     1      45.286   2.826   8.864  0.00  0.00    +0.000 C 
ATOM     10  N   UNL     1      44.792   4.109   8.788  0.00  0.00    +0.000 N 
ATOM     11  H   UNL     1      45.002   4.647   7.951  0.00  0.00    +0.000 HD
BRANCH   9  12
ATOM     12  C   UNL     1      46.076   2.371   7.674  0.00  0.00    +0.000 A 
ATOM     13  C   UNL     1      46.235   3.229   6.592  0.00  0.00    +0.000 A 
ATOM     14  C   UNL     1      46.988   2.789   5.507  0.00  0.00    +0.000 A 
ATOM     15  C   UNL     1      47.552   1.519   5.542  0.00  0.00    +0.000 A 
ATOM     16  C   UNL     1      47.337   0.730   6.664  0.00  0.00    +0.000 A 
ATOM     17  N   UNL     1      46.613   1.119   7.736  0.00  0.00    +0.000 NA
ENDBRANCH   9  12
ENDBRANCH   7  10
ENDBRANCH   1   7
BRANCH   4  18
ATOM     18  C   UNL     1      47.012   8.183  13.362  0.00  0.00    +0.000 C 
BRANCH  18  19
ATOM     19  N   UNL     1      47.457   7.494  14.545  0.00  0.00    +0.000 N 
ATOM     20  C   UNL     1      48.691   6.895  14.592  0.00  0.00    +0.000 C 
ATOM     21  O   UNL     1      49.482   6.961  13.653  0.00  0.00    +0.000 OA
ATOM     22  H   UNL     1      46.751   7.240  15.227  0.00  0.00    +0.000 HD
BRANCH  20  23
ATOM     23  C   UNL     1      49.050   6.218  15.845  0.00  0.00    +0.000 A 
ATOM     24  C   UNL     1      50.135   6.673  16.584  0.00  0.00    +0.000 A 
ATOM     25  S   UNL     1      50.383   5.815  18.036  0.00  0.00    +0.000 S 
ATOM     26  C   UNL     1      49.082   4.771  17.705  0.00  0.00    +0.000 A 
ATOM     27  N   UNL     1      48.760   3.762  18.559  0.00  0.00    +0.000 NA
ATOM     28  C   UNL     1      47.773   3.027  18.169  0.00  0.00    +0.000 A 
ATOM     29  N   UNL     1      47.075   3.212  17.004  0.00  0.00    +0.000 N 
ATOM     30  C   UNL     1      47.345   4.232  16.124  0.00  0.00    +0.000 A 
ATOM     31  O   UNL     1      46.678   4.391  15.107  0.00  0.00    +0.000 OA
ATOM     32  C   UNL     1      48.457   5.083  16.511  0.00  0.00    +0.000 A 
ATOM     33  H   UNL     1      46.308   2.603  16.759  0.00  0.00    +0.000 HD
ENDBRANCH  20  23
ENDBRANCH  18  19
ENDBRANCH   4  18
TORSDOF 6
ENDMDL
MODEL 2
REMARK VINA RESULT:    -7.879      1.701      1.883
REMARK INTER + INTRA:         -11.807
REMARK INTER:                 -10.970
REMARK INTRA:                  -0.837
REMARK UNBOUND:                -1.164
REMARK  Name = 
REMARK  6 active torsions:
REMARK  status: ('A' for Active; 'I' for Inactive)
REMARK    1  A    between atoms: C_2  and  C_25
REMARK    2  A    between atoms: N_3  and  C_4
REMARK    3  A    between atoms: C_4  and  C_5
REMARK    4  A    between atoms: C_8  and  C_9
REMARK    5  A    between atoms: C_9  and  N_10
REMARK    6  A    between atoms: C_11  and  C_13
REMARK                            x       y       z     vdW  Elec       q    Type
REMARK                         _______ _______ _______ _____ _____    ______ ____
ROOT
ATOM      1  C   UNL     1      45.544   4.611  12.012  0.00  0.00    +0.000 A 
ATOM      2  C   UNL     1      46.181   4.393  13.241  0.00  0.00    +0.000 A 
ATOM      3  C   UNL     1      46.975   5.389  13.818  0.00  0.00    +0.000 A 
ATOM      4  C   UNL     1      47.130   6.631  13.187  0.00  0.00    +0.000 A 
ATOM      5  C   UNL     1      46.506   6.842  11.951  0.00  0.00    +0.000 A 
ATOM      6  C   UNL     1      45.711   5.846  11.375  0.00  0.00    +0.000 A 
ENDROOT
BRANCH   1   7
ATOM      7  C   UNL     1      44.680   3.544  11.395  0.00  0.00    +0.000 C 
BRANCH   7  10
ATOM      8  O   UNL     1      44.325   4.153   8.684  0.00  0.00    +0.000 OA
ATOM      9  C   UNL     1      45.108   3.262   8.996  0.00  0.00    +0.000 C 
ATOM     10  N   UNL     1      45.336   2.880  10.299  0.00  0.00    +0.000 N 
ATOM     11  H   UNL     1      46.003   2.129  10.461  0.00  0.00    +0.000 HD
BRANCH   9  12
ATOM     12  C   UNL     1      45.897   2.517   7.962  0.00  0.00    +0.000 A 
ATOM     13  C   UNL     1      46.249   3.158   6.779  0.00  0.00    +0.000 A 
ATOM     14  C   UNL     1      46.998   2.450   5.844  0.00  0.00    +0.000 A 
ATOM     15  C   UNL     1      47.368   1.139   6.121  0.00  0.00    +0.000 A 
ATOM     16  C   UNL     1      46.968   0.580   7.328  0.00  0.00    +0.000 A 
ATOM     17  N   UNL     1      46.241   1.232   8.261  0.00  0.00    +0.000 NA
ENDBRANCH   9  12
ENDBRANCH   7  10
ENDBRANCH   1   7
BRANCH   4  18
ATOM     18  C   UNL     1      47.978   7.712  13.804  0.00  0.00    +0.000 C 
BRANCH  18  19
ATOM     19  N   UNL     1      48.044   7.576  15.235  0.00  0.00    +0.000 N 
ATOM     20  C   UNL     1      49.173   7.094  15.848  0.00  0.00    +0.000 C 
ATOM     21  O   UNL     1      50.185   6.805  15.213  0.00  0.00    +0.000 OA
ATOM     22  H   UNL     1      47.166   7.593  15.743  0.00  0.00    +0.000 HD
BRANCH  20  23
ATOM     23  C   UNL     1      49.138   6.994  17.313  0.00  0.00    +0.000 A 
ATOM     24  C   UNL     1      49.236   8.147  18.082  0.00  0.00    +0.000 A 
ATOM     25  S   UNL     1      49.124   7.864  19.759  0.00  0.00    +0.000 S 
ATOM     26  C   UNL     1      48.992   6.185  19.523  0.00  0.00    +0.000 A 
ATOM     27  N   UNL     1      48.888   5.336  20.580  0.00  0.00    +0.000 NA
ATOM     28  C   UNL     1      48.829   4.087  20.258  0.00  0.00    +0.000 A 
ATOM     29  N   UNL     1      48.859   3.610  18.973  0.00  0.00    +0.000 N 
ATOM     30  C   UNL     1      48.936   4.430  17.873  0.00  0.00    +0.000 A 
ATOM     31  O   UNL     1      48.925   3.972  16.735  0.00  0.00    +0.000 OA
ATOM     32  C   UNL     1      49.017   5.847  18.181  0.00  0.00    +0.000 A 
ATOM     33  H   UNL     1      48.803   2.620  18.788  0.00  0.00    +0.000 HD
ENDBRANCH  20  23
ENDBRANCH  18  19
ENDBRANCH   4  18
TORSDOF 6
ENDMDL
MODEL 3
REMARK VINA RESULT:    -7.540      2.358      3.911
REMARK INTER + INTRA:         -11.348
REMARK INTER:                 -10.260
REMARK INTRA:                  -1.088
REMARK UNBOUND:                -1.164
REMARK  Name = 
REMARK  6 active torsions:
REMARK  status: ('A' for Active; 'I' for Inactive)
REMARK    1  A    between atoms: C_2  and  C_25
REMARK    2  A    between atoms: N_3  and  C_4
REMARK    3  A    between atoms: C_4  and  C_5
REMARK    4  A    between atoms: C_8  and  C_9
REMARK    5  A    between atoms: C_9  and  N_10
REMARK    6  A    between atoms: C_11  and  C_13
REMARK                            x       y       z     vdW  Elec       q    Type
REMARK                         _______ _______ _______ _____ _____    ______ ____
ROOT
ATOM      1  C   UNL     1      44.811   4.311  11.468  0.00  0.00    +0.000 A 
ATOM      2  C   UNL     1      45.386   3.187  12.077  0.00  0.00    +0.000 A 
ATOM      3  C   UNL     1      46.144   3.319  13.244  0.00  0.00    +0.000 A 
ATOM      4  C   UNL     1      46.325   4.575  13.838  0.00  0.00    +0.000 A 
ATOM      5  C   UNL     1      45.763   5.700  13.220  0.00  0.00    +0.000 A 
ATOM      6  C   UNL     1      45.005   5.568  12.053  0.00  0.00    +0.000 A 
ENDROOT
BRANCH   1   7
ATOM      7  C   UNL     1      43.986   4.169  10.217  0.00  0.00    +0.000 C 
BRANCH   7  10
ATOM      8  O   UNL     1      45.913   5.174   8.448  0.00  0.00    +0.000 OA
ATOM      9  C   UNL     1      45.611   3.987   8.388  0.00  0.00    +0.000 C 
ATOM     10  N   UNL     1      44.664   3.406   9.202  0.00  0.00    +0.000 N 
ATOM     11  H   UNL     1      44.480   2.413   9.078  0.00  0.00    +0.000 HD
BRANCH   9  12
ATOM     12  C   UNL     1      46.272   3.061   7.412  0.00  0.00    +0.000 A 
ATOM     13  C   UNL     1      46.581   1.763   7.803  0.00  0.00    +0.000 A 
ATOM     14  C   UNL     1      47.177   0.919   6.871  0.00  0.00    +0.000 A 
ATOM     15  C   UNL     1      47.441   1.395   5.592  0.00  0.00    +0.000 A 
ATOM     16  C   UNL     1      47.100   2.707   5.292  0.00  0.00    +0.000 A 
ATOM     17  N   UNL     1      46.522   3.559   6.167  0.00  0.00    +0.000 NA
ENDBRANCH   9  12
ENDBRANCH   7  10
ENDBRANCH   1   7
BRANCH   4  18
ATOM     18  C   UNL     1      47.134   4.726  15.099  0.00  0.00    +0.000 C 
BRANCH  18  19
ATOM     19  N   UNL     1      47.756   6.022  15.173  0.00  0.00    +0.000 N 
ATOM     20  C   UNL     1      48.904   6.215  15.900  0.00  0.00    +0.000 C 
ATOM     21  O   UNL     1      49.472   5.290  16.475  0.00  0.00    +0.000 OA
ATOM     22  H   UNL     1      47.194   6.822  14.902  0.00  0.00    +0.000 HD
BRANCH  20  23
ATOM     23  C   UNL     1      49.458   7.575  15.912  0.00  0.00    +0.000 A 
ATOM     24  C   UNL     1      49.618   8.241  17.121  0.00  0.00    +0.000 A 
ATOM     25  S   UNL     1      50.323   9.785  16.965  0.00  0.00    +0.000 S 
ATOM     26  C   UNL     1      50.392   9.643  15.272  0.00  0.00    +0.000 A 
ATOM     27  N   UNL     1      50.880  10.655  14.505  0.00  0.00    +0.000 NA
ATOM     28  C   UNL     1      50.844  10.426  13.235  0.00  0.00    +0.000 A 
ATOM     29  N   UNL     1      50.368   9.275  12.662  0.00  0.00    +0.000 N 
ATOM     30  C   UNL     1      49.892   8.216  13.396  0.00  0.00    +0.000 A 
ATOM     31  O   UNL     1      49.506   7.186  12.853  0.00  0.00    +0.000 OA
ATOM     32  C   UNL     1      49.899   8.427  14.833  0.00  0.00    +0.000 A 
ATOM     33  H   UNL     1      50.373   9.157  11.659  0.00  0.00    +0.000 HD
ENDBRANCH  20  23
ENDBRANCH  18  19
ENDBRANCH   4  18
TORSDOF 6
ENDMDL
MODEL 4
REMARK VINA RESULT:    -7.199      2.840      3.221
REMARK INTER + INTRA:         -10.889
REMARK INTER:                 -10.013
REMARK INTRA:                  -0.876
REMARK UNBOUND:                -1.164
REMARK  Name = 
REMARK  6 active torsions:
REMARK  status: ('A' for Active; 'I' for Inactive)
REMARK    1  A    between atoms: C_2  and  C_25
REMARK    2  A    between atoms: N_3  and  C_4
REMARK    3  A    between atoms: C_4  and  C_5
REMARK    4  A    between atoms: C_8  and  C_9
REMARK    5  A    between atoms: C_9  and  N_10
REMARK    6  A    between atoms: C_11  and  C_13
REMARK                            x       y       z     vdW  Elec       q    Type
REMARK                         _______ _______ _______ _____ _____    ______ ____
ROOT
ATOM      1  C   UNL     1      45.303   6.711  11.850  0.00  0.00    +0.000 A 
ATOM      2  C   UNL     1      45.048   8.078  12.028  0.00  0.00    +0.000 A 
ATOM      3  C   UNL     1      45.893   8.862  12.819  0.00  0.00    +0.000 A 
ATOM      4  C   UNL     1      47.021   8.300  13.431  0.00  0.00    +0.000 A 
ATOM      5  C   UNL     1      47.266   6.931  13.265  0.00  0.00    +0.000 A 
ATOM      6  C   UNL     1      46.423   6.147  12.473  0.00  0.00    +0.000 A 
ENDROOT
BRANCH   1   7
ATOM      7  C   UNL     1      44.402   5.867  10.990  0.00  0.00    +0.000 C 
BRANCH   7  10
ATOM      8  O   UNL     1      43.755   3.291  10.099  0.00  0.00    +0.000 OA
ATOM      9  C   UNL     1      44.729   3.860   9.617  0.00  0.00    +0.000 C 
ATOM     10  N   UNL     1      45.135   5.119  10.003  0.00  0.00    +0.000 N 
ATOM     11  H   UNL     1      45.956   5.510   9.548  0.00  0.00    +0.000 HD
BRANCH   9  12
ATOM     12  C   UNL     1      45.557   3.220   8.544  0.00  0.00    +0.000 A 
ATOM     13  C   UNL     1      45.877   1.870   8.642  0.00  0.00    +0.000 A 
ATOM     14  C   UNL     1      46.632   1.296   7.624  0.00  0.00    +0.000 A 
ATOM     15  C   UNL     1      47.035   2.083   6.551  0.00  0.00    +0.000 A 
ATOM     16  C   UNL     1      46.672   3.423   6.539  0.00  0.00    +0.000 A 
ATOM     17  N   UNL     1      45.942   4.018   7.508  0.00  0.00    +0.000 NA
ENDBRANCH   9  12
ENDBRANCH   7  10
ENDBRANCH   1   7
BRANCH   4  18
ATOM     18  C   UNL     1      47.940   9.139  14.280  0.00  0.00    +0.000 C 
BRANCH  18  19
ATOM     19  N   UNL     1      47.639   8.996  15.680  0.00  0.00    +0.000 N 
ATOM     20  C   UNL     1      48.262   9.778  16.620  0.00  0.00    +0.000 C 
ATOM     21  O   UNL     1      49.060  10.658  16.308  0.00  0.00    +0.000 OA
ATOM     22  H   UNL     1      47.167   8.145  15.969  0.00  0.00    +0.000 HD
BRANCH  20  23
ATOM     23  C   UNL     1      47.884   9.553  18.022  0.00  0.00    +0.000 A 
ATOM     24  C   UNL     1      47.481  10.627  18.805  0.00  0.00    +0.000 A 
ATOM     25  S   UNL     1      47.025  10.189  20.388  0.00  0.00    +0.000 S 
ATOM     26  C   UNL     1      47.399   8.554  20.102  0.00  0.00    +0.000 A 
ATOM     27  N   UNL     1      47.254   7.622  21.082  0.00  0.00    +0.000 NA
ATOM     28  C   UNL     1      47.604   6.428  20.738  0.00  0.00    +0.000 A 
ATOM     29  N   UNL     1      48.082   6.080  19.501  0.00  0.00    +0.000 N 
ATOM     30  C   UNL     1      48.219   6.981  18.472  0.00  0.00    +0.000 A 
ATOM     31  O   UNL     1      48.616   6.630  17.366  0.00  0.00    +0.000 OA
ATOM     32  C   UNL     1      47.849   8.344  18.811  0.00  0.00    +0.000 A 
ATOM     33  H   UNL     1      48.333   5.125  19.294  0.00  0.00    +0.000 HD
ENDBRANCH  20  23
ENDBRANCH  18  19
ENDBRANCH   4  18
TORSDOF 6
ENDMDL
MODEL 5
REMARK VINA RESULT:    -7.102      4.348      7.377
REMARK INTER + INTRA:         -10.758
REMARK INTER:                  -9.702
REMARK INTRA:                  -1.055
REMARK UNBOUND:                -1.164
REMARK  Name = 
REMARK  6 active torsions:
REMARK  status: ('A' for Active; 'I' for Inactive)
REMARK    1  A    between atoms: C_2  and  C_25
REMARK    2  A    between atoms: N_3  and  C_4
REMARK    3  A    between atoms: C_4  and  C_5
REMARK    4  A    between atoms: C_8  and  C_9
REMARK    5  A    between atoms: C_9  and  N_10
REMARK    6  A    between atoms: C_11  and  C_13
REMARK                            x       y       z     vdW  Elec       q    Type
REMARK                         _______ _______ _______ _____ _____    ______ ____
ROOT
ATOM      1  C   UNL     1      44.498   9.045  11.595  0.00  0.00    +0.000 A 
ATOM      2  C   UNL     1      45.502   8.940  12.567  0.00  0.00    +0.000 A 
ATOM      3  C   UNL     1      45.921   7.687  13.025  0.00  0.00    +0.000 A 
ATOM      4  C   UNL     1      45.358   6.514  12.505  0.00  0.00    +0.000 A 
ATOM      5  C   UNL     1      44.344   6.620  11.546  0.00  0.00    +0.000 A 
ATOM      6  C   UNL     1      43.926   7.872  11.087  0.00  0.00    +0.000 A 
ENDROOT
BRANCH   1   7
ATOM      7  C   UNL     1      44.053  10.392  11.092  0.00  0.00    +0.000 C 
BRANCH   7  10
ATOM      8  O   UNL     1      41.372  10.338  10.282  0.00  0.00    +0.000 OA
ATOM      9  C   UNL     1      41.655  10.828  11.370  0.00  0.00    +0.000 C 
ATOM     10  N   UNL     1      42.944  10.915  11.847  0.00  0.00    +0.000 N 
ATOM     11  H   UNL     1      43.082  11.339  12.761  0.00  0.00    +0.000 HD
BRANCH   9  12
ATOM     12  C   UNL     1      40.596  11.367  12.284  0.00  0.00    +0.000 A 
ATOM     13  C   UNL     1      39.260  11.087  12.022  0.00  0.00    +0.000 A 
ATOM     14  C   UNL     1      38.298  11.584  12.896  0.00  0.00    +0.000 A 
ATOM     15  C   UNL     1      38.701  12.336  13.993  0.00  0.00    +0.000 A 
ATOM     16  C   UNL     1      40.058  12.569  14.173  0.00  0.00    +0.000 A 
ATOM     17  N   UNL     1      41.022  12.105  13.348  0.00  0.00    +0.000 NA
ENDBRANCH   9  12
ENDBRANCH   7  10
ENDBRANCH   1   7
BRANCH   4  18
ATOM     18  C   UNL     1      45.808   5.160  12.989  0.00  0.00    +0.000 C 
BRANCH  18  19
ATOM     19  N   UNL     1      46.419   5.242  14.289  0.00  0.00    +0.000 N 
ATOM     20  C   UNL     1      47.122   4.184  14.809  0.00  0.00    +0.000 C 
ATOM     21  O   UNL     1      47.299   3.147  14.173  0.00  0.00    +0.000 OA
ATOM     22  H   UNL     1      46.102   5.983  14.905  0.00  0.00    +0.000 HD
BRANCH  20  23
ATOM     23  C   UNL     1      47.706   4.370  16.143  0.00  0.00    +0.000 A 
ATOM     24  C   UNL     1      47.325   3.531  17.183  0.00  0.00    +0.000 A 
ATOM     25  S   UNL     1      48.135   3.844  18.649  0.00  0.00    +0.000 S 
ATOM     26  C   UNL     1      48.987   5.147  17.964  0.00  0.00    +0.000 A 
ATOM     27  N   UNL     1      49.856   5.883  18.707  0.00  0.00    +0.000 NA
ATOM     28  C   UNL     1      50.408   6.860  18.070  0.00  0.00    +0.000 A 
ATOM     29  N   UNL     1      50.174   7.166  16.754  0.00  0.00    +0.000 N 
ATOM     30  C   UNL     1      49.328   6.435  15.957  0.00  0.00    +0.000 A 
ATOM     31  O   UNL     1      49.168   6.714  14.772  0.00  0.00    +0.000 OA
ATOM     32  C   UNL     1      48.670   5.329  16.629  0.00  0.00    +0.000 A 
ATOM     33  H   UNL     1      50.644   7.942  16.313  0.00  0.00    +0.000 HD
ENDBRANCH  20  23
ENDBRANCH  18  19
ENDBRANCH   4  18
TORSDOF 6
ENDMDL
MODEL 6
REMARK VINA RESULT:    -6.877      2.798      3.369
REMARK INTER + INTRA:         -10.453
REMARK INTER:                  -9.494
REMARK INTRA:                  -0.959
REMARK UNBOUND:                -1.164
REMARK  Name = 
REMARK  6 active torsions:
REMARK  status: ('A' for Active; 'I' for Inactive)
REMARK    1  A    between atoms: C_2  and  C_25
REMARK    2  A    between atoms: N_3  and  C_4
REMARK    3  A    between atoms: C_4  and  C_5
REMARK    4  A    between atoms: C_8  and  C_9
REMARK    5  A    between atoms: C_9  and  N_10
REMARK    6  A    between atoms: C_11  and  C_13
REMARK                            x       y       z     vdW  Elec       q    Type
REMARK                         _______ _______ _______ _____ _____    ______ ____
ROOT
ATOM      1  C   UNL     1      45.619   6.940  11.737  0.00  0.00    +0.000 A 
ATOM      2  C   UNL     1      46.849   6.345  12.050  0.00  0.00    +0.000 A 
ATOM      3  C   UNL     1      47.716   6.945  12.968  0.00  0.00    +0.000 A 
ATOM      4  C   UNL     1      47.362   8.141  13.607  0.00  0.00    +0.000 A 
ATOM      5  C   UNL     1      46.139   8.742  13.282  0.00  0.00    +0.000 A 
ATOM      6  C   UNL     1      45.272   8.142  12.365  0.00  0.00    +0.000 A 
ENDROOT
BRANCH   1   7
ATOM      7  C   UNL     1      44.679   6.291  10.757  0.00  0.00    +0.000 C 
BRANCH   7  10
ATOM      8  O   UNL     1      43.783   3.716  10.110  0.00  0.00    +0.000 OA
ATOM      9  C   UNL     1      44.827   4.125   9.613  0.00  0.00    +0.000 C 
ATOM     10  N   UNL     1      45.356   5.368   9.884  0.00  0.00    +0.000 N 
ATOM     11  H   UNL     1      46.228   5.620   9.426  0.00  0.00    +0.000 HD
BRANCH   9  12
ATOM     12  C   UNL     1      45.613   3.291   8.647  0.00  0.00    +0.000 A 
ATOM     13  C   UNL     1      46.295   3.910   7.607  0.00  0.00    +0.000 A 
ATOM     14  C   UNL     1      47.032   3.114   6.736  0.00  0.00    +0.000 A 
ATOM     15  C   UNL     1      47.063   1.739   6.933  0.00  0.00    +0.000 A 
ATOM     16  C   UNL     1      46.348   1.207   7.998  0.00  0.00    +0.000 A 
ATOM     17  N   UNL     1      45.620   1.945   8.865  0.00  0.00    +0.000 NA
ENDBRANCH   9  12
ENDBRANCH   7  10
ENDBRANCH   1   7
BRANCH   4  18
ATOM     18  C   UNL     1      48.287   8.790  14.602  0.00  0.00    +0.000 C 
BRANCH  18  19
ATOM     19  N   UNL     1      48.007   8.352  15.945  0.00  0.00    +0.000 N 
ATOM     20  C   UNL     1      48.881   7.536  16.618  0.00  0.00    +0.000 C 
ATOM     21  O   UNL     1      49.951   7.185  16.129  0.00  0.00    +0.000 OA
ATOM     22  H   UNL     1      47.051   8.442  16.272  0.00  0.00    +0.000 HD
BRANCH  20  23
ATOM     23  C   UNL     1      48.501   7.146  17.983  0.00  0.00    +0.000 A 
ATOM     24  C   UNL     1      48.584   5.813  18.364  0.00  0.00    +0.000 A 
ATOM     25  S   UNL     1      48.162   5.537  19.992  0.00  0.00    +0.000 S 
ATOM     26  C   UNL     1      47.802   7.182  20.234  0.00  0.00    +0.000 A 
ATOM     27  N   UNL     1      47.351   7.629  21.437  0.00  0.00    +0.000 NA
ATOM     28  C   UNL     1      47.086   8.892  21.471  0.00  0.00    +0.000 A 
ATOM     29  N   UNL     1      47.237   9.751  20.412  0.00  0.00    +0.000 N 
ATOM     30  C   UNL     1      47.716   9.350  19.188  0.00  0.00    +0.000 A 
ATOM     31  O   UNL     1      47.873  10.151  18.272  0.00  0.00    +0.000 OA
ATOM     32  C   UNL     1      48.018   7.933  19.092  0.00  0.00    +0.000 A 
ATOM     33  H   UNL     1      47.018  10.731  20.507  0.00  0.00    +0.000 HD
ENDBRANCH  20  23
ENDBRANCH  18  19
ENDBRANCH   4  18
TORSDOF 6
ENDMDL
MODEL 7
REMARK VINA RESULT:    -6.838      2.447      3.238
REMARK INTER + INTRA:         -10.401
REMARK INTER:                  -9.602
REMARK INTRA:                  -0.799
REMARK UNBOUND:                -1.164
REMARK  Name = 
REMARK  6 active torsions:
REMARK  status: ('A' for Active; 'I' for Inactive)
REMARK    1  A    between atoms: C_2  and  C_25
REMARK    2  A    between atoms: N_3  and  C_4
REMARK    3  A    between atoms: C_4  and  C_5
REMARK    4  A    between atoms: C_8  and  C_9
REMARK    5  A    between atoms: C_9  and  N_10
REMARK    6  A    between atoms: C_11  and  C_13
REMARK                            x       y       z     vdW  Elec       q    Type
REMARK                         _______ _______ _______ _____ _____    ______ ____
ROOT
ATOM      1  C   UNL     1      45.492   4.627  11.999  0.00  0.00    +0.000 A 
ATOM      2  C   UNL     1      45.999   4.208  13.237  0.00  0.00    +0.000 A 
ATOM      3  C   UNL     1      46.856   5.035  13.972  0.00  0.00    +0.000 A 
ATOM      4  C   UNL     1      47.205   6.305  13.493  0.00  0.00    +0.000 A 
ATOM      5  C   UNL     1      46.710   6.715  12.249  0.00  0.00    +0.000 A 
ATOM      6  C   UNL     1      45.853   5.890  11.515  0.00  0.00    +0.000 A 
ENDROOT
BRANCH   1   7
ATOM      7  C   UNL     1      44.562   3.744  11.212  0.00  0.00    +0.000 C 
BRANCH   7  10
ATOM      8  O   UNL     1      44.370   4.270   8.467  0.00  0.00    +0.000 OA
ATOM      9  C   UNL     1      45.102   3.363   8.849  0.00  0.00    +0.000 C 
ATOM     10  N   UNL     1      45.249   3.019  10.175  0.00  0.00    +0.000 N 
ATOM     11  H   UNL     1      45.878   2.251  10.397  0.00  0.00    +0.000 HD
BRANCH   9  12
ATOM     12  C   UNL     1      45.916   2.555   7.884  0.00  0.00    +0.000 A 
ATOM     13  C   UNL     1      46.332   3.134   6.690  0.00  0.00    +0.000 A 
ATOM     14  C   UNL     1      47.102   2.368   5.820  0.00  0.00    +0.000 A 
ATOM     15  C   UNL     1      47.428   1.063   6.170  0.00  0.00    +0.000 A 
ATOM     16  C   UNL     1      46.965   0.568   7.381  0.00  0.00    +0.000 A 
ATOM     17  N   UNL     1      46.215   1.277   8.253  0.00  0.00    +0.000 NA
ENDBRANCH   9  12
ENDBRANCH   7  10
ENDBRANCH   1   7
BRANCH   4  18
ATOM     18  C   UNL     1      48.121   7.204  14.281  0.00  0.00    +0.000 C 
BRANCH  18  19
ATOM     19  N   UNL     1      48.947   6.449  15.186  0.00  0.00    +0.000 N 
ATOM     20  C   UNL     1      49.775   7.080  16.080  0.00  0.00    +0.000 C 
ATOM     21  O   UNL     1      49.812   8.304  16.179  0.00  0.00    +0.000 OA
ATOM     22  H   UNL     1      49.096   5.469  14.971  0.00  0.00    +0.000 HD
BRANCH  20  23
ATOM     23  C   UNL     1      50.577   6.219  16.959  0.00  0.00    +0.000 A 
ATOM     24  C   UNL     1      49.954   5.509  17.978  0.00  0.00    +0.000 A 
ATOM     25  S   UNL     1      51.015   4.517  18.870  0.00  0.00    +0.000 S 
ATOM     26  C   UNL     1      52.355   5.040  17.962  0.00  0.00    +0.000 A 
ATOM     27  N   UNL     1      53.606   4.582  18.235  0.00  0.00    +0.000 NA
ATOM     28  C   UNL     1      54.533   5.086  17.491  0.00  0.00    +0.000 A 
ATOM     29  N   UNL     1      54.322   6.003  16.494  0.00  0.00    +0.000 N 
ATOM     30  C   UNL     1      53.073   6.474  16.164  0.00  0.00    +0.000 A 
ATOM     31  O   UNL     1      52.914   7.268  15.242  0.00  0.00    +0.000 OA
ATOM     32  C   UNL     1      51.995   5.946  16.981  0.00  0.00    +0.000 A 
ATOM     33  H   UNL     1      55.091   6.354  15.944  0.00  0.00    +0.000 HD
ENDBRANCH  20  23
ENDBRANCH  18  19
ENDBRANCH   4  18
TORSDOF 6
ENDMDL
MODEL 8
REMARK VINA RESULT:    -6.793      3.787      5.756
REMARK INTER + INTRA:         -10.340
REMARK INTER:                  -9.542
REMARK INTRA:                  -0.799
REMARK UNBOUND:                -1.164
REMARK  Name = 
REMARK  6 active torsions:
REMARK  status: ('A' for Active; 'I' for Inactive)
REMARK    1  A    between atoms: C_2  and  C_25
REMARK    2  A    between atoms: N_3  and  C_4
REMARK    3  A    between atoms: C_4  and  C_5
REMARK    4  A    between atoms: C_8  and  C_9
REMARK    5  A    between atoms: C_9  and  N_10
REMARK    6  A    between atoms: C_11  and  C_13
REMARK                            x       y       z     vdW  Elec       q    Type
REMARK                         _______ _______ _______ _____ _____    ______ ____
ROOT
ATOM      1  C   UNL     1      45.375   4.507  12.069  0.00  0.00    +0.000 A 
ATOM      2  C   UNL     1      46.154   4.210  13.196  0.00  0.00    +0.000 A 
ATOM      3  C   UNL     1      46.935   5.199  13.801  0.00  0.00    +0.000 A 
ATOM      4  C   UNL     1      46.936   6.510  13.304  0.00  0.00    +0.000 A 
ATOM      5  C   UNL     1      46.170   6.801  12.169  0.00  0.00    +0.000 A 
ATOM      6  C   UNL     1      45.388   5.812  11.565  0.00  0.00    +0.000 A 
ENDROOT
BRANCH   1   7
ATOM      7  C   UNL     1      44.525   3.446  11.423  0.00  0.00    +0.000 C 
BRANCH   7  10
ATOM      8  O   UNL     1      44.331   4.181   8.726  0.00  0.00    +0.000 OA
ATOM      9  C   UNL     1      45.056   3.242   9.036  0.00  0.00    +0.000 C 
ATOM     10  N   UNL     1      45.203   2.796  10.331  0.00  0.00    +0.000 N 
ATOM     11  H   UNL     1      45.826   2.009  10.492  0.00  0.00    +0.000 HD
BRANCH   9  12
ATOM     12  C   UNL     1      45.861   2.503   8.009  0.00  0.00    +0.000 A 
ATOM     13  C   UNL     1      46.231   3.152   6.836  0.00  0.00    +0.000 A 
ATOM     14  C   UNL     1      46.994   2.449   5.908  0.00  0.00    +0.000 A 
ATOM     15  C   UNL     1      47.357   1.136   6.182  0.00  0.00    +0.000 A 
ATOM     16  C   UNL     1      46.939   0.569   7.378  0.00  0.00    +0.000 A 
ATOM     17  N   UNL     1      46.198   1.216   8.304  0.00  0.00    +0.000 NA
ENDBRANCH   9  12
ENDBRANCH   7  10
ENDBRANCH   1   7
BRANCH   4  18
ATOM     18  C   UNL     1      47.770   7.583  13.954  0.00  0.00    +0.000 C 
BRANCH  18  19
ATOM     19  N   UNL     1      48.631   8.230  13.000  0.00  0.00    +0.000 N 
ATOM     20  C   UNL     1      49.091   9.505  13.214  0.00  0.00    +0.000 C 
ATOM     21  O   UNL     1      48.830  10.126  14.241  0.00  0.00    +0.000 OA
ATOM     22  H   UNL     1      48.672   7.832  12.067  0.00  0.00    +0.000 HD
BRANCH  20  23
ATOM     23  C   UNL     1      49.964  10.075  12.178  0.00  0.00    +0.000 A 
ATOM     24  C   UNL     1      51.337   9.876  12.253  0.00  0.00    +0.000 A 
ATOM     25  S   UNL     1      52.200  10.554  10.949  0.00  0.00    +0.000 S 
ATOM     26  C   UNL     1      50.776  11.182  10.263  0.00  0.00    +0.000 A 
ATOM     27  N   UNL     1      50.816  11.911   9.115  0.00  0.00    +0.000 NA
ATOM     28  C   UNL     1      49.668  12.353   8.724  0.00  0.00    +0.000 A 
ATOM     29  N   UNL     1      48.482  12.130   9.374  0.00  0.00    +0.000 N 
ATOM     30  C   UNL     1      48.389  11.378  10.520  0.00  0.00    +0.000 A 
ATOM     31  O   UNL     1      47.306  11.166  11.058  0.00  0.00    +0.000 OA
ATOM     32  C   UNL     1      49.656  10.865  11.010  0.00  0.00    +0.000 A 
ATOM     33  H   UNL     1      47.616  12.500   9.012  0.00  0.00    +0.000 HD
ENDBRANCH  20  23
ENDBRANCH  18  19
ENDBRANCH   4  18
TORSDOF 6
ENDMDL
MODEL 9
REMARK VINA RESULT:    -6.496      1.816      2.683
REMARK INTER + INTRA:          -9.938
REMARK INTER:                  -9.116
REMARK INTRA:                  -0.822
REMARK UNBOUND:                -1.164
REMARK  Name = 
REMARK  6 active torsions:
REMARK  status: ('A' for Active; 'I' for Inactive)
REMARK    1  A    between atoms: C_2  and  C_25
REMARK    2  A    between atoms: N_3  and  C_4
REMARK    3  A    between atoms: C_4  and  C_5
REMARK    4  A    between atoms: C_8  and  C_9
REMARK    5  A    between atoms: C_9  and  N_10
REMARK    6  A    between atoms: C_11  and  C_13
REMARK                            x       y       z     vdW  Elec       q    Type
REMARK                         _______ _______ _______ _____ _____    ______ ____
ROOT
ATOM      1  C   UNL     1      46.117   7.089  12.390  0.00  0.00    +0.000 A 
ATOM      2  C   UNL     1      46.008   8.402  12.870  0.00  0.00    +0.000 A 
ATOM      3  C   UNL     1      47.014   8.952  13.671  0.00  0.00    +0.000 A 
ATOM      4  C   UNL     1      48.157   8.208  13.991  0.00  0.00    +0.000 A 
ATOM      5  C   UNL     1      48.257   6.891  13.524  0.00  0.00    +0.000 A 
ATOM      6  C   UNL     1      47.253   6.341  12.722  0.00  0.00    +0.000 A 
ENDROOT
BRANCH   1   7
ATOM      7  C   UNL     1      45.041   6.499  11.519  0.00  0.00    +0.000 C 
BRANCH   7  10
ATOM      8  O   UNL     1      43.492   4.725  10.001  0.00  0.00    +0.000 OA
ATOM      9  C   UNL     1      44.714   4.688   9.896  0.00  0.00    +0.000 C 
ATOM     10  N   UNL     1      45.558   5.507  10.613  0.00  0.00    +0.000 N 
ATOM     11  H   UNL     1      46.558   5.404  10.459  0.00  0.00    +0.000 HD
BRANCH   9  12
ATOM     12  C   UNL     1      45.389   3.739   8.952  0.00  0.00    +0.000 A 
ATOM     13  C   UNL     1      45.324   2.372   9.196  0.00  0.00    +0.000 A 
ATOM     14  C   UNL     1      45.944   1.512   8.295  0.00  0.00    +0.000 A 
ATOM     15  C   UNL     1      46.599   2.042   7.190  0.00  0.00    +0.000 A 
ATOM     16  C   UNL     1      46.615   3.421   7.029  0.00  0.00    +0.000 A 
ATOM     17  N   UNL     1      46.027   4.290   7.881  0.00  0.00    +0.000 NA
ENDBRANCH   9  12
ENDBRANCH   7  10
ENDBRANCH   1   7
BRANCH   4  18
ATOM     18  C   UNL     1      49.248   8.795  14.848  0.00  0.00    +0.000 C 
BRANCH  18  19
ATOM     19  N   UNL     1      49.145   8.345  16.211  0.00  0.00    +0.000 N 
ATOM     20  C   UNL     1      49.968   7.359  16.694  0.00  0.00    +0.000 C 
ATOM     21  O   UNL     1      50.852   6.855  16.005  0.00  0.00    +0.000 OA
ATOM     22  H   UNL     1      48.297   8.581  16.715  0.00  0.00    +0.000 HD
BRANCH  20  23
ATOM     23  C   UNL     1      49.782   6.972  18.099  0.00  0.00    +0.000 A 
ATOM     24  C   UNL     1      50.066   7.886  19.105  0.00  0.00    +0.000 A 
ATOM     25  S   UNL     1      49.746   7.301  20.674  0.00  0.00    +0.000 S 
ATOM     26  C   UNL     1      49.265   5.786  20.069  0.00  0.00    +0.000 A 
ATOM     27  N   UNL     1      48.881   4.788  20.910  0.00  0.00    +0.000 NA
ATOM     28  C   UNL     1      48.573   3.682  20.319  0.00  0.00    +0.000 A 
ATOM     29  N   UNL     1      48.610   3.485  18.962  0.00  0.00    +0.000 N 
ATOM     30  C   UNL     1      48.964   4.470  18.073  0.00  0.00    +0.000 A 
ATOM     31  O   UNL     1      48.952   4.272  16.863  0.00  0.00    +0.000 OA
ATOM     32  C   UNL     1      49.332   5.733  18.688  0.00  0.00    +0.000 A 
ATOM     33  H   UNL     1      48.351   2.595  18.562  0.00  0.00    +0.000 HD
ENDBRANCH  20  23
ENDBRANCH  18  19
ENDBRANCH   4  18
TORSDOF 6
ENDMDL
