MODEL 1
REMARK VINA RESULT:    -8.428      0.000      0.000
REMARK INTER + INTRA:         -11.524
REMARK INTER:                 -10.892
REMARK INTRA:                  -0.633
REMARK UNBOUND:                -0.633
REMARK  Name = 
REMARK  6 active torsions:
REMARK  status: ('A' for Active; 'I' for Inactive)
REMARK    1  A    between atoms: C_1  and  C_2
REMARK    2  A    between atoms: C_5  and  N_6
REMARK    3  A    between atoms: N_6  and  C_7
REMARK    4  A    between atoms: C_7  and  C_8
REMARK    5  A    between atoms: C_12  and  C_13
REMARK    6  A    between atoms: C_21  and  C_22
REMARK                            x       y       z     vdW  Elec       q    Type
REMARK                         _______ _______ _______ _____ _____    ______ ____
ROOT
ATOM      1  N   UNL     1      46.507   6.456  11.406  0.00  0.00    +0.000 N 
ATOM      2  H   UNL     1      47.126   5.891  10.829  0.00  0.00    +0.000 HD
ENDROOT
BRANCH   1   7
ATOM      3  C   UNL     1      49.214   6.090  16.348  0.00  0.00    +0.000 C 
ATOM      4  C   UNL     1      48.333   6.247  15.146  0.00  0.00    +0.000 A 
ATOM      5  C   UNL     1      48.529   7.275  14.241  0.00  0.00    +0.000 A 
ATOM      6  N   UNL     1      47.929   7.345  13.021  0.00  0.00    +0.000 NA
ATOM      7  C   UNL     1      46.995   6.431  12.700  0.00  0.00    +0.000 A 
ATOM      8  C   UNL     1      46.596   5.491  13.616  0.00  0.00    +0.000 A 
ATOM      9  C   UNL     1      47.371   5.319  14.759  0.00  0.00    +0.000 A 
BRANCH   9  10
ATOM     10  C   UNL     1      47.335   3.955  15.315  0.00  0.00    +0.000 C 
ATOM     11  N   UNL     1      46.776   3.908  16.574  0.00  0.00    +0.000 N 
ATOM     12  O   UNL     1      47.702   2.967  14.696  0.00  0.00    +0.000 OA
ATOM     13  H   UNL     1      46.328   4.714  16.992  0.00  0.00    +0.000 HD
ATOM     14  H   UNL     1      46.631   3.006  17.014  0.00  0.00    +0.000 HD
ENDBRANCH   9  10
ENDBRANCH   1   7
BRANCH   1  15
ATOM     15  C   UNL     1      45.086   6.286  11.134  0.00  0.00    +0.000 C 
BRANCH  15  16
ATOM     16  C   UNL     1      44.837   4.955  10.474  0.00  0.00    +0.000 A 
ATOM     17  C   UNL     1      43.968   4.050  11.070  0.00  0.00    +0.000 A 
ATOM     18  N   UNL     1      43.713   2.824  10.584  0.00  0.00    +0.000 NA
ATOM     19  C   UNL     1      44.386   2.466   9.463  0.00  0.00    +0.000 A 
ATOM     20  C   UNL     1      45.331   3.243   8.779  0.00  0.00    +0.000 A 
ATOM     21  C   UNL     1      45.502   4.541   9.304  0.00  0.00    +0.000 A 
BRANCH  20  22
ATOM     22  C   UNL     1      46.173   2.671   7.677  0.00  0.00    +0.000 A 
ATOM     23  C   UNL     1      46.415   3.397   6.489  0.00  0.00    +0.000 A 
ATOM     24  C   UNL     1      47.026   2.824   5.365  0.00  0.00    +0.000 A 
ATOM     25  C   UNL     1      47.440   1.503   5.402  0.00  0.00    +0.000 A 
ATOM     26  C   UNL     1      47.292   0.777   6.578  0.00  0.00    +0.000 A 
ATOM     27  C   UNL     1      46.681   1.358   7.703  0.00  0.00    +0.000 A 
ENDBRANCH  20  22
ENDBRANCH  15  16
ENDBRANCH   1  15
TORSDOF 5
ENDMDL
MODEL 2
REMARK VINA RESULT:    -8.388      2.253      3.186
REMARK INTER + INTRA:         -11.472
REMARK INTER:                 -10.511
REMARK INTRA:                  -0.961
REMARK UNBOUND:                -0.633
REMARK  Name = 
REMARK  6 active torsions:
REMARK  status: ('A' for Active; 'I' for Inactive)
REMARK    1  A    between atoms: C_1  and  C_2
REMARK    2  A    between atoms: C_5  and  N_6
REMARK    3  A    between atoms: N_6  and  C_7
REMARK    4  A    between atoms: C_7  and  C_8
REMARK    5  A    between atoms: C_12  and  C_13
REMARK    6  A    between atoms: C_21  and  C_22
REMARK                            x       y       z     vdW  Elec       q    Type
REMARK                         _______ _______ _______ _____ _____    ______ ____
ROOT
ATOM      1  N   UNL     1      43.955   6.534  12.574  0.00  0.00    +0.000 N 
ATOM      2  H   UNL     1      43.573   7.300  13.126  0.00  0.00    +0.000 HD
ENDROOT
BRANCH   1   7
ATOM      3  C   UNL     1      49.490   7.199  13.467  0.00  0.00    +0.000 C 
ATOM      4  C   UNL     1      48.072   6.973  13.037  0.00  0.00    +0.000 A 
ATOM      5  C   UNL     1      47.351   5.881  13.487  0.00  0.00    +0.000 A 
ATOM      6  N   UNL     1      46.006   5.737  13.333  0.00  0.00    +0.000 NA
ATOM      7  C   UNL     1      45.333   6.641  12.597  0.00  0.00    +0.000 A 
ATOM      8  C   UNL     1      46.002   7.648  11.949  0.00  0.00    +0.000 A 
ATOM      9  C   UNL     1      47.327   7.887  12.298  0.00  0.00    +0.000 A 
BRANCH   9  10
ATOM     10  C   UNL     1      47.756   9.286  12.129  0.00  0.00    +0.000 C 
ATOM     11  N   UNL     1      47.202  10.129  13.068  0.00  0.00    +0.000 N 
ATOM     12  O   UNL     1      48.567   9.644  11.288  0.00  0.00    +0.000 OA
ATOM     13  H   UNL     1      46.668   9.780  13.855  0.00  0.00    +0.000 HD
ATOM     14  H   UNL     1      47.493  11.100  13.090  0.00  0.00    +0.000 HD
ENDBRANCH   9  10
ENDBRANCH   1   7
BRANCH   1  15
ATOM     15  C   UNL     1      43.241   6.255  11.334  0.00  0.00    +0.000 C 
BRANCH  15  16
ATOM     16  C   UNL     1      43.502   4.840  10.891  0.00  0.00    +0.000 A 
ATOM     17  C   UNL     1      43.062   3.786  11.682  0.00  0.00    +0.000 A 
ATOM     18  N   UNL     1      43.280   2.491  11.396  0.00  0.00    +0.000 NA
ATOM     19  C   UNL     1      44.007   2.233  10.281  0.00  0.00    +0.000 A 
ATOM     20  C   UNL     1      44.564   3.183   9.415  0.00  0.00    +0.000 A 
ATOM     21  C   UNL     1      44.240   4.518   9.736  0.00  0.00    +0.000 A 
BRANCH  20  22
ATOM     22  C   UNL     1      45.528   2.796   8.334  0.00  0.00    +0.000 A 
ATOM     23  C   UNL     1      46.087   1.499   8.281  0.00  0.00    +0.000 A 
ATOM     24  C   UNL     1      47.133   1.161   7.411  0.00  0.00    +0.000 A 
ATOM     25  C   UNL     1      47.640   2.111   6.540  0.00  0.00    +0.000 A 
ATOM     26  C   UNL     1      47.066   3.377   6.504  0.00  0.00    +0.000 A 
ATOM     27  C   UNL     1      46.015   3.708   7.379  0.00  0.00    +0.000 A 
ENDBRANCH  20  22
ENDBRANCH  15  16
ENDBRANCH   1  15
TORSDOF 5
ENDMDL
MODEL 3
REMARK VINA RESULT:    -8.285      1.757      2.246
REMARK INTER + INTRA:         -11.339
REMARK INTER:                 -10.467
REMARK INTRA:                  -0.872
REMARK UNBOUND:                -0.633
REMARK  Name = 
REMARK  6 active torsions:
REMARK  status: ('A' for Active; 'I' for Inactive)
REMARK    1  A    between atoms: C_1  and  C_2
REMARK    2  A    between atoms: C_5  and  N_6
REMARK    3  A    between atoms: N_6  and  C_7
REMARK    4  A    between atoms: C_7  and  C_8
REMARK    5  A    between atoms: C_12  and  C_13
REMARK    6  A    between atoms: C_21  and  C_22
REMARK                            x       y       z     vdW  Elec       q    Type
REMARK                         _______ _______ _______ _____ _____    ______ ____
ROOT
ATOM      1  N   UNL     1      44.177   7.163  10.869  0.00  0.00    +0.000 N 
ATOM      2  H   UNL     1      44.708   6.858  10.056  0.00  0.00    +0.000 HD
ENDROOT
BRANCH   1   7
ATOM      3  C   UNL     1      48.342   9.339  13.999  0.00  0.00    +0.000 C 
ATOM      4  C   UNL     1      47.133   8.740  13.346  0.00  0.00    +0.000 A 
ATOM      5  C   UNL     1      46.293   9.503  12.554  0.00  0.00    +0.000 A 
ATOM      6  N   UNL     1      45.324   8.987  11.748  0.00  0.00    +0.000 NA
ATOM      7  C   UNL     1      45.072   7.667  11.795  0.00  0.00    +0.000 A 
ATOM      8  C   UNL     1      45.724   6.864  12.696  0.00  0.00    +0.000 A 
ATOM      9  C   UNL     1      46.842   7.379  13.345  0.00  0.00    +0.000 A 
BRANCH   9  10
ATOM     10  C   UNL     1      47.843   6.368  13.722  0.00  0.00    +0.000 C 
ATOM     11  N   UNL     1      47.542   5.736  14.909  0.00  0.00    +0.000 N 
ATOM     12  O   UNL     1      48.802   6.076  13.021  0.00  0.00    +0.000 OA
ATOM     13  H   UNL     1      46.658   5.877  15.382  0.00  0.00    +0.000 HD
ATOM     14  H   UNL     1      48.125   4.967  15.220  0.00  0.00    +0.000 HD
ENDBRANCH   9  10
ENDBRANCH   1   7
BRANCH   1  15
ATOM     15  C   UNL     1      43.101   6.266  11.272  0.00  0.00    +0.000 C 
BRANCH  15  16
ATOM     16  C   UNL     1      43.424   4.851  10.870  0.00  0.00    +0.000 A 
ATOM     17  C   UNL     1      42.984   3.800  11.664  0.00  0.00    +0.000 A 
ATOM     18  N   UNL     1      43.255   2.508  11.415  0.00  0.00    +0.000 NA
ATOM     19  C   UNL     1      44.036   2.251  10.337  0.00  0.00    +0.000 A 
ATOM     20  C   UNL     1      44.598   3.201   9.474  0.00  0.00    +0.000 A 
ATOM     21  C   UNL     1      44.219   4.531   9.753  0.00  0.00    +0.000 A 
BRANCH  20  22
ATOM     22  C   UNL     1      45.618   2.824   8.441  0.00  0.00    +0.000 A 
ATOM     23  C   UNL     1      46.006   3.731   7.429  0.00  0.00    +0.000 A 
ATOM     24  C   UNL     1      46.802   3.351   6.339  0.00  0.00    +0.000 A 
ATOM     25  C   UNL     1      47.260   2.048   6.239  0.00  0.00    +0.000 A 
ATOM     26  C   UNL     1      46.967   1.144   7.254  0.00  0.00    +0.000 A 
ATOM     27  C   UNL     1      46.170   1.532   8.347  0.00  0.00    +0.000 A 
ENDBRANCH  20  22
ENDBRANCH  15  16
ENDBRANCH   1  15
TORSDOF 5
ENDMDL
MODEL 4
REMARK VINA RESULT:    -7.849      1.718      2.401
REMARK INTER + INTRA:         -10.776
REMARK INTER:                 -10.197
REMARK INTRA:                  -0.579
REMARK UNBOUND:                -0.633
REMARK  Name = 
REMARK  6 active torsions:
REMARK  status: ('A' for Active; 'I' for Inactive)
REMARK    1  A    between atoms: C_1  and  C_2
REMARK    2  A    between atoms: C_5  and  N_6
REMARK    3  A    between atoms: N_6  and  C_7
REMARK    4  A    between atoms: C_7  and  C_8
REMARK    5  A    between atoms: C_12  and  C_13
REMARK    6  A    between atoms: C_21  and  C_22
REMARK                            x       y       z     vdW  Elec       q    Type
REMARK                         _______ _______ _______ _____ _____    ______ ____
ROOT
ATOM      1  N   UNL     1      46.656   4.163  13.872  0.00  0.00    +0.000 N 
ATOM      2  H   UNL     1      46.577   3.153  13.972  0.00  0.00    +0.000 HD
ENDROOT
BRANCH   1   7
ATOM      3  C   UNL     1      50.155   5.977  17.916  0.00  0.00    +0.000 C 
ATOM      4  C   UNL     1      49.074   5.539  16.975  0.00  0.00    +0.000 A 
ATOM      5  C   UNL     1      48.764   6.275  15.844  0.00  0.00    +0.000 A 
ATOM      6  N   UNL     1      47.971   5.826  14.833  0.00  0.00    +0.000 NA
ATOM      7  C   UNL     1      47.344   4.644  14.972  0.00  0.00    +0.000 A 
ATOM      8  C   UNL     1      47.438   3.938  16.144  0.00  0.00    +0.000 A 
ATOM      9  C   UNL     1      48.414   4.317  17.061  0.00  0.00    +0.000 A 
BRANCH   9  10
ATOM     10  C   UNL     1      48.920   3.215  17.896  0.00  0.00    +0.000 C 
ATOM     11  N   UNL     1      48.264   3.116  19.104  0.00  0.00    +0.000 N 
ATOM     12  O   UNL     1      49.785   2.432  17.526  0.00  0.00    +0.000 OA
ATOM     13  H   UNL     1      47.441   3.668  19.313  0.00  0.00    +0.000 HD
ATOM     14  H   UNL     1      48.481   2.342  19.721  0.00  0.00    +0.000 HD
ENDBRANCH   9  10
ENDBRANCH   1   7
BRANCH   1  15
ATOM     15  C   UNL     1      45.455   4.829  13.384  0.00  0.00    +0.000 C 
BRANCH  15  16
ATOM     16  C   UNL     1      44.839   4.035  12.263  0.00  0.00    +0.000 A 
ATOM     17  C   UNL     1      43.694   3.287  12.506  0.00  0.00    +0.000 A 
ATOM     18  N   UNL     1      43.093   2.515  11.586  0.00  0.00    +0.000 NA
ATOM     19  C   UNL     1      43.685   2.456  10.367  0.00  0.00    +0.000 A 
ATOM     20  C   UNL     1      44.865   3.107   9.985  0.00  0.00    +0.000 A 
ATOM     21  C   UNL     1      45.406   3.952  10.977  0.00  0.00    +0.000 A 
BRANCH  20  22
ATOM     22  C   UNL     1      45.547   2.805   8.683  0.00  0.00    +0.000 A 
ATOM     23  C   UNL     1      46.065   1.520   8.409  0.00  0.00    +0.000 A 
ATOM     24  C   UNL     1      46.876   1.254   7.296  0.00  0.00    +0.000 A 
ATOM     25  C   UNL     1      47.175   2.268   6.402  0.00  0.00    +0.000 A 
ATOM     26  C   UNL     1      46.621   3.528   6.592  0.00  0.00    +0.000 A 
ATOM     27  C   UNL     1      45.806   3.788   7.709  0.00  0.00    +0.000 A 
ENDBRANCH  20  22
ENDBRANCH  15  16
ENDBRANCH   1  15
TORSDOF 5
ENDMDL
MODEL 5
REMARK VINA RESULT:    -7.830      1.661      2.407
REMARK INTER + INTRA:         -10.751
REMARK INTER:                 -10.126
REMARK INTRA:                  -0.625
REMARK UNBOUND:                -0.633
REMARK  Name = 
REMARK  6 active torsions:
REMARK  status: ('A' for Active; 'I' for Inactive)
REMARK    1  A    between atoms: C_1  and  C_2
REMARK    2  A    between atoms: C_5  and  N_6
REMARK    3  A    between atoms: N_6  and  C_7
REMARK    4  A    between atoms: C_7  and  C_8
REMARK    5  A    between atoms: C_12  and  C_13
REMARK    6  A    between atoms: C_21  and  C_22
REMARK                            x       y       z     vdW  Elec       q    Type
REMARK                         _______ _______ _______ _____ _____    ______ ____
ROOT
ATOM      1  N   UNL     1      46.135   6.736  11.400  0.00  0.00    +0.000 N 
ATOM      2  H   UNL     1      46.665   6.426  10.588  0.00  0.00    +0.000 HD
ENDROOT
BRANCH   1   7
ATOM      3  C   UNL     1      48.524   5.770  16.424  0.00  0.00    +0.000 C 
ATOM      4  C   UNL     1      48.079   6.002  15.012  0.00  0.00    +0.000 A 
ATOM      5  C   UNL     1      47.309   5.069  14.339  0.00  0.00    +0.000 A 
ATOM      6  N   UNL     1      46.677   5.309  13.157  0.00  0.00    +0.000 NA
ATOM      7  C   UNL     1      46.895   6.477  12.526  0.00  0.00    +0.000 A 
ATOM      8  C   UNL     1      47.798   7.381  13.025  0.00  0.00    +0.000 A 
ATOM      9  C   UNL     1      48.258   7.200  14.326  0.00  0.00    +0.000 A 
BRANCH   9  10
ATOM     10  C   UNL     1      48.626   8.446  15.017  0.00  0.00    +0.000 C 
ATOM     11  N   UNL     1      47.530   9.148  15.471  0.00  0.00    +0.000 N 
ATOM     12  O   UNL     1      49.783   8.784  15.224  0.00  0.00    +0.000 OA
ATOM     13  H   UNL     1      46.595   8.762  15.436  0.00  0.00    +0.000 HD
ATOM     14  H   UNL     1      47.676   9.981  16.030  0.00  0.00    +0.000 HD
ENDBRANCH   9  10
ENDBRANCH   1   7
BRANCH   1  15
ATOM     15  C   UNL     1      44.712   6.422  11.363  0.00  0.00    +0.000 C 
BRANCH  15  16
ATOM     16  C   UNL     1      44.497   5.052  10.777  0.00  0.00    +0.000 A 
ATOM     17  C   UNL     1      43.708   4.134  11.459  0.00  0.00    +0.000 A 
ATOM     18  N   UNL     1      43.489   2.876  11.042  0.00  0.00    +0.000 NA
ATOM     19  C   UNL     1      44.119   2.499   9.902  0.00  0.00    +0.000 A 
ATOM     20  C   UNL     1      44.986   3.288   9.133  0.00  0.00    +0.000 A 
ATOM     21  C   UNL     1      45.118   4.616   9.590  0.00  0.00    +0.000 A 
BRANCH  20  22
ATOM     22  C   UNL     1      45.795   2.707   8.012  0.00  0.00    +0.000 A 
ATOM     23  C   UNL     1      46.313   1.394   8.086  0.00  0.00    +0.000 A 
ATOM     24  C   UNL     1      47.232   0.891   7.155  0.00  0.00    +0.000 A 
ATOM     25  C   UNL     1      47.645   1.681   6.095  0.00  0.00    +0.000 A 
ATOM     26  C   UNL     1      47.099   2.951   5.941  0.00  0.00    +0.000 A 
ATOM     27  C   UNL     1      46.176   3.449   6.878  0.00  0.00    +0.000 A 
ENDBRANCH  20  22
ENDBRANCH  15  16
ENDBRANCH   1  15
TORSDOF 5
ENDMDL
MODEL 6
REMARK VINA RESULT:    -7.775      2.663      7.463
REMARK INTER + INTRA:         -10.681
REMARK INTER:                 -10.053
REMARK INTRA:                  -0.628
REMARK UNBOUND:                -0.633
REMARK  Name = 
REMARK  6 active torsions:
REMARK  status: ('A' for Active; 'I' for Inactive)
REMARK    1  A    between atoms: C_1  and  C_2
REMARK    2  A    between atoms: C_5  and  N_6
REMARK    3  A    between atoms: N_6  and  C_7
REMARK    4  A    between atoms: C_7  and  C_8
REMARK    5  A    between atoms: C_12  and  C_13
REMARK    6  A    between atoms: C_21  and  C_22
REMARK                            x       y       z     vdW  Elec       q    Type
REMARK                         _______ _______ _______ _____ _____    ______ ____
ROOT
ATOM      1  N   UNL     1      44.967   5.193   9.423  0.00  0.00    +0.000 N 
ATOM      2  H   UNL     1      44.569   5.794   8.705  0.00  0.00    +0.000 HD
ENDROOT
BRANCH   1   7
ATOM      3  C   UNL     1      46.611   0.081   7.677  0.00  0.00    +0.000 C 
ATOM      4  C   UNL     1      46.045   1.435   7.981  0.00  0.00    +0.000 A 
ATOM      5  C   UNL     1      45.227   1.642   9.079  0.00  0.00    +0.000 A 
ATOM      6  N   UNL     1      44.873   2.870   9.547  0.00  0.00    +0.000 NA
ATOM      7  C   UNL     1      45.230   3.963   8.848  0.00  0.00    +0.000 A 
ATOM      8  C   UNL     1      45.873   3.840   7.643  0.00  0.00    +0.000 A 
ATOM      9  C   UNL     1      46.400   2.598   7.304  0.00  0.00    +0.000 A 
BRANCH   9  10
ATOM     10  C   UNL     1      47.586   2.660   6.433  0.00  0.00    +0.000 C 
ATOM     11  N   UNL     1      47.295   3.130   5.170  0.00  0.00    +0.000 N 
ATOM     12  O   UNL     1      48.716   2.388   6.813  0.00  0.00    +0.000 OA
ATOM     13  H   UNL     1      46.385   3.507   4.935  0.00  0.00    +0.000 HD
ATOM     14  H   UNL     1      48.054   3.287   4.516  0.00  0.00    +0.000 HD
ENDBRANCH   9  10
ENDBRANCH   1   7
BRANCH   1  15
ATOM     15  C   UNL     1      44.331   5.292  10.731  0.00  0.00    +0.000 C 
BRANCH  15  16
ATOM     16  C   UNL     1      45.369   5.252  11.820  0.00  0.00    +0.000 A 
ATOM     17  C   UNL     1      45.142   4.480  12.952  0.00  0.00    +0.000 A 
ATOM     18  N   UNL     1      45.985   4.411  13.995  0.00  0.00    +0.000 NA
ATOM     19  C   UNL     1      47.099   5.181  13.924  0.00  0.00    +0.000 A 
ATOM     20  C   UNL     1      47.442   6.049  12.879  0.00  0.00    +0.000 A 
ATOM     21  C   UNL     1      46.548   6.022  11.788  0.00  0.00    +0.000 A 
BRANCH  20  22
ATOM     22  C   UNL     1      48.586   7.012  12.996  0.00  0.00    +0.000 A 
ATOM     23  C   UNL     1      49.065   7.720  11.871  0.00  0.00    +0.000 A 
ATOM     24  C   UNL     1      50.248   8.472  11.900  0.00  0.00    +0.000 A 
ATOM     25  C   UNL     1      50.982   8.561  13.071  0.00  0.00    +0.000 A 
ATOM     26  C   UNL     1      50.504   7.944  14.221  0.00  0.00    +0.000 A 
ATOM     27  C   UNL     1      49.315   7.193  14.187  0.00  0.00    +0.000 A 
ENDBRANCH  20  22
ENDBRANCH  15  16
ENDBRANCH   1  15
TORSDOF 5
ENDMDL
MODEL 7
REMARK VINA RESULT:    -7.471      3.511      4.780
REMARK INTER + INTRA:         -10.287
REMARK INTER:                  -9.660
REMARK INTRA:                  -0.627
REMARK UNBOUND:                -0.633
REMARK  Name = 
REMARK  6 active torsions:
REMARK  status: ('A' for Active; 'I' for Inactive)
REMARK    1  A    between atoms: C_1  and  C_2
REMARK    2  A    between atoms: C_5  and  N_6
REMARK    3  A    between atoms: N_6  and  C_7
REMARK    4  A    between atoms: C_7  and  C_8
REMARK    5  A    between atoms: C_12  and  C_13
REMARK    6  A    between atoms: C_21  and  C_22
REMARK                            x       y       z     vdW  Elec       q    Type
REMARK                         _______ _______ _______ _____ _____    ______ ____
ROOT
ATOM      1  N   UNL     1      45.847   6.939  12.227  0.00  0.00    +0.000 N 
ATOM      2  H   UNL     1      46.752   6.849  12.685  0.00  0.00    +0.000 HD
ENDROOT
BRANCH   1   7
ATOM      3  C   UNL     1      45.118  12.492  11.509  0.00  0.00    +0.000 C 
ATOM      4  C   UNL     1      45.329  11.008  11.495  0.00  0.00    +0.000 A 
ATOM      5  C   UNL     1      46.504  10.445  11.961  0.00  0.00    +0.000 A 
ATOM      6  N   UNL     1      46.674   9.115  12.197  0.00  0.00    +0.000 NA
ATOM      7  C   UNL     1      45.693   8.261  11.851  0.00  0.00    +0.000 A 
ATOM      8  C   UNL     1      44.572   8.713  11.202  0.00  0.00    +0.000 A 
ATOM      9  C   UNL     1      44.340  10.084  11.170  0.00  0.00    +0.000 A 
BRANCH   9  10
ATOM     10  C   UNL     1      42.917  10.456  11.105  0.00  0.00    +0.000 C 
ATOM     11  N   UNL     1      42.431  10.914  12.311  0.00  0.00    +0.000 N 
ATOM     12  O   UNL     1      42.259  10.425  10.075  0.00  0.00    +0.000 OA
ATOM     13  H   UNL     1      43.038  11.089  13.102  0.00  0.00    +0.000 HD
ATOM     14  H   UNL     1      41.483  11.271  12.356  0.00  0.00    +0.000 HD
ENDBRANCH   9  10
ENDBRANCH   1   7
BRANCH   1  15
ATOM     15  C   UNL     1      44.760   6.205  12.862  0.00  0.00    +0.000 C 
BRANCH  15  16
ATOM     16  C   UNL     1      44.422   4.977  12.059  0.00  0.00    +0.000 A 
ATOM     17  C   UNL     1      43.608   4.000  12.617  0.00  0.00    +0.000 A 
ATOM     18  N   UNL     1      43.282   2.852  12.000  0.00  0.00    +0.000 NA
ATOM     19  C   UNL     1      43.825   2.650  10.774  0.00  0.00    +0.000 A 
ATOM     20  C   UNL     1      44.702   3.512  10.103  0.00  0.00    +0.000 A 
ATOM     21  C   UNL     1      44.949   4.727  10.777  0.00  0.00    +0.000 A 
BRANCH  20  22
ATOM     22  C   UNL     1      45.411   3.096   8.847  0.00  0.00    +0.000 A 
ATOM     23  C   UNL     1      45.797   1.754   8.635  0.00  0.00    +0.000 A 
ATOM     24  C   UNL     1      46.628   1.365   7.575  0.00  0.00    +0.000 A 
ATOM     25  C   UNL     1      47.082   2.311   6.671  0.00  0.00    +0.000 A 
ATOM     26  C   UNL     1      46.662   3.630   6.798  0.00  0.00    +0.000 A 
ATOM     27  C   UNL     1      45.826   4.013   7.863  0.00  0.00    +0.000 A 
ENDBRANCH  20  22
ENDBRANCH  15  16
ENDBRANCH   1  15
TORSDOF 5
ENDMDL
MODEL 8
REMARK VINA RESULT:    -7.288      2.154      3.400
REMARK INTER + INTRA:         -10.051
REMARK INTER:                  -9.475
REMARK INTRA:                  -0.576
REMARK UNBOUND:                -0.633
REMARK  Name = 
REMARK  6 active torsions:
REMARK  status: ('A' for Active; 'I' for Inactive)
REMARK    1  A    between atoms: C_1  and  C_2
REMARK    2  A    between atoms: C_5  and  N_6
REMARK    3  A    between atoms: N_6  and  C_7
REMARK    4  A    between atoms: C_7  and  C_8
REMARK    5  A    between atoms: C_12  and  C_13
REMARK    6  A    between atoms: C_21  and  C_22
REMARK                            x       y       z     vdW  Elec       q    Type
REMARK                         _______ _______ _______ _____ _____    ______ ____
ROOT
ATOM      1  N   UNL     1      46.748   4.203  14.355  0.00  0.00    +0.000 N 
ATOM      2  H   UNL     1      46.321   3.288  14.231  0.00  0.00    +0.000 HD
ENDROOT
BRANCH   1   7
ATOM      3  C   UNL     1      48.690   4.204  19.657  0.00  0.00    +0.000 C 
ATOM      4  C   UNL     1      48.372   4.204  18.192  0.00  0.00    +0.000 A 
ATOM      5  C   UNL     1      47.841   3.086  17.572  0.00  0.00    +0.000 A 
ATOM      6  N   UNL     1      47.314   3.086  16.317  0.00  0.00    +0.000 NA
ATOM      7  C   UNL     1      47.410   4.201  15.569  0.00  0.00    +0.000 A 
ATOM      8  C   UNL     1      48.096   5.294  16.033  0.00  0.00    +0.000 A 
ATOM      9  C   UNL     1      48.432   5.334  17.382  0.00  0.00    +0.000 A 
BRANCH   9  10
ATOM     10  C   UNL     1      48.517   6.693  17.945  0.00  0.00    +0.000 C 
ATOM     11  N   UNL     1      47.309   7.144  18.431  0.00  0.00    +0.000 N 
ATOM     12  O   UNL     1      49.562   7.321  18.032  0.00  0.00    +0.000 OA
ATOM     13  H   UNL     1      46.499   6.540  18.501  0.00  0.00    +0.000 HD
ATOM     14  H   UNL     1      47.273   8.036  18.912  0.00  0.00    +0.000 HD
ENDBRANCH   9  10
ENDBRANCH   1   7
BRANCH   1  15
ATOM     15  C   UNL     1      45.915   5.330  13.954  0.00  0.00    +0.000 C 
BRANCH  15  16
ATOM     16  C   UNL     1      45.070   4.956  12.765  0.00  0.00    +0.000 A 
ATOM     17  C   UNL     1      43.688   4.912  12.897  0.00  0.00    +0.000 A 
ATOM     18  N   UNL     1      42.851   4.551  11.910  0.00  0.00    +0.000 NA
ATOM     19  C   UNL     1      43.423   4.177  10.739  0.00  0.00    +0.000 A 
ATOM     20  C   UNL     1      44.797   4.117  10.469  0.00  0.00    +0.000 A 
ATOM     21  C   UNL     1      45.615   4.573  11.524  0.00  0.00    +0.000 A 
BRANCH  20  22
ATOM     22  C   UNL     1      45.327   3.488   9.214  0.00  0.00    +0.000 A 
ATOM     23  C   UNL     1      45.476   2.087   9.104  0.00  0.00    +0.000 A 
ATOM     24  C   UNL     1      46.147   1.481   8.032  0.00  0.00    +0.000 A 
ATOM     25  C   UNL     1      46.672   2.261   7.015  0.00  0.00    +0.000 A 
ATOM     26  C   UNL     1      46.478   3.638   7.046  0.00  0.00    +0.000 A 
ATOM     27  C   UNL     1      45.802   4.240   8.122  0.00  0.00    +0.000 A 
ENDBRANCH  20  22
ENDBRANCH  15  16
ENDBRANCH   1  15
TORSDOF 5
ENDMDL
MODEL 9
REMARK VINA RESULT:    -7.050      2.465      4.200
REMARK INTER + INTRA:          -9.744
REMARK INTER:                  -9.103
REMARK INTRA:                  -0.641
REMARK UNBOUND:                -0.633
REMARK  Name = 
REMARK  6 active torsions:
REMARK  status: ('A' for Active; 'I' for Inactive)
REMARK    1  A    between atoms: C_1  and  C_2
REMARK    2  A    between atoms: C_5  and  N_6
REMARK    3  A    between atoms: N_6  and  C_7
REMARK    4  A    between atoms: C_7  and  C_8
REMARK    5  A    between atoms: C_12  and  C_13
REMARK    6  A    between atoms: C_21  and  C_22
REMARK                            x       y       z     vdW  Elec       q    Type
REMARK                         _______ _______ _______ _____ _____    ______ ____
ROOT
ATOM      1  N   UNL     1      48.125   7.107  15.157  0.00  0.00    +0.000 N 
ATOM      2  H   UNL     1      47.845   7.965  15.628  0.00  0.00    +0.000 HD
ENDROOT
BRANCH   1   7
ATOM      3  C   UNL     1      51.722   3.814  18.002  0.00  0.00    +0.000 C 
ATOM      4  C   UNL     1      50.712   4.762  17.431  0.00  0.00    +0.000 A 
ATOM      5  C   UNL     1      51.102   5.882  16.717  0.00  0.00    +0.000 A 
ATOM      6  N   UNL     1      50.255   6.650  15.977  0.00  0.00    +0.000 NA
ATOM      7  C   UNL     1      48.935   6.394  16.021  0.00  0.00    +0.000 A 
ATOM      8  C   UNL     1      48.441   5.425  16.858  0.00  0.00    +0.000 A 
ATOM      9  C   UNL     1      49.340   4.531  17.430  0.00  0.00    +0.000 A 
BRANCH   9  10
ATOM     10  C   UNL     1      48.774   3.201  17.714  0.00  0.00    +0.000 C 
ATOM     11  N   UNL     1      48.317   3.083  19.008  0.00  0.00    +0.000 N 
ATOM     12  O   UNL     1      48.662   2.323  16.870  0.00  0.00    +0.000 OA
ATOM     13  H   UNL     1      48.267   3.877  19.635  0.00  0.00    +0.000 HD
ATOM     14  H   UNL     1      47.837   2.234  19.285  0.00  0.00    +0.000 HD
ENDBRANCH   9  10
ENDBRANCH   1   7
BRANCH   1  15
ATOM     15  C   UNL     1      48.478   7.265  13.751  0.00  0.00    +0.000 C 
BRANCH  15  16
ATOM     16  C   UNL     1      47.236   7.284  12.901  0.00  0.00    +0.000 A 
ATOM     17  C   UNL     1      46.315   8.311  13.062  0.00  0.00    +0.000 A 
ATOM     18  N   UNL     1      45.159   8.396  12.383  0.00  0.00    +0.000 NA
ATOM     19  C   UNL     1      44.889   7.384  11.522  0.00  0.00    +0.000 A 
ATOM     20  C   UNL     1      45.688   6.257  11.289  0.00  0.00    +0.000 A 
ATOM     21  C   UNL     1      46.916   6.265  11.984  0.00  0.00    +0.000 A 
BRANCH  20  22
ATOM     22  C   UNL     1      45.196   5.095  10.478  0.00  0.00    +0.000 A 
ATOM     23  C   UNL     1      44.461   4.045  11.073  0.00  0.00    +0.000 A 
ATOM     24  C   UNL     1      44.158   2.856  10.395  0.00  0.00    +0.000 A 
ATOM     25  C   UNL     1      44.560   2.689   9.081  0.00  0.00    +0.000 A 
ATOM     26  C   UNL     1      45.216   3.729   8.433  0.00  0.00    +0.000 A 
ATOM     27  C   UNL     1      45.516   4.920   9.118  0.00  0.00    +0.000 A 
ENDBRANCH  20  22
ENDBRANCH  15  16
ENDBRANCH   1  15
TORSDOF 5
ENDMDL
