MODEL 1
REMARK VINA RESULT:    -8.356      0.000      0.000
REMARK INTER + INTRA:         -12.711
REMARK INTER:                 -11.776
REMARK INTRA:                  -0.936
REMARK UNBOUND:                -0.936
REMARK  Name = 
REMARK  8 active torsions:
REMARK  status: ('A' for Active; 'I' for Inactive)
REMARK    1  A    between atoms: C_1  and  N_2
REMARK    2  A    between atoms: C_4  and  O_5
REMARK    3  A    between atoms: O_5  and  C_6
REMARK    4  A    between atoms: C_11  and  C_12
REMARK    5  A    between atoms: C_12  and  C_13
REMARK    6  A    between atoms: C_13  and  O_14
REMARK    7  A    between atoms: O_14  and  C_15
REMARK    8  A    between atoms: C_18  and  C_19
REMARK                            x       y       z     vdW  Elec       q    Type
REMARK                         _______ _______ _______ _____ _____    ______ ____
ROOT
ATOM      1  C   UNL     1      43.421   5.130  12.291  0.00  0.00    +0.000 C 
ENDROOT
BRANCH   1   7
ATOM      2  C   UNL     1      46.958   4.680  13.769  0.00  0.00    +0.000 A 
ATOM      3  C   UNL     1      47.607   5.787  13.236  0.00  0.00    +0.000 A 
ATOM      4  C   UNL     1      46.903   6.672  12.415  0.00  0.00    +0.000 A 
ATOM      5  C   UNL     1      45.558   6.442  12.133  0.00  0.00    +0.000 A 
ATOM      6  F   UNL     1      44.910   7.313  11.347  0.00  0.00    +0.000 F 
ATOM      7  C   UNL     1      44.884   5.331  12.644  0.00  0.00    +0.000 A 
ATOM      8  C   UNL     1      45.612   4.449  13.464  0.00  0.00    +0.000 A 
BRANCH   2   9
ATOM      9  O   UNL     1      47.547   3.740  14.577  0.00  0.00    +0.000 OA
BRANCH   9  13
ATOM     10  C   UNL     1      49.927   4.103  18.250  0.00  0.00    +0.000 C 
ATOM     11  N   UNL     1      49.362   3.974  16.914  0.00  0.00    +0.000 NA
ATOM     12  C   UNL     1      48.326   5.004  16.677  0.00  0.00    +0.000 C 
ATOM     13  C   UNL     1      47.449   3.909  16.014  0.00  0.00    +0.000 C 
ATOM     14  C   UNL     1      48.307   2.935  16.868  0.00  0.00    +0.000 C 
ENDBRANCH   9  13
ENDBRANCH   2   9
ENDBRANCH   1   7
BRANCH   1  15
ATOM     15  C   UNL     1      43.195   4.186  11.112  0.00  0.00    +0.000 C 
BRANCH  15  16
ATOM     16  O   UNL     1      43.552   4.773   9.855  0.00  0.00    +0.000 OA
BRANCH  16  17
ATOM     17  C   UNL     1      44.482   3.973   9.206  0.00  0.00    +0.000 A 
ATOM     18  C   UNL     1      44.470   2.615   9.472  0.00  0.00    +0.000 A 
ATOM     19  C   UNL     1      45.398   1.806   8.809  0.00  0.00    +0.000 A 
ATOM     20  C   UNL     1      46.302   2.373   7.903  0.00  0.00    +0.000 A 
ATOM     21  C   UNL     1      46.231   3.742   7.711  0.00  0.00    +0.000 A 
ATOM     22  N   UNL     1      45.348   4.547   8.341  0.00  0.00    +0.000 NA
BRANCH  20  23
ATOM     23  C   UNL     1      47.279   1.513   7.195  0.00  0.00    +0.000 C 
ATOM     24  N   UNL     1      48.322   2.099   6.531  0.00  0.00    +0.000 N 
ATOM     25  O   UNL     1      47.161   0.294   7.196  0.00  0.00    +0.000 OA
ATOM     26  H   UNL     1      48.505   3.086   6.449  0.00  0.00    +0.000 HD
ATOM     27  H   UNL     1      48.959   1.472   6.052  0.00  0.00    +0.000 HD
ENDBRANCH  20  23
ENDBRANCH  16  17
ENDBRANCH  15  16
ENDBRANCH   1  15
TORSDOF 7
ENDMDL
MODEL 2
REMARK VINA RESULT:    -7.742      3.032      4.687
REMARK INTER + INTRA:         -11.846
REMARK INTER:                 -10.921
REMARK INTRA:                  -0.925
REMARK UNBOUND:                -0.936
REMARK  Name = 
REMARK  8 active torsions:
REMARK  status: ('A' for Active; 'I' for Inactive)
REMARK    1  A    between atoms: C_1  and  N_2
REMARK    2  A    between atoms: C_4  and  O_5
REMARK    3  A    between atoms: O_5  and  C_6
REMARK    4  A    between atoms: C_11  and  C_12
REMARK    5  A    between atoms: C_12  and  C_13
REMARK    6  A    between atoms: C_13  and  O_14
REMARK    7  A    between atoms: O_14  and  C_15
REMARK    8  A    between atoms: C_18  and  C_19
REMARK                            x       y       z     vdW  Elec       q    Type
REMARK                         _______ _______ _______ _____ _____    ______ ____
ROOT
ATOM      1  C   UNL     1      43.552   4.084  12.609  0.00  0.00    +0.000 C 
ENDROOT
BRANCH   1   7
ATOM      2  C   UNL     1      45.740   7.239  13.001  0.00  0.00    +0.000 A 
ATOM      3  C   UNL     1      46.998   6.667  13.157  0.00  0.00    +0.000 A 
ATOM      4  C   UNL     1      47.133   5.277  13.128  0.00  0.00    +0.000 A 
ATOM      5  C   UNL     1      46.013   4.470  12.943  0.00  0.00    +0.000 A 
ATOM      6  F   UNL     1      46.177   3.140  12.913  0.00  0.00    +0.000 F 
ATOM      7  C   UNL     1      44.735   5.016  12.796  0.00  0.00    +0.000 A 
ATOM      8  C   UNL     1      44.619   6.418  12.834  0.00  0.00    +0.000 A 
BRANCH   2   9
ATOM      9  O   UNL     1      45.484   8.586  13.021  0.00  0.00    +0.000 OA
BRANCH   9  13
ATOM     10  C   UNL     1      43.517  11.904  10.922  0.00  0.00    +0.000 C 
ATOM     11  N   UNL     1      44.029  10.876  11.818  0.00  0.00    +0.000 NA
ATOM     12  C   UNL     1      45.509  10.847  11.797  0.00  0.00    +0.000 C 
ATOM     13  C   UNL     1      45.436   9.298  11.760  0.00  0.00    +0.000 C 
ATOM     14  C   UNL     1      44.017   9.541  11.176  0.00  0.00    +0.000 C 
ENDBRANCH   9  13
ENDBRANCH   2   9
ENDBRANCH   1   7
BRANCH   1  15
ATOM     15  C   UNL     1      43.484   3.444  11.224  0.00  0.00    +0.000 C 
BRANCH  15  16
ATOM     16  O   UNL     1      43.805   4.363  10.172  0.00  0.00    +0.000 OA
BRANCH  16  17
ATOM     17  C   UNL     1      44.734   3.792   9.314  0.00  0.00    +0.000 A 
ATOM     18  C   UNL     1      44.932   2.424   9.386  0.00  0.00    +0.000 A 
ATOM     19  C   UNL     1      45.858   1.846   8.512  0.00  0.00    +0.000 A 
ATOM     20  C   UNL     1      46.552   2.645   7.595  0.00  0.00    +0.000 A 
ATOM     21  C   UNL     1      46.281   4.002   7.608  0.00  0.00    +0.000 A 
ATOM     22  N   UNL     1      45.396   4.587   8.443  0.00  0.00    +0.000 NA
BRANCH  20  23
ATOM     23  C   UNL     1      47.527   2.030   6.665  0.00  0.00    +0.000 C 
ATOM     24  N   UNL     1      48.154   2.819   5.740  0.00  0.00    +0.000 N 
ATOM     25  O   UNL     1      47.771   0.830   6.712  0.00  0.00    +0.000 OA
ATOM     26  H   UNL     1      48.016   3.808   5.601  0.00  0.00    +0.000 HD
ATOM     27  H   UNL     1      48.804   2.354   5.118  0.00  0.00    +0.000 HD
ENDBRANCH  20  23
ENDBRANCH  16  17
ENDBRANCH  15  16
ENDBRANCH   1  15
TORSDOF 7
ENDMDL
MODEL 3
REMARK VINA RESULT:    -7.373      2.383      2.726
REMARK INTER + INTRA:         -11.326
REMARK INTER:                 -10.294
REMARK INTRA:                  -1.032
REMARK UNBOUND:                -0.936
REMARK  Name = 
REMARK  8 active torsions:
REMARK  status: ('A' for Active; 'I' for Inactive)
REMARK    1  A    between atoms: C_1  and  N_2
REMARK    2  A    between atoms: C_4  and  O_5
REMARK    3  A    between atoms: O_5  and  C_6
REMARK    4  A    between atoms: C_11  and  C_12
REMARK    5  A    between atoms: C_12  and  C_13
REMARK    6  A    between atoms: C_13  and  O_14
REMARK    7  A    between atoms: O_14  and  C_15
REMARK    8  A    between atoms: C_18  and  C_19
REMARK                            x       y       z     vdW  Elec       q    Type
REMARK                         _______ _______ _______ _____ _____    ______ ____
ROOT
ATOM      1  C   UNL     1      43.671   4.063  12.788  0.00  0.00    +0.000 C 
ENDROOT
BRANCH   1   7
ATOM      2  C   UNL     1      46.697   6.454  12.945  0.00  0.00    +0.000 A 
ATOM      3  C   UNL     1      46.253   7.491  12.133  0.00  0.00    +0.000 A 
ATOM      4  C   UNL     1      44.985   7.418  11.550  0.00  0.00    +0.000 A 
ATOM      5  C   UNL     1      44.173   6.310  11.782  0.00  0.00    +0.000 A 
ATOM      6  F   UNL     1      42.960   6.274  11.214  0.00  0.00    +0.000 F 
ATOM      7  C   UNL     1      44.598   5.247  12.583  0.00  0.00    +0.000 A 
ATOM      8  C   UNL     1      45.880   5.338  13.156  0.00  0.00    +0.000 A 
BRANCH   2   9
ATOM      9  O   UNL     1      47.922   6.410  13.561  0.00  0.00    +0.000 OA
BRANCH   9  13
ATOM     10  C   UNL     1      50.124   8.947  16.390  0.00  0.00    +0.000 C 
ATOM     11  N   UNL     1      49.362   7.950  15.651  0.00  0.00    +0.000 NA
ATOM     12  C   UNL     1      50.053   7.583  14.394  0.00  0.00    +0.000 C 
ATOM     13  C   UNL     1      48.682   7.640  13.672  0.00  0.00    +0.000 C 
ATOM     14  C   UNL     1      48.285   8.574  14.848  0.00  0.00    +0.000 C 
ENDBRANCH   9  13
ENDBRANCH   2   9
ENDBRANCH   1   7
BRANCH   1  15
ATOM     15  C   UNL     1      43.871   2.940  11.773  0.00  0.00    +0.000 C 
BRANCH  15  16
ATOM     16  O   UNL     1      43.373   3.272  10.472  0.00  0.00    +0.000 OA
BRANCH  16  17
ATOM     17  C   UNL     1      44.368   3.087   9.523  0.00  0.00    +0.000 A 
ATOM     18  C   UNL     1      44.866   4.204   8.876  0.00  0.00    +0.000 A 
ATOM     19  C   UNL     1      45.879   4.019   7.929  0.00  0.00    +0.000 A 
ATOM     20  C   UNL     1      46.363   2.733   7.661  0.00  0.00    +0.000 A 
ATOM     21  C   UNL     1      45.795   1.685   8.362  0.00  0.00    +0.000 A 
ATOM     22  N   UNL     1      44.813   1.833   9.278  0.00  0.00    +0.000 NA
BRANCH  20  23
ATOM     23  C   UNL     1      47.442   2.541   6.664  0.00  0.00    +0.000 C 
ATOM     24  N   UNL     1      47.345   3.165   5.450  0.00  0.00    +0.000 N 
ATOM     25  O   UNL     1      48.409   1.831   6.912  0.00  0.00    +0.000 OA
ATOM     26  H   UNL     1      46.589   3.752   5.134  0.00  0.00    +0.000 HD
ATOM     27  H   UNL     1      48.099   2.995   4.796  0.00  0.00    +0.000 HD
ENDBRANCH  20  23
ENDBRANCH  16  17
ENDBRANCH  15  16
ENDBRANCH   1  15
TORSDOF 7
ENDMDL
MODEL 4
REMARK VINA RESULT:    -7.325      1.213      1.581
REMARK INTER + INTRA:         -11.259
REMARK INTER:                 -10.984
REMARK INTRA:                  -0.274
REMARK UNBOUND:                -0.936
REMARK  Name = 
REMARK  8 active torsions:
REMARK  status: ('A' for Active; 'I' for Inactive)
REMARK    1  A    between atoms: C_1  and  N_2
REMARK    2  A    between atoms: C_4  and  O_5
REMARK    3  A    between atoms: O_5  and  C_6
REMARK    4  A    between atoms: C_11  and  C_12
REMARK    5  A    between atoms: C_12  and  C_13
REMARK    6  A    between atoms: C_13  and  O_14
REMARK    7  A    between atoms: O_14  and  C_15
REMARK    8  A    between atoms: C_18  and  C_19
REMARK                            x       y       z     vdW  Elec       q    Type
REMARK                         _______ _______ _______ _____ _____    ______ ____
ROOT
ATOM      1  C   UNL     1      45.734   5.886  10.703  0.00  0.00    +0.000 C 
ENDROOT
BRANCH   1   7
ATOM      2  C   UNL     1      47.759   6.790  13.861  0.00  0.00    +0.000 A 
ATOM      3  C   UNL     1      47.374   8.113  14.048  0.00  0.00    +0.000 A 
ATOM      4  C   UNL     1      46.464   8.700  13.166  0.00  0.00    +0.000 A 
ATOM      5  C   UNL     1      45.946   7.961  12.104  0.00  0.00    +0.000 A 
ATOM      6  F   UNL     1      45.070   8.551  11.279  0.00  0.00    +0.000 F 
ATOM      7  C   UNL     1      46.325   6.634  11.884  0.00  0.00    +0.000 A 
ATOM      8  C   UNL     1      47.247   6.064  12.781  0.00  0.00    +0.000 A 
BRANCH   2   9
ATOM      9  O   UNL     1      48.650   6.113  14.655  0.00  0.00    +0.000 OA
BRANCH   9  13
ATOM     10  C   UNL     1      49.090   3.156  17.871  0.00  0.00    +0.000 C 
ATOM     11  N   UNL     1      49.101   3.985  16.674  0.00  0.00    +0.000 NA
ATOM     12  C   UNL     1      49.385   5.398  17.013  0.00  0.00    +0.000 C 
ATOM     13  C   UNL     1      48.267   5.816  16.021  0.00  0.00    +0.000 C 
ATOM     14  C   UNL     1      47.731   4.380  16.274  0.00  0.00    +0.000 C 
ENDBRANCH   9  13
ENDBRANCH   2   9
ENDBRANCH   1   7
BRANCH   1  15
ATOM     15  C   UNL     1      44.632   4.900  11.086  0.00  0.00    +0.000 C 
BRANCH  15  16
ATOM     16  O   UNL     1      43.940   4.372   9.948  0.00  0.00    +0.000 OA
BRANCH  16  17
ATOM     17  C   UNL     1      44.834   3.723   9.110  0.00  0.00    +0.000 A 
ATOM     18  C   UNL     1      45.042   2.369   9.302  0.00  0.00    +0.000 A 
ATOM     19  C   UNL     1      45.934   1.711   8.449  0.00  0.00    +0.000 A 
ATOM     20  C   UNL     1      46.585   2.421   7.432  0.00  0.00    +0.000 A 
ATOM     21  C   UNL     1      46.308   3.772   7.328  0.00  0.00    +0.000 A 
ATOM     22  N   UNL     1      45.456   4.434   8.141  0.00  0.00    +0.000 NA
BRANCH  20  23
ATOM     23  C   UNL     1      47.523   1.721   6.524  0.00  0.00    +0.000 C 
ATOM     24  N   UNL     1      48.673   2.354   6.138  0.00  0.00    +0.000 N 
ATOM     25  O   UNL     1      47.279   0.592   6.115  0.00  0.00    +0.000 OA
ATOM     26  H   UNL     1      48.963   3.284   6.396  0.00  0.00    +0.000 HD
ATOM     27  H   UNL     1      49.278   1.842   5.508  0.00  0.00    +0.000 HD
ENDBRANCH  20  23
ENDBRANCH  16  17
ENDBRANCH  15  16
ENDBRANCH   1  15
TORSDOF 7
ENDMDL
MODEL 5
REMARK VINA RESULT:    -7.150      1.881      8.239
REMARK INTER + INTRA:         -11.012
REMARK INTER:                 -10.302
REMARK INTRA:                  -0.710
REMARK UNBOUND:                -0.936
REMARK  Name = 
REMARK  8 active torsions:
REMARK  status: ('A' for Active; 'I' for Inactive)
REMARK    1  A    between atoms: C_1  and  N_2
REMARK    2  A    between atoms: C_4  and  O_5
REMARK    3  A    between atoms: O_5  and  C_6
REMARK    4  A    between atoms: C_11  and  C_12
REMARK    5  A    between atoms: C_12  and  C_13
REMARK    6  A    between atoms: C_13  and  O_14
REMARK    7  A    between atoms: O_14  and  C_15
REMARK    8  A    between atoms: C_18  and  C_19
REMARK                            x       y       z     vdW  Elec       q    Type
REMARK                         _______ _______ _______ _____ _____    ______ ____
ROOT
ATOM      1  C   UNL     1      45.928   6.813  12.857  0.00  0.00    +0.000 C 
ENDROOT
BRANCH   1   7
ATOM      2  C   UNL     1      45.135   4.887   9.609  0.00  0.00    +0.000 A 
ATOM      3  C   UNL     1      43.891   4.351   9.920  0.00  0.00    +0.000 A 
ATOM      4  C   UNL     1      43.315   4.619  11.164  0.00  0.00    +0.000 A 
ATOM      5  C   UNL     1      43.986   5.418  12.087  0.00  0.00    +0.000 A 
ATOM      6  F   UNL     1      43.403   5.661  13.269  0.00  0.00    +0.000 F 
ATOM      7  C   UNL     1      45.243   5.959  11.806  0.00  0.00    +0.000 A 
ATOM      8  C   UNL     1      45.808   5.673  10.550  0.00  0.00    +0.000 A 
BRANCH   2   9
ATOM      9  O   UNL     1      45.802   4.686   8.426  0.00  0.00    +0.000 OA
BRANCH   9  13
ATOM     10  C   UNL     1      47.568   1.130   6.550  0.00  0.00    +0.000 C 
ATOM     11  N   UNL     1      47.218   2.356   7.254  0.00  0.00    +0.000 NA
ATOM     12  C   UNL     1      46.050   2.143   8.137  0.00  0.00    +0.000 C 
ATOM     13  C   UNL     1      45.486   3.504   7.650  0.00  0.00    +0.000 C 
ATOM     14  C   UNL     1      46.389   3.249   6.411  0.00  0.00    +0.000 C 
ENDBRANCH   9  13
ENDBRANCH   2   9
ENDBRANCH   1   7
BRANCH   1  15
ATOM     15  C   UNL     1      47.165   6.161  13.471  0.00  0.00    +0.000 C 
BRANCH  15  16
ATOM     16  O   UNL     1      46.923   4.822  13.918  0.00  0.00    +0.000 OA
BRANCH  16  17
ATOM     17  C   UNL     1      47.380   4.668  15.219  0.00  0.00    +0.000 A 
ATOM     18  C   UNL     1      48.195   5.655  15.744  0.00  0.00    +0.000 A 
ATOM     19  C   UNL     1      48.645   5.507  17.060  0.00  0.00    +0.000 A 
ATOM     20  C   UNL     1      48.266   4.387  17.809  0.00  0.00    +0.000 A 
ATOM     21  C   UNL     1      47.450   3.457  17.189  0.00  0.00    +0.000 A 
ATOM     22  N   UNL     1      47.005   3.572  15.919  0.00  0.00    +0.000 NA
BRANCH  20  23
ATOM     23  C   UNL     1      48.736   4.236  19.206  0.00  0.00    +0.000 C 
ATOM     24  N   UNL     1      48.330   3.150  19.932  0.00  0.00    +0.000 N 
ATOM     25  O   UNL     1      49.477   5.069  19.714  0.00  0.00    +0.000 OA
ATOM     26  H   UNL     1      47.710   2.417  19.623  0.00  0.00    +0.000 HD
ATOM     27  H   UNL     1      48.667   3.094  20.885  0.00  0.00    +0.000 HD
ENDBRANCH  20  23
ENDBRANCH  16  17
ENDBRANCH  15  16
ENDBRANCH   1  15
TORSDOF 7
ENDMDL
MODEL 6
REMARK VINA RESULT:    -6.803      3.545      6.116
REMARK INTER + INTRA:         -10.523
REMARK INTER:                  -9.852
REMARK INTRA:                  -0.671
REMARK UNBOUND:                -0.936
REMARK  Name = 
REMARK  8 active torsions:
REMARK  status: ('A' for Active; 'I' for Inactive)
REMARK    1  A    between atoms: C_1  and  N_2
REMARK    2  A    between atoms: C_4  and  O_5
REMARK    3  A    between atoms: O_5  and  C_6
REMARK    4  A    between atoms: C_11  and  C_12
REMARK    5  A    between atoms: C_12  and  C_13
REMARK    6  A    between atoms: C_13  and  O_14
REMARK    7  A    between atoms: O_14  and  C_15
REMARK    8  A    between atoms: C_18  and  C_19
REMARK                            x       y       z     vdW  Elec       q    Type
REMARK                         _______ _______ _______ _____ _____    ______ ____
ROOT
ATOM      1  C   UNL     1      45.715   5.316  11.391  0.00  0.00    +0.000 C 
ENDROOT
BRANCH   1   7
ATOM      2  C   UNL     1      44.233   8.879  11.430  0.00  0.00    +0.000 A 
ATOM      3  C   UNL     1      45.048   9.491  12.376  0.00  0.00    +0.000 A 
ATOM      4  C   UNL     1      46.069   8.758  12.985  0.00  0.00    +0.000 A 
ATOM      5  C   UNL     1      46.267   7.421  12.646  0.00  0.00    +0.000 A 
ATOM      6  F   UNL     1      47.260   6.748  13.244  0.00  0.00    +0.000 F 
ATOM      7  C   UNL     1      45.455   6.777  11.709  0.00  0.00    +0.000 A 
ATOM      8  C   UNL     1      44.429   7.531  11.111  0.00  0.00    +0.000 A 
BRANCH   2   9
ATOM      9  O   UNL     1      43.196   9.493  10.775  0.00  0.00    +0.000 OA
BRANCH   9  13
ATOM     10  C   UNL     1      43.036  12.267   7.374  0.00  0.00    +0.000 C 
ATOM     11  N   UNL     1      43.022  11.170   8.331  0.00  0.00    +0.000 NA
ATOM     12  C   UNL     1      42.232  11.527   9.532  0.00  0.00    +0.000 C 
ATOM     13  C   UNL     1      43.344  10.886  10.403  0.00  0.00    +0.000 C 
ATOM     14  C   UNL     1      44.245  11.163   9.167  0.00  0.00    +0.000 C 
ENDBRANCH   9  13
ENDBRANCH   2   9
ENDBRANCH   1   7
BRANCH   1  15
ATOM     15  C   UNL     1      44.448   4.465  11.322  0.00  0.00    +0.000 C 
BRANCH  15  16
ATOM     16  O   UNL     1      43.909   4.378   9.997  0.00  0.00    +0.000 OA
BRANCH  16  17
ATOM     17  C   UNL     1      44.812   3.739   9.161  0.00  0.00    +0.000 A 
ATOM     18  C   UNL     1      45.039   2.388   9.358  0.00  0.00    +0.000 A 
ATOM     19  C   UNL     1      45.939   1.739   8.507  0.00  0.00    +0.000 A 
ATOM     20  C   UNL     1      46.579   2.454   7.487  0.00  0.00    +0.000 A 
ATOM     21  C   UNL     1      46.284   3.801   7.378  0.00  0.00    +0.000 A 
ATOM     22  N   UNL     1      45.423   4.454   8.189  0.00  0.00    +0.000 NA
BRANCH  20  23
ATOM     23  C   UNL     1      47.526   1.763   6.581  0.00  0.00    +0.000 C 
ATOM     24  N   UNL     1      48.709   2.374   6.263  0.00  0.00    +0.000 N 
ATOM     25  O   UNL     1      47.261   0.662   6.115  0.00  0.00    +0.000 OA
ATOM     26  H   UNL     1      49.019   3.282   6.573  0.00  0.00    +0.000 HD
ATOM     27  H   UNL     1      49.320   1.870   5.632  0.00  0.00    +0.000 HD
ENDBRANCH  20  23
ENDBRANCH  16  17
ENDBRANCH  15  16
ENDBRANCH   1  15
TORSDOF 7
ENDMDL
MODEL 7
REMARK VINA RESULT:    -6.079      3.896      6.469
REMARK INTER + INTRA:          -9.502
REMARK INTER:                  -8.862
REMARK INTRA:                  -0.640
REMARK UNBOUND:                -0.936
REMARK  Name = 
REMARK  8 active torsions:
REMARK  status: ('A' for Active; 'I' for Inactive)
REMARK    1  A    between atoms: C_1  and  N_2
REMARK    2  A    between atoms: C_4  and  O_5
REMARK    3  A    between atoms: O_5  and  C_6
REMARK    4  A    between atoms: C_11  and  C_12
REMARK    5  A    between atoms: C_12  and  C_13
REMARK    6  A    between atoms: C_13  and  O_14
REMARK    7  A    between atoms: O_14  and  C_15
REMARK    8  A    between atoms: C_18  and  C_19
REMARK                            x       y       z     vdW  Elec       q    Type
REMARK                         _______ _______ _______ _____ _____    ______ ____
ROOT
ATOM      1  C   UNL     1      48.285   2.645  16.689  0.00  0.00    +0.000 C 
ENDROOT
BRANCH   1   7
ATOM      2  C   UNL     1      50.180   5.254  18.809  0.00  0.00    +0.000 A 
ATOM      3  C   UNL     1      51.464   4.723  18.790  0.00  0.00    +0.000 A 
ATOM      4  C   UNL     1      51.712   3.539  18.092  0.00  0.00    +0.000 A 
ATOM      5  C   UNL     1      50.676   2.895  17.419  0.00  0.00    +0.000 A 
ATOM      6  F   UNL     1      50.948   1.764  16.753  0.00  0.00    +0.000 F 
ATOM      7  C   UNL     1      49.373   3.398  17.432  0.00  0.00    +0.000 A 
ATOM      8  C   UNL     1      49.143   4.589  18.146  0.00  0.00    +0.000 A 
BRANCH   2   9
ATOM      9  O   UNL     1      49.815   6.401  19.467  0.00  0.00    +0.000 OA
BRANCH   9  13
ATOM     10  C   UNL     1      47.003   8.566  22.053  0.00  0.00    +0.000 C 
ATOM     11  N   UNL     1      48.116   7.966  21.331  0.00  0.00    +0.000 NA
ATOM     12  C   UNL     1      47.933   8.107  19.869  0.00  0.00    +0.000 C 
ATOM     13  C   UNL     1      48.406   6.638  19.710  0.00  0.00    +0.000 C 
ATOM     14  C   UNL     1      47.944   6.502  21.187  0.00  0.00    +0.000 C 
ENDBRANCH   9  13
ENDBRANCH   2   9
ENDBRANCH   1   7
BRANCH   1  15
ATOM     15  C   UNL     1      47.418   3.532  15.798  0.00  0.00    +0.000 C 
BRANCH  15  16
ATOM     16  O   UNL     1      47.679   3.343  14.403  0.00  0.00    +0.000 OA
BRANCH  16  17
ATOM     17  C   UNL     1      46.690   3.957  13.649  0.00  0.00    +0.000 A 
ATOM     18  C   UNL     1      46.665   5.340  13.610  0.00  0.00    +0.000 A 
ATOM     19  C   UNL     1      45.676   5.960  12.840  0.00  0.00    +0.000 A 
ATOM     20  C   UNL     1      44.749   5.185  12.132  0.00  0.00    +0.000 A 
ATOM     21  C   UNL     1      44.860   3.810  12.241  0.00  0.00    +0.000 A 
ATOM     22  N   UNL     1      45.802   3.185  12.981  0.00  0.00    +0.000 NA
BRANCH  20  23
ATOM     23  C   UNL     1      43.708   5.844  11.310  0.00  0.00    +0.000 C 
ATOM     24  N   UNL     1      43.632   7.210  11.300  0.00  0.00    +0.000 N 
ATOM     25  O   UNL     1      42.917   5.182  10.648  0.00  0.00    +0.000 OA
ATOM     26  H   UNL     1      44.215   7.848  11.819  0.00  0.00    +0.000 HD
ATOM     27  H   UNL     1      42.897   7.615  10.733  0.00  0.00    +0.000 HD
ENDBRANCH  20  23
ENDBRANCH  16  17
ENDBRANCH  15  16
ENDBRANCH   1  15
TORSDOF 7
ENDMDL
MODEL 8
REMARK VINA RESULT:    -5.943      3.166      7.273
REMARK INTER + INTRA:          -9.311
REMARK INTER:                  -8.266
REMARK INTRA:                  -1.044
REMARK UNBOUND:                -0.936
REMARK  Name = 
REMARK  8 active torsions:
REMARK  status: ('A' for Active; 'I' for Inactive)
REMARK    1  A    between atoms: C_1  and  N_2
REMARK    2  A    between atoms: C_4  and  O_5
REMARK    3  A    between atoms: O_5  and  C_6
REMARK    4  A    between atoms: C_11  and  C_12
REMARK    5  A    between atoms: C_12  and  C_13
REMARK    6  A    between atoms: C_13  and  O_14
REMARK    7  A    between atoms: O_14  and  C_15
REMARK    8  A    between atoms: C_18  and  C_19
REMARK                            x       y       z     vdW  Elec       q    Type
REMARK                         _______ _______ _______ _____ _____    ______ ____
ROOT
ATOM      1  C   UNL     1      45.928   4.265  13.683  0.00  0.00    +0.000 C 
ENDROOT
BRANCH   1   7
ATOM      2  C   UNL     1      44.924   4.660   9.978  0.00  0.00    +0.000 A 
ATOM      3  C   UNL     1      43.578   4.983  10.104  0.00  0.00    +0.000 A 
ATOM      4  C   UNL     1      43.007   5.079  11.376  0.00  0.00    +0.000 A 
ATOM      5  C   UNL     1      43.785   4.851  12.510  0.00  0.00    +0.000 A 
ATOM      6  F   UNL     1      43.209   4.958  13.715  0.00  0.00    +0.000 F 
ATOM      7  C   UNL     1      45.137   4.512  12.412  0.00  0.00    +0.000 A 
ATOM      8  C   UNL     1      45.691   4.415  11.122  0.00  0.00    +0.000 A 
BRANCH   2   9
ATOM      9  O   UNL     1      45.589   4.528   8.785  0.00  0.00    +0.000 OA
BRANCH   9  13
ATOM     10  C   UNL     1      47.329   0.951   6.925  0.00  0.00    +0.000 C 
ATOM     11  N   UNL     1      46.983   2.170   7.642  0.00  0.00    +0.000 NA
ATOM     12  C   UNL     1      45.742   1.987   8.427  0.00  0.00    +0.000 C 
ATOM     13  C   UNL     1      45.280   3.388   7.946  0.00  0.00    +0.000 C 
ATOM     14  C   UNL     1      46.263   3.128   6.771  0.00  0.00    +0.000 C 
ENDBRANCH   9  13
ENDBRANCH   2   9
ENDBRANCH   1   7
BRANCH   1  15
ATOM     15  C   UNL     1      46.852   5.418  14.069  0.00  0.00    +0.000 C 
BRANCH  15  16
ATOM     16  O   UNL     1      48.065   5.436  13.307  0.00  0.00    +0.000 OA
BRANCH  16  17
ATOM     17  C   UNL     1      48.255   6.692  12.751  0.00  0.00    +0.000 A 
ATOM     18  C   UNL     1      47.159   7.529  12.642  0.00  0.00    +0.000 A 
ATOM     19  C   UNL     1      47.352   8.801  12.094  0.00  0.00    +0.000 A 
ATOM     20  C   UNL     1      48.628   9.199  11.677  0.00  0.00    +0.000 A 
ATOM     21  C   UNL     1      49.656   8.285  11.828  0.00  0.00    +0.000 A 
ATOM     22  N   UNL     1      49.497   7.049  12.349  0.00  0.00    +0.000 NA
BRANCH  20  23
ATOM     23  C   UNL     1      48.833  10.549  11.104  0.00  0.00    +0.000 C 
ATOM     24  N   UNL     1      50.107  10.977  10.845  0.00  0.00    +0.000 N 
ATOM     25  O   UNL     1      47.881  11.283  10.866  0.00  0.00    +0.000 OA
ATOM     26  H   UNL     1      50.959  10.467  11.017  0.00  0.00    +0.000 HD
ATOM     27  H   UNL     1      50.199  11.911  10.464  0.00  0.00    +0.000 HD
ENDBRANCH  20  23
ENDBRANCH  16  17
ENDBRANCH  15  16
ENDBRANCH   1  15
TORSDOF 7
ENDMDL
MODEL 9
REMARK VINA RESULT:    -5.931      3.607      7.444
REMARK INTER + INTRA:          -9.293
REMARK INTER:                  -8.393
REMARK INTRA:                  -0.900
REMARK UNBOUND:                -0.936
REMARK  Name = 
REMARK  8 active torsions:
REMARK  status: ('A' for Active; 'I' for Inactive)
REMARK    1  A    between atoms: C_1  and  N_2
REMARK    2  A    between atoms: C_4  and  O_5
REMARK    3  A    between atoms: O_5  and  C_6
REMARK    4  A    between atoms: C_11  and  C_12
REMARK    5  A    between atoms: C_12  and  C_13
REMARK    6  A    between atoms: C_13  and  O_14
REMARK    7  A    between atoms: O_14  and  C_15
REMARK    8  A    between atoms: C_18  and  C_19
REMARK                            x       y       z     vdW  Elec       q    Type
REMARK                         _______ _______ _______ _____ _____    ______ ____
ROOT
ATOM      1  C   UNL     1      47.890   9.557  12.887  0.00  0.00    +0.000 C 
ENDROOT
BRANCH   1   7
ATOM      2  C   UNL     1      44.531   8.324  11.441  0.00  0.00    +0.000 A 
ATOM      3  C   UNL     1      44.002   9.515  10.956  0.00  0.00    +0.000 A 
ATOM      4  C   UNL     1      44.731  10.699  11.090  0.00  0.00    +0.000 A 
ATOM      5  C   UNL     1      45.980  10.685  11.708  0.00  0.00    +0.000 A 
ATOM      6  F   UNL     1      46.656  11.837  11.814  0.00  0.00    +0.000 F 
ATOM      7  C   UNL     1      46.530   9.506  12.216  0.00  0.00    +0.000 A 
ATOM      8  C   UNL     1      45.778   8.324  12.076  0.00  0.00    +0.000 A 
BRANCH   2   9
ATOM      9  O   UNL     1      43.906   7.104  11.376  0.00  0.00    +0.000 OA
BRANCH   9  13
ATOM     10  C   UNL     1      43.493   2.813  12.211  0.00  0.00    +0.000 C 
ATOM     11  N   UNL     1      43.459   4.194  11.750  0.00  0.00    +0.000 NA
ATOM     12  C   UNL     1      44.828   4.709  11.522  0.00  0.00    +0.000 C 
ATOM     13  C   UNL     1      44.401   6.030  12.213  0.00  0.00    +0.000 C 
ATOM     14  C   UNL     1      43.317   5.140  12.881  0.00  0.00    +0.000 C 
ENDBRANCH   9  13
ENDBRANCH   2   9
ENDBRANCH   1   7
BRANCH   1  15
ATOM     15  C   UNL     1      47.991   8.694  14.143  0.00  0.00    +0.000 C 
BRANCH  15  16
ATOM     16  O   UNL     1      48.859   7.567  13.974  0.00  0.00    +0.000 OA
BRANCH  16  17
ATOM     17  C   UNL     1      48.512   6.564  14.867  0.00  0.00    +0.000 A 
ATOM     18  C   UNL     1      49.065   6.600  16.134  0.00  0.00    +0.000 A 
ATOM     19  C   UNL     1      48.705   5.596  17.040  0.00  0.00    +0.000 A 
ATOM     20  C   UNL     1      47.805   4.596  16.655  0.00  0.00    +0.000 A 
ATOM     21  C   UNL     1      47.311   4.650  15.364  0.00  0.00    +0.000 A 
ATOM     22  N   UNL     1      47.646   5.604  14.468  0.00  0.00    +0.000 NA
BRANCH  20  23
ATOM     23  C   UNL     1      47.418   3.538  17.618  0.00  0.00    +0.000 C 
ATOM     24  N   UNL     1      48.164   3.364  18.752  0.00  0.00    +0.000 N 
ATOM     25  O   UNL     1      46.446   2.821  17.409  0.00  0.00    +0.000 OA
ATOM     26  H   UNL     1      48.989   3.881  19.014  0.00  0.00    +0.000 HD
ATOM     27  H   UNL     1      47.869   2.622  19.375  0.00  0.00    +0.000 HD
ENDBRANCH  20  23
ENDBRANCH  16  17
ENDBRANCH  15  16
ENDBRANCH   1  15
TORSDOF 7
ENDMDL
