MODEL 1
REMARK VINA RESULT:    -8.067      0.000      0.000
REMARK INTER + INTRA:         -11.243
REMARK INTER:                 -10.425
REMARK INTRA:                  -0.818
REMARK UNBOUND:                -0.818
REMARK  Name = 
REMARK  5 active torsions:
REMARK  status: ('A' for Active; 'I' for Inactive)
REMARK    1  A    between atoms: C_2  and  C_4
REMARK    2  A    between atoms: N_8  and  C_9
REMARK    3  A    between atoms: C_9  and  C_10
REMARK    4  A    between atoms: C_10  and  C_11
REMARK    5  A    between atoms: C_15  and  C_16
REMARK                            x       y       z     vdW  Elec       q    Type
REMARK                         _______ _______ _______ _____ _____    ______ ____
ROOT
ATOM      1  C   UNL     1      43.421   5.074  10.628  0.00  0.00    +0.000 C 
ENDROOT
BRANCH   1   6
ATOM      2  C   UNL     1      46.535   2.427   7.586  0.00  0.00    +0.000 A 
ATOM      3  C   UNL     1      46.269   3.789   7.666  0.00  0.00    +0.000 A 
ATOM      4  C   UNL     1      45.332   4.237   8.595  0.00  0.00    +0.000 A 
ATOM      5  C   UNL     1      44.689   3.325   9.434  0.00  0.00    +0.000 A 
ATOM      6  N   UNL     1      43.771   3.698  10.378  0.00  0.00    +0.000 N 
ATOM      7  N   UNL     1      44.934   2.006   9.349  0.00  0.00    +0.000 NA
ATOM      8  C   UNL     1      45.836   1.582   8.426  0.00  0.00    +0.000 A 
ATOM      9  H   UNL     1      43.404   2.938  10.939  0.00  0.00    +0.000 HD
BRANCH   2  11
ATOM     10  N   UNL     1      48.622   2.622   6.363  0.00  0.00    +0.000 N 
ATOM     11  C   UNL     1      47.520   1.866   6.642  0.00  0.00    +0.000 C 
ATOM     12  O   UNL     1      47.371   0.753   6.152  0.00  0.00    +0.000 OA
ATOM     13  H   UNL     1      49.341   2.181   5.803  0.00  0.00    +0.000 HD
ATOM     14  H   UNL     1      48.896   3.410   6.934  0.00  0.00    +0.000 HD
ENDBRANCH   2  11
ENDBRANCH   1   6
BRANCH   1  15
ATOM     15  C   UNL     1      43.331   5.405  12.118  0.00  0.00    +0.000 C 
BRANCH  15  16
ATOM     16  C   UNL     1      44.747   5.504  12.637  0.00  0.00    +0.000 A 
ATOM     17  C   UNL     1      45.225   4.534  13.523  0.00  0.00    +0.000 A 
ATOM     18  C   UNL     1      46.584   4.460  13.796  0.00  0.00    +0.000 A 
ATOM     19  C   UNL     1      47.467   5.369  13.210  0.00  0.00    +0.000 A 
ATOM     20  C   UNL     1      47.009   6.417  12.397  0.00  0.00    +0.000 A 
ATOM     21  C   UNL     1      45.636   6.447  12.096  0.00  0.00    +0.000 A 
BRANCH  20  22
ATOM     22  C   UNL     1      47.937   7.477  11.800  0.00  0.00    +0.000 C 
ATOM     23  C   UNL     1      49.434   7.335  12.135  0.00  0.00    +0.000 C 
ATOM     24  C   UNL     1      49.745   7.703  13.591  0.00  0.00    +0.000 C 
ATOM     25  N   UNL     1      49.281   9.043  13.944  0.00  0.00    +0.000 NA
ATOM     26  C   UNL     1      47.859   9.227  13.645  0.00  0.00    +0.000 C 
ATOM     27  C   UNL     1      47.524   8.913  12.186  0.00  0.00    +0.000 C 
ATOM     28  H   UNL     1      49.827   9.733  13.430  0.00  0.00    +0.000 HD
ENDBRANCH  20  22
ENDBRANCH  15  16
ENDBRANCH   1  15
TORSDOF 5
ENDMDL
MODEL 2
REMARK VINA RESULT:    -7.753      1.158      1.698
REMARK INTER + INTRA:         -10.837
REMARK INTER:                 -10.230
REMARK INTRA:                  -0.607
REMARK UNBOUND:                -0.818
REMARK  Name = 
REMARK  5 active torsions:
REMARK  status: ('A' for Active; 'I' for Inactive)
REMARK    1  A    between atoms: C_2  and  C_4
REMARK    2  A    between atoms: N_8  and  C_9
REMARK    3  A    between atoms: C_9  and  C_10
REMARK    4  A    between atoms: C_10  and  C_11
REMARK    5  A    between atoms: C_15  and  C_16
REMARK                            x       y       z     vdW  Elec       q    Type
REMARK                         _______ _______ _______ _____ _____    ______ ____
ROOT
ATOM      1  C   UNL     1      43.364   3.575  11.285  0.00  0.00    +0.000 C 
ENDROOT
BRANCH   1   6
ATOM      2  C   UNL     1      46.425   2.714   7.304  0.00  0.00    +0.000 A 
ATOM      3  C   UNL     1      45.808   3.876   7.754  0.00  0.00    +0.000 A 
ATOM      4  C   UNL     1      44.988   3.809   8.878  0.00  0.00    +0.000 A 
ATOM      5  C   UNL     1      44.807   2.593   9.540  0.00  0.00    +0.000 A 
ATOM      6  N   UNL     1      44.029   2.460  10.658  0.00  0.00    +0.000 N 
ATOM      7  N   UNL     1      45.391   1.465   9.100  0.00  0.00    +0.000 NA
ATOM      8  C   UNL     1      46.173   1.542   7.992  0.00  0.00    +0.000 A 
ATOM      9  H   UNL     1      44.010   1.528  11.055  0.00  0.00    +0.000 HD
BRANCH   2  11
ATOM     10  N   UNL     1      48.660   2.590   6.368  0.00  0.00    +0.000 N 
ATOM     11  C   UNL     1      47.319   2.694   6.131  0.00  0.00    +0.000 C 
ATOM     12  O   UNL     1      46.875   2.737   4.990  0.00  0.00    +0.000 OA
ATOM     13  H   UNL     1      49.251   2.466   5.556  0.00  0.00    +0.000 HD
ATOM     14  H   UNL     1      49.030   2.300   7.262  0.00  0.00    +0.000 HD
ENDBRANCH   2  11
ENDBRANCH   1   6
BRANCH   1  15
ATOM     15  C   UNL     1      44.099   4.087  12.524  0.00  0.00    +0.000 C 
BRANCH  15  16
ATOM     16  C   UNL     1      44.835   5.342  12.117  0.00  0.00    +0.000 A 
ATOM     17  C   UNL     1      44.116   6.428  11.607  0.00  0.00    +0.000 A 
ATOM     18  C   UNL     1      44.734   7.665  11.482  0.00  0.00    +0.000 A 
ATOM     19  C   UNL     1      46.075   7.817  11.836  0.00  0.00    +0.000 A 
ATOM     20  C   UNL     1      46.853   6.727  12.255  0.00  0.00    +0.000 A 
ATOM     21  C   UNL     1      46.199   5.494  12.419  0.00  0.00    +0.000 A 
BRANCH  20  22
ATOM     22  C   UNL     1      48.344   6.839  12.578  0.00  0.00    +0.000 C 
ATOM     23  C   UNL     1      48.707   6.968  14.070  0.00  0.00    +0.000 C 
ATOM     24  C   UNL     1      48.351   8.346  14.641  0.00  0.00    +0.000 C 
ATOM     25  N   UNL     1      48.955   9.441  13.887  0.00  0.00    +0.000 NA
ATOM     26  C   UNL     1      48.637   9.364  12.459  0.00  0.00    +0.000 C 
ATOM     27  C   UNL     1      49.023   8.017  11.847  0.00  0.00    +0.000 C 
ATOM     28  H   UNL     1      49.966   9.416  14.010  0.00  0.00    +0.000 HD
ENDBRANCH  20  22
ENDBRANCH  15  16
ENDBRANCH   1  15
TORSDOF 5
ENDMDL
MODEL 3
REMARK VINA RESULT:    -6.590      3.969      7.474
REMARK INTER + INTRA:          -9.334
REMARK INTER:                  -8.238
REMARK INTRA:                  -1.096
REMARK UNBOUND:                -0.818
REMARK  Name = 
REMARK  5 active torsions:
REMARK  status: ('A' for Active; 'I' for Inactive)
REMARK    1  A    between atoms: C_2  and  C_4
REMARK    2  A    between atoms: N_8  and  C_9
REMARK    3  A    between atoms: C_9  and  C_10
REMARK    4  A    between atoms: C_10  and  C_11
REMARK    5  A    between atoms: C_15  and  C_16
REMARK                            x       y       z     vdW  Elec       q    Type
REMARK                         _______ _______ _______ _____ _____    ______ ____
ROOT
ATOM      1  C   UNL     1      49.151   7.806  12.835  0.00  0.00    +0.000 C 
ENDROOT
BRANCH   1   6
ATOM      2  C   UNL     1      47.879   4.737  16.697  0.00  0.00    +0.000 A 
ATOM      3  C   UNL     1      47.454   4.772  15.374  0.00  0.00    +0.000 A 
ATOM      4  C   UNL     1      47.963   5.758  14.532  0.00  0.00    +0.000 A 
ATOM      5  C   UNL     1      48.891   6.681  15.016  0.00  0.00    +0.000 A 
ATOM      6  N   UNL     1      49.442   7.664  14.240  0.00  0.00    +0.000 N 
ATOM      7  N   UNL     1      49.294   6.658  16.299  0.00  0.00    +0.000 NA
ATOM      8  C   UNL     1      48.775   5.703  17.114  0.00  0.00    +0.000 A 
ATOM      9  H   UNL     1      50.125   8.245  14.710  0.00  0.00    +0.000 HD
BRANCH   2  11
ATOM     10  N   UNL     1      47.993   3.700  18.888  0.00  0.00    +0.000 N 
ATOM     11  C   UNL     1      47.404   3.721  17.656  0.00  0.00    +0.000 C 
ATOM     12  O   UNL     1      46.498   2.948  17.370  0.00  0.00    +0.000 OA
ATOM     13  H   UNL     1      47.584   3.074  19.570  0.00  0.00    +0.000 HD
ATOM     14  H   UNL     1      48.547   4.470  19.236  0.00  0.00    +0.000 HD
ENDBRANCH   2  11
ENDBRANCH   1   6
BRANCH   1  15
ATOM     15  C   UNL     1      48.412   9.103  12.506  0.00  0.00    +0.000 C 
BRANCH  15  16
ATOM     16  C   UNL     1      46.968   8.740  12.252  0.00  0.00    +0.000 A 
ATOM     17  C   UNL     1      46.000   9.748  12.210  0.00  0.00    +0.000 A 
ATOM     18  C   UNL     1      44.733   9.467  11.720  0.00  0.00    +0.000 A 
ATOM     19  C   UNL     1      44.416   8.175  11.296  0.00  0.00    +0.000 A 
ATOM     20  C   UNL     1      45.330   7.118  11.419  0.00  0.00    +0.000 A 
ATOM     21  C   UNL     1      46.622   7.431  11.874  0.00  0.00    +0.000 A 
BRANCH  20  22
ATOM     22  C   UNL     1      44.994   5.675  11.037  0.00  0.00    +0.000 C 
ATOM     23  C   UNL     1      43.518   5.388  10.698  0.00  0.00    +0.000 C 
ATOM     24  C   UNL     1      42.620   5.401  11.942  0.00  0.00    +0.000 C 
ATOM     25  N   UNL     1      43.080   4.480  12.978  0.00  0.00    +0.000 NA
ATOM     26  C   UNL     1      44.481   4.713  13.336  0.00  0.00    +0.000 C 
ATOM     27  C   UNL     1      45.411   4.661  12.124  0.00  0.00    +0.000 C 
ATOM     28  H   UNL     1      42.970   3.522  12.648  0.00  0.00    +0.000 HD
ENDBRANCH  20  22
ENDBRANCH  15  16
ENDBRANCH   1  15
TORSDOF 5
ENDMDL
MODEL 4
REMARK VINA RESULT:    -6.505      3.417      5.836
REMARK INTER + INTRA:          -9.225
REMARK INTER:                  -8.126
REMARK INTRA:                  -1.099
REMARK UNBOUND:                -0.818
REMARK  Name = 
REMARK  5 active torsions:
REMARK  status: ('A' for Active; 'I' for Inactive)
REMARK    1  A    between atoms: C_2  and  C_4
REMARK    2  A    between atoms: N_8  and  C_9
REMARK    3  A    between atoms: C_9  and  C_10
REMARK    4  A    between atoms: C_10  and  C_11
REMARK    5  A    between atoms: C_15  and  C_16
REMARK                            x       y       z     vdW  Elec       q    Type
REMARK                         _______ _______ _______ _____ _____    ______ ____
ROOT
ATOM      1  C   UNL     1      47.438   8.003  13.969  0.00  0.00    +0.000 C 
ENDROOT
BRANCH   1   6
ATOM      2  C   UNL     1      44.891   4.314  11.549  0.00  0.00    +0.000 A 
ATOM      3  C   UNL     1      45.459   4.358  12.816  0.00  0.00    +0.000 A 
ATOM      4  C   UNL     1      46.131   5.513  13.211  0.00  0.00    +0.000 A 
ATOM      5  C   UNL     1      46.214   6.604  12.345  0.00  0.00    +0.000 A 
ATOM      6  N   UNL     1      46.845   7.773  12.675  0.00  0.00    +0.000 N 
ATOM      7  N   UNL     1      45.678   6.560  11.113  0.00  0.00    +0.000 NA
ATOM      8  C   UNL     1      45.042   5.421  10.734  0.00  0.00    +0.000 A 
ATOM      9  H   UNL     1      46.804   8.494  11.964  0.00  0.00    +0.000 HD
BRANCH   2  11
ATOM     10  N   UNL     1      44.759   2.372  10.100  0.00  0.00    +0.000 N 
ATOM     11  C   UNL     1      44.150   3.139  11.051  0.00  0.00    +0.000 C 
ATOM     12  O   UNL     1      43.047   2.846  11.496  0.00  0.00    +0.000 OA
ATOM     13  H   UNL     1      44.289   1.511   9.849  0.00  0.00    +0.000 HD
ATOM     14  H   UNL     1      45.748   2.436   9.905  0.00  0.00    +0.000 HD
ENDBRANCH   2  11
ENDBRANCH   1   6
BRANCH   1  15
ATOM     15  C   UNL     1      48.939   8.285  13.895  0.00  0.00    +0.000 C 
BRANCH  15  16
ATOM     16  C   UNL     1      49.615   7.347  14.868  0.00  0.00    +0.000 A 
ATOM     17  C   UNL     1      50.968   7.529  15.174  0.00  0.00    +0.000 A 
ATOM     18  C   UNL     1      51.527   6.855  16.250  0.00  0.00    +0.000 A 
ATOM     19  C   UNL     1      50.750   5.976  17.007  0.00  0.00    +0.000 A 
ATOM     20  C   UNL     1      49.419   5.693  16.666  0.00  0.00    +0.000 A 
ATOM     21  C   UNL     1      48.857   6.420  15.602  0.00  0.00    +0.000 A 
BRANCH  20  22
ATOM     22  C   UNL     1      48.560   4.679  17.424  0.00  0.00    +0.000 C 
ATOM     23  C   UNL     1      49.315   3.513  18.091  0.00  0.00    +0.000 C 
ATOM     24  C   UNL     1      49.837   2.495  17.069  0.00  0.00    +0.000 C 
ATOM     25  N   UNL     1      48.781   1.974  16.204  0.00  0.00    +0.000 NA
ATOM     26  C   UNL     1      48.033   3.047  15.545  0.00  0.00    +0.000 C 
ATOM     27  C   UNL     1      47.459   4.055  16.540  0.00  0.00    +0.000 C 
ATOM     28  H   UNL     1      48.142   1.407  16.759  0.00  0.00    +0.000 HD
ENDBRANCH  20  22
ENDBRANCH  15  16
ENDBRANCH   1  15
TORSDOF 5
ENDMDL
MODEL 5
REMARK VINA RESULT:    -6.480      3.770      7.335
REMARK INTER + INTRA:          -9.192
REMARK INTER:                  -8.684
REMARK INTRA:                  -0.509
REMARK UNBOUND:                -0.818
REMARK  Name = 
REMARK  5 active torsions:
REMARK  status: ('A' for Active; 'I' for Inactive)
REMARK    1  A    between atoms: C_2  and  C_4
REMARK    2  A    between atoms: N_8  and  C_9
REMARK    3  A    between atoms: C_9  and  C_10
REMARK    4  A    between atoms: C_10  and  C_11
REMARK    5  A    between atoms: C_15  and  C_16
REMARK                            x       y       z     vdW  Elec       q    Type
REMARK                         _______ _______ _______ _____ _____    ______ ____
ROOT
ATOM      1  C   UNL     1      47.880   8.940  12.830  0.00  0.00    +0.000 C 
ENDROOT
BRANCH   1   6
ATOM      2  C   UNL     1      43.387  10.298  10.848  0.00  0.00    +0.000 A 
ATOM      3  C   UNL     1      43.787   9.143  11.510  0.00  0.00    +0.000 A 
ATOM      4  C   UNL     1      45.112   9.033  11.926  0.00  0.00    +0.000 A 
ATOM      5  C   UNL     1      46.009  10.076  11.690  0.00  0.00    +0.000 A 
ATOM      6  N   UNL     1      47.318  10.040  12.085  0.00  0.00    +0.000 N 
ATOM      7  N   UNL     1      45.628  11.188  11.038  0.00  0.00    +0.000 NA
ATOM      8  C   UNL     1      44.338  11.274  10.621  0.00  0.00    +0.000 A 
ATOM      9  H   UNL     1      47.849  10.877  11.877  0.00  0.00    +0.000 HD
BRANCH   2  11
ATOM     10  N   UNL     1      41.014   9.828  11.036  0.00  0.00    +0.000 N 
ATOM     11  C   UNL     1      42.002  10.506  10.383  0.00  0.00    +0.000 C 
ATOM     12  O   UNL     1      41.747  11.280   9.469  0.00  0.00    +0.000 OA
ATOM     13  H   UNL     1      40.063  10.064  10.781  0.00  0.00    +0.000 HD
ATOM     14  H   UNL     1      41.159   9.394  11.937  0.00  0.00    +0.000 HD
ENDBRANCH   2  11
ENDBRANCH   1   6
BRANCH   1  15
ATOM     15  C   UNL     1      48.364   7.800  11.934  0.00  0.00    +0.000 C 
BRANCH  15  16
ATOM     16  C   UNL     1      47.485   6.605  12.222  0.00  0.00    +0.000 A 
ATOM     17  C   UNL     1      47.656   5.894  13.414  0.00  0.00    +0.000 A 
ATOM     18  C   UNL     1      46.695   4.974  13.811  0.00  0.00    +0.000 A 
ATOM     19  C   UNL     1      45.578   4.737  13.009  0.00  0.00    +0.000 A 
ATOM     20  C   UNL     1      45.426   5.358  11.759  0.00  0.00    +0.000 A 
ATOM     21  C   UNL     1      46.385   6.320  11.396  0.00  0.00    +0.000 A 
BRANCH  20  22
ATOM     22  C   UNL     1      44.255   5.067  10.818  0.00  0.00    +0.000 C 
ATOM     23  C   UNL     1      43.068   4.298  11.431  0.00  0.00    +0.000 C 
ATOM     24  C   UNL     1      43.395   2.821  11.683  0.00  0.00    +0.000 C 
ATOM     25  N   UNL     1      43.865   2.136  10.482  0.00  0.00    +0.000 NA
ATOM     26  C   UNL     1      44.997   2.829   9.862  0.00  0.00    +0.000 C 
ATOM     27  C   UNL     1      44.687   4.294   9.554  0.00  0.00    +0.000 C 
ATOM     28  H   UNL     1      43.100   2.071   9.811  0.00  0.00    +0.000 HD
ENDBRANCH  20  22
ENDBRANCH  15  16
ENDBRANCH   1  15
TORSDOF 5
ENDMDL
MODEL 6
REMARK VINA RESULT:    -6.415      4.344      8.373
REMARK INTER + INTRA:          -9.108
REMARK INTER:                  -8.452
REMARK INTRA:                  -0.656
REMARK UNBOUND:                -0.818
REMARK  Name = 
REMARK  5 active torsions:
REMARK  status: ('A' for Active; 'I' for Inactive)
REMARK    1  A    between atoms: C_2  and  C_4
REMARK    2  A    between atoms: N_8  and  C_9
REMARK    3  A    between atoms: C_9  and  C_10
REMARK    4  A    between atoms: C_10  and  C_11
REMARK    5  A    between atoms: C_15  and  C_16
REMARK                            x       y       z     vdW  Elec       q    Type
REMARK                         _______ _______ _______ _____ _____    ______ ____
ROOT
ATOM      1  C   UNL     1      49.725   7.983  13.907  0.00  0.00    +0.000 C 
ENDROOT
BRANCH   1   6
ATOM      2  C   UNL     1      49.338   5.220  18.170  0.00  0.00    +0.000 A 
ATOM      3  C   UNL     1      48.384   5.916  17.437  0.00  0.00    +0.000 A 
ATOM      4  C   UNL     1      48.789   6.619  16.304  0.00  0.00    +0.000 A 
ATOM      5  C   UNL     1      50.129   6.606  15.915  0.00  0.00    +0.000 A 
ATOM      6  N   UNL     1      50.591   7.260  14.805  0.00  0.00    +0.000 N 
ATOM      7  N   UNL     1      51.056   5.944  16.629  0.00  0.00    +0.000 NA
ATOM      8  C   UNL     1      50.651   5.280  17.742  0.00  0.00    +0.000 A 
ATOM      9  H   UNL     1      51.580   7.141  14.622  0.00  0.00    +0.000 HD
BRANCH   2  11
ATOM     10  N   UNL     1      48.406   3.224  19.186  0.00  0.00    +0.000 N 
ATOM     11  C   UNL     1      48.999   4.439  19.375  0.00  0.00    +0.000 C 
ATOM     12  O   UNL     1      49.266   4.850  20.498  0.00  0.00    +0.000 OA
ATOM     13  H   UNL     1      48.280   2.652  20.012  0.00  0.00    +0.000 HD
ATOM     14  H   UNL     1      48.407   2.754  18.291  0.00  0.00    +0.000 HD
ENDBRANCH   2  11
ENDBRANCH   1   6
BRANCH   1  15
ATOM     15  C   UNL     1      49.206   7.120  12.756  0.00  0.00    +0.000 C 
BRANCH  15  16
ATOM     16  C   UNL     1      47.697   7.166  12.813  0.00  0.00    +0.000 A 
ATOM     17  C   UNL     1      47.028   8.335  12.435  0.00  0.00    +0.000 A 
ATOM     18  C   UNL     1      45.656   8.307  12.228  0.00  0.00    +0.000 A 
ATOM     19  C   UNL     1      44.942   7.124  12.425  0.00  0.00    +0.000 A 
ATOM     20  C   UNL     1      45.565   5.961  12.901  0.00  0.00    +0.000 A 
ATOM     21  C   UNL     1      46.961   5.995  13.061  0.00  0.00    +0.000 A 
BRANCH  20  22
ATOM     22  C   UNL     1      44.802   4.668  13.202  0.00  0.00    +0.000 C 
ATOM     23  C   UNL     1      45.212   3.432  12.378  0.00  0.00    +0.000 C 
ATOM     24  C   UNL     1      44.742   3.519  10.921  0.00  0.00    +0.000 C 
ATOM     25  N   UNL     1      43.302   3.738  10.806  0.00  0.00    +0.000 NA
ATOM     26  C   UNL     1      42.863   4.906  11.573  0.00  0.00    +0.000 C 
ATOM     27  C   UNL     1      43.276   4.829  13.043  0.00  0.00    +0.000 C 
ATOM     28  H   UNL     1      42.809   2.910  11.138  0.00  0.00    +0.000 HD
ENDBRANCH  20  22
ENDBRANCH  15  16
ENDBRANCH   1  15
TORSDOF 5
ENDMDL
MODEL 7
REMARK VINA RESULT:    -6.380      3.846      6.493
REMARK INTER + INTRA:          -9.063
REMARK INTER:                  -8.085
REMARK INTRA:                  -0.978
REMARK UNBOUND:                -0.818
REMARK  Name = 
REMARK  5 active torsions:
REMARK  status: ('A' for Active; 'I' for Inactive)
REMARK    1  A    between atoms: C_2  and  C_4
REMARK    2  A    between atoms: N_8  and  C_9
REMARK    3  A    between atoms: C_9  and  C_10
REMARK    4  A    between atoms: C_10  and  C_11
REMARK    5  A    between atoms: C_15  and  C_16
REMARK                            x       y       z     vdW  Elec       q    Type
REMARK                         _______ _______ _______ _____ _____    ______ ____
ROOT
ATOM      1  C   UNL     1      49.037   7.933  11.725  0.00  0.00    +0.000 C 
ENDROOT
BRANCH   1   6
ATOM      2  C   UNL     1      45.098   4.880  12.784  0.00  0.00    +0.000 A 
ATOM      3  C   UNL     1      45.228   5.933  11.887  0.00  0.00    +0.000 A 
ATOM      4  C   UNL     1      46.439   6.620  11.828  0.00  0.00    +0.000 A 
ATOM      5  C   UNL     1      47.499   6.239  12.651  0.00  0.00    +0.000 A 
ATOM      6  N   UNL     1      48.719   6.860  12.634  0.00  0.00    +0.000 N 
ATOM      7  N   UNL     1      47.372   5.229  13.530  0.00  0.00    +0.000 NA
ATOM      8  C   UNL     1      46.181   4.580  13.590  0.00  0.00    +0.000 A 
ATOM      9  H   UNL     1      49.408   6.462  13.261  0.00  0.00    +0.000 HD
BRANCH   2  11
ATOM     10  N   UNL     1      43.939   2.753  12.631  0.00  0.00    +0.000 N 
ATOM     11  C   UNL     1      43.859   4.088  12.905  0.00  0.00    +0.000 C 
ATOM     12  O   UNL     1      42.807   4.602  13.266  0.00  0.00    +0.000 OA
ATOM     13  H   UNL     1      43.111   2.204  12.824  0.00  0.00    +0.000 HD
ATOM     14  H   UNL     1      44.821   2.263  12.583  0.00  0.00    +0.000 HD
ENDBRANCH   2  11
ENDBRANCH   1   6
BRANCH   1  15
ATOM     15  C   UNL     1      49.353   9.246  12.441  0.00  0.00    +0.000 C 
BRANCH  15  16
ATOM     16  C   UNL     1      48.609  10.340  11.711  0.00  0.00    +0.000 A 
ATOM     17  C   UNL     1      49.244  11.034  10.676  0.00  0.00    +0.000 A 
ATOM     18  C   UNL     1      48.499  11.844   9.831  0.00  0.00    +0.000 A 
ATOM     19  C   UNL     1      47.125  11.990  10.031  0.00  0.00    +0.000 A 
ATOM     20  C   UNL     1      46.474  11.389  11.120  0.00  0.00    +0.000 A 
ATOM     21  C   UNL     1      47.236  10.536  11.937  0.00  0.00    +0.000 A 
BRANCH  20  22
ATOM     22  C   UNL     1      44.986  11.587  11.416  0.00  0.00    +0.000 C 
ATOM     23  C   UNL     1      44.228  10.351  11.937  0.00  0.00    +0.000 C 
ATOM     24  C   UNL     1      44.000   9.301  10.842  0.00  0.00    +0.000 C 
ATOM     25  N   UNL     1      43.316   9.847   9.673  0.00  0.00    +0.000 NA
ATOM     26  C   UNL     1      44.001  11.026   9.138  0.00  0.00    +0.000 C 
ATOM     27  C   UNL     1      44.203  12.113  10.194  0.00  0.00    +0.000 C 
ATOM     28  H   UNL     1      42.362  10.097   9.928  0.00  0.00    +0.000 HD
ENDBRANCH  20  22
ENDBRANCH  15  16
ENDBRANCH   1  15
TORSDOF 5
ENDMDL
MODEL 8
REMARK VINA RESULT:    -6.315      3.573      5.865
REMARK INTER + INTRA:          -8.979
REMARK INTER:                  -8.375
REMARK INTRA:                  -0.603
REMARK UNBOUND:                -0.818
REMARK  Name = 
REMARK  5 active torsions:
REMARK  status: ('A' for Active; 'I' for Inactive)
REMARK    1  A    between atoms: C_2  and  C_4
REMARK    2  A    between atoms: N_8  and  C_9
REMARK    3  A    between atoms: C_9  and  C_10
REMARK    4  A    between atoms: C_10  and  C_11
REMARK    5  A    between atoms: C_15  and  C_16
REMARK                            x       y       z     vdW  Elec       q    Type
REMARK                         _______ _______ _______ _____ _____    ______ ____
ROOT
ATOM      1  C   UNL     1      48.013   8.106  13.383  0.00  0.00    +0.000 C 
ENDROOT
BRANCH   1   6
ATOM      2  C   UNL     1      44.862   4.889  11.000  0.00  0.00    +0.000 A 
ATOM      3  C   UNL     1      45.833   5.754  10.510  0.00  0.00    +0.000 A 
ATOM      4  C   UNL     1      46.539   6.550  11.410  0.00  0.00    +0.000 A 
ATOM      5  C   UNL     1      46.275   6.462  12.778  0.00  0.00    +0.000 A 
ATOM      6  N   UNL     1      46.940   7.202  13.717  0.00  0.00    +0.000 N 
ATOM      7  N   UNL     1      45.326   5.636  13.253  0.00  0.00    +0.000 NA
ATOM      8  C   UNL     1      44.633   4.879  12.363  0.00  0.00    +0.000 A 
ATOM      9  H   UNL     1      46.670   7.017  14.675  0.00  0.00    +0.000 HD
BRANCH   2  11
ATOM     10  N   UNL     1      43.963   4.357   8.810  0.00  0.00    +0.000 N 
ATOM     11  C   UNL     1      44.076   4.000  10.123  0.00  0.00    +0.000 C 
ATOM     12  O   UNL     1      43.571   2.968  10.548  0.00  0.00    +0.000 OA
ATOM     13  H   UNL     1      43.516   3.684   8.198  0.00  0.00    +0.000 HD
ATOM     14  H   UNL     1      44.566   5.045   8.382  0.00  0.00    +0.000 HD
ENDBRANCH   2  11
ENDBRANCH   1   6
BRANCH   1  15
ATOM     15  C   UNL     1      49.395   7.471  13.530  0.00  0.00    +0.000 C 
BRANCH  15  16
ATOM     16  C   UNL     1      49.793   7.604  14.981  0.00  0.00    +0.000 A 
ATOM     17  C   UNL     1      50.207   8.847  15.471  0.00  0.00    +0.000 A 
ATOM     18  C   UNL     1      50.318   9.046  16.840  0.00  0.00    +0.000 A 
ATOM     19  C   UNL     1      50.045   8.001  17.724  0.00  0.00    +0.000 A 
ATOM     20  C   UNL     1      49.727   6.714  17.264  0.00  0.00    +0.000 A 
ATOM     21  C   UNL     1      49.574   6.544  15.877  0.00  0.00    +0.000 A 
BRANCH  20  22
ATOM     22  C   UNL     1      49.496   5.526  18.200  0.00  0.00    +0.000 C 
ATOM     23  C   UNL     1      48.811   4.294  17.577  0.00  0.00    +0.000 C 
ATOM     24  C   UNL     1      47.320   4.530  17.305  0.00  0.00    +0.000 C 
ATOM     25  N   UNL     1      46.591   4.955  18.498  0.00  0.00    +0.000 NA
ATOM     26  C   UNL     1      47.205   6.127  19.127  0.00  0.00    +0.000 C 
ATOM     27  C   UNL     1      48.682   5.907  19.454  0.00  0.00    +0.000 C 
ATOM     28  H   UNL     1      46.565   4.187  19.166  0.00  0.00    +0.000 HD
ENDBRANCH  20  22
ENDBRANCH  15  16
ENDBRANCH   1  15
TORSDOF 5
ENDMDL
MODEL 9
REMARK VINA RESULT:    -6.143      4.814      8.584
REMARK INTER + INTRA:          -8.757
REMARK INTER:                  -8.492
REMARK INTRA:                  -0.265
REMARK UNBOUND:                -0.818
REMARK  Name = 
REMARK  5 active torsions:
REMARK  status: ('A' for Active; 'I' for Inactive)
REMARK    1  A    between atoms: C_2  and  C_4
REMARK    2  A    between atoms: N_8  and  C_9
REMARK    3  A    between atoms: C_9  and  C_10
REMARK    4  A    between atoms: C_10  and  C_11
REMARK    5  A    between atoms: C_15  and  C_16
REMARK                            x       y       z     vdW  Elec       q    Type
REMARK                         _______ _______ _______ _____ _____    ______ ____
ROOT
ATOM      1  C   UNL     1      48.655   7.000  14.474  0.00  0.00    +0.000 C 
ENDROOT
BRANCH   1   6
ATOM      2  C   UNL     1      49.046   5.022  19.153  0.00  0.00    +0.000 A 
ATOM      3  C   UNL     1      49.740   6.052  18.531  0.00  0.00    +0.000 A 
ATOM      4  C   UNL     1      49.433   6.367  17.209  0.00  0.00    +0.000 A 
ATOM      5  C   UNL     1      48.435   5.662  16.536  0.00  0.00    +0.000 A 
ATOM      6  N   UNL     1      48.072   5.929  15.244  0.00  0.00    +0.000 N 
ATOM      7  N   UNL     1      47.770   4.656  17.131  0.00  0.00    +0.000 NA
ATOM      8  C   UNL     1      48.093   4.347  18.413  0.00  0.00    +0.000 A 
ATOM      9  H   UNL     1      47.312   5.362  14.889  0.00  0.00    +0.000 HD
BRANCH   2  11
ATOM     10  N   UNL     1      50.596   4.535  20.955  0.00  0.00    +0.000 N 
ATOM     11  C   UNL     1      49.295   4.629  20.553  0.00  0.00    +0.000 C 
ATOM     12  O   UNL     1      48.371   4.424  21.332  0.00  0.00    +0.000 OA
ATOM     13  H   UNL     1      50.751   4.374  21.942  0.00  0.00    +0.000 HD
ATOM     14  H   UNL     1      51.356   4.938  20.425  0.00  0.00    +0.000 HD
ENDBRANCH   2  11
ENDBRANCH   1   6
BRANCH   1  15
ATOM     15  C   UNL     1      48.535   6.784  12.966  0.00  0.00    +0.000 C 
BRANCH  15  16
ATOM     16  C   UNL     1      47.118   7.137  12.577  0.00  0.00    +0.000 A 
ATOM     17  C   UNL     1      46.711   8.474  12.593  0.00  0.00    +0.000 A 
ATOM     18  C   UNL     1      45.514   8.837  11.992  0.00  0.00    +0.000 A 
ATOM     19  C   UNL     1      44.705   7.866  11.400  0.00  0.00    +0.000 A 
ATOM     20  C   UNL     1      45.033   6.503  11.455  0.00  0.00    +0.000 A 
ATOM     21  C   UNL     1      46.271   6.161  12.027  0.00  0.00    +0.000 A 
BRANCH  20  22
ATOM     22  C   UNL     1      44.135   5.404  10.885  0.00  0.00    +0.000 C 
ATOM     23  C   UNL     1      42.812   5.151  11.635  0.00  0.00    +0.000 C 
ATOM     24  C   UNL     1      43.029   4.449  12.982  0.00  0.00    +0.000 C 
ATOM     25  N   UNL     1      43.774   3.200  12.852  0.00  0.00    +0.000 NA
ATOM     26  C   UNL     1      45.043   3.388  12.145  0.00  0.00    +0.000 C 
ATOM     27  C   UNL     1      44.857   4.044  10.776  0.00  0.00    +0.000 C 
ATOM     28  H   UNL     1      43.205   2.520  12.349  0.00  0.00    +0.000 HD
ENDBRANCH  20  22
ENDBRANCH  15  16
ENDBRANCH   1  15
TORSDOF 5
ENDMDL
