MODEL 1
REMARK VINA RESULT:    -7.829      0.000      0.000
REMARK INTER + INTRA:         -13.168
REMARK INTER:                 -11.948
REMARK INTRA:                  -1.220
REMARK UNBOUND:                -1.220
REMARK  Name = 
REMARK  11 active torsions:
REMARK  status: ('A' for Active; 'I' for Inactive)
REMARK    1  A    between atoms: C_1  and  C_2
REMARK    2  A    between atoms: C_2  and  C_3
REMARK    3  A    between atoms: C_3  and  N_4
REMARK    4  A    between atoms: C_3  and  C_12
REMARK    5  A    between atoms: N_4  and  C_5
REMARK    6  A    between atoms: C_5  and  C_6
REMARK    7  A    between atoms: C_15  and  C_16
REMARK    8  A    between atoms: C_16  and  N_17
REMARK    9  A    between atoms: N_17  and  C_18
REMARK   10  A    between atoms: N_17  and  C_19
REMARK   11  A    between atoms: C_19  and  C_20
REMARK                            x       y       z     vdW  Elec       q    Type
REMARK                         _______ _______ _______ _____ _____    ______ ____
ROOT
ATOM      1  C   UNL     1      45.476   4.529  12.192  0.00  0.00    +0.000 A 
ATOM      2  C   UNL     1      45.880   5.677  11.493  0.00  0.00    +0.000 A 
ATOM      3  C   UNL     1      46.798   6.571  12.047  0.00  0.00    +0.000 A 
ATOM      4  C   UNL     1      47.317   6.358  13.328  0.00  0.00    +0.000 A 
ATOM      5  C   UNL     1      47.002   5.156  13.978  0.00  0.00    +0.000 A 
ATOM      6  C   UNL     1      46.088   4.258  13.424  0.00  0.00    +0.000 A 
ENDROOT
BRANCH   1   7
ATOM      7  C   UNL     1      44.325   3.685  11.649  0.00  0.00    +0.000 C 
BRANCH   7   9
ATOM      8  C   UNL     1      42.405   5.416  11.780  0.00  0.00    +0.000 C 
ATOM      9  C   UNL     1      43.305   4.567  10.891  0.00  0.00    +0.000 C 
ENDBRANCH   7   9
BRANCH   7  10
ATOM     10  N   UNL     1      44.810   2.573  10.802  0.00  0.00    +0.000 NA
ATOM     11  H   UNL     1      44.458   1.693  11.172  0.00  0.00    +0.000 HD
BRANCH  10  12
ATOM     12  C   UNL     1      44.362   2.697   9.408  0.00  0.00    +0.000 C 
BRANCH  12  13
ATOM     13  C   UNL     1      45.490   2.606   8.406  0.00  0.00    +0.000 A 
ATOM     14  C   UNL     1      46.189   1.399   8.233  0.00  0.00    +0.000 A 
ATOM     15  C   UNL     1      47.178   1.282   7.254  0.00  0.00    +0.000 A 
ATOM     16  C   UNL     1      47.479   2.369   6.438  0.00  0.00    +0.000 A 
ATOM     17  C   UNL     1      46.798   3.575   6.605  0.00  0.00    +0.000 A 
ATOM     18  C   UNL     1      45.809   3.693   7.583  0.00  0.00    +0.000 A 
ENDBRANCH  12  13
ENDBRANCH  10  12
ENDBRANCH   7  10
ENDBRANCH   1   7
BRANCH   4  19
ATOM     19  C   UNL     1      48.205   7.346  14.063  0.00  0.00    +0.000 C 
BRANCH  19  20
ATOM     20  N   UNL     1      49.431   6.802  14.690  0.00  0.00    +0.000 NA
ATOM     21  C   UNL     1      50.613   7.618  14.375  0.00  0.00    +0.000 C 
BRANCH  20  22
ATOM     22  C   UNL     1      49.275   6.794  16.168  0.00  0.00    +0.000 C 
BRANCH  22  23
ATOM     23  C   UNL     1      49.187   5.410  16.788  0.00  0.00    +0.000 A 
ATOM     24  C   UNL     1      47.959   4.911  17.219  0.00  0.00    +0.000 A 
ATOM     25  C   UNL     1      47.931   3.692  17.882  0.00  0.00    +0.000 A 
ATOM     26  C   UNL     1      49.117   2.999  18.091  0.00  0.00    +0.000 A 
ATOM     27  C   UNL     1      50.288   3.557  17.621  0.00  0.00    +0.000 A 
ATOM     28  N   UNL     1      50.357   4.743  16.978  0.00  0.00    +0.000 NA
ENDBRANCH  22  23
ENDBRANCH  20  22
ENDBRANCH  19  20
ENDBRANCH   4  19
TORSDOF 9
ENDMDL
MODEL 2
REMARK VINA RESULT:    -7.380      1.052      1.815
REMARK INTER + INTRA:         -12.483
REMARK INTER:                 -11.278
REMARK INTRA:                  -1.204
REMARK UNBOUND:                -1.220
REMARK  Name = 
REMARK  11 active torsions:
REMARK  status: ('A' for Active; 'I' for Inactive)
REMARK    1  A    between atoms: C_1  and  C_2
REMARK    2  A    between atoms: C_2  and  C_3
REMARK    3  A    between atoms: C_3  and  N_4
REMARK    4  A    between atoms: C_3  and  C_12
REMARK    5  A    between atoms: N_4  and  C_5
REMARK    6  A    between atoms: C_5  and  C_6
REMARK    7  A    between atoms: C_15  and  C_16
REMARK    8  A    between atoms: C_16  and  N_17
REMARK    9  A    between atoms: N_17  and  C_18
REMARK   10  A    between atoms: N_17  and  C_19
REMARK   11  A    between atoms: C_19  and  C_20
REMARK                            x       y       z     vdW  Elec       q    Type
REMARK                         _______ _______ _______ _____ _____    ______ ____
ROOT
ATOM      1  C   UNL     1      45.852   5.313  11.924  0.00  0.00    +0.000 A 
ATOM      2  C   UNL     1      46.301   4.779  13.142  0.00  0.00    +0.000 A 
ATOM      3  C   UNL     1      47.170   5.496  13.965  0.00  0.00    +0.000 A 
ATOM      4  C   UNL     1      47.639   6.757  13.581  0.00  0.00    +0.000 A 
ATOM      5  C   UNL     1      47.104   7.336  12.422  0.00  0.00    +0.000 A 
ATOM      6  C   UNL     1      46.230   6.624  11.600  0.00  0.00    +0.000 A 
ENDROOT
BRANCH   1   7
ATOM      7  C   UNL     1      45.069   4.426  10.958  0.00  0.00    +0.000 C 
BRANCH   7   9
ATOM      8  C   UNL     1      42.750   5.331  11.667  0.00  0.00    +0.000 C 
ATOM      9  C   UNL     1      43.658   4.118  11.514  0.00  0.00    +0.000 C 
ENDBRANCH   7   9
BRANCH   7  10
ATOM     10  N   UNL     1      44.997   5.018   9.603  0.00  0.00    +0.000 NA
ATOM     11  H   UNL     1      45.932   5.293   9.310  0.00  0.00    +0.000 HD
BRANCH  10  12
ATOM     12  C   UNL     1      44.462   4.075   8.610  0.00  0.00    +0.000 C 
BRANCH  12  13
ATOM     13  C   UNL     1      45.511   3.148   8.040  0.00  0.00    +0.000 A 
ATOM     14  C   UNL     1      46.505   3.645   7.180  0.00  0.00    +0.000 A 
ATOM     15  C   UNL     1      47.525   2.814   6.713  0.00  0.00    +0.000 A 
ATOM     16  C   UNL     1      47.563   1.477   7.100  0.00  0.00    +0.000 A 
ATOM     17  C   UNL     1      46.579   0.969   7.948  0.00  0.00    +0.000 A 
ATOM     18  C   UNL     1      45.558   1.800   8.415  0.00  0.00    +0.000 A 
ENDBRANCH  12  13
ENDBRANCH  10  12
ENDBRANCH   7  10
ENDBRANCH   1   7
BRANCH   4  19
ATOM     19  C   UNL     1      48.694   7.542  14.341  0.00  0.00    +0.000 C 
BRANCH  19  20
ATOM     20  N   UNL     1      49.642   6.758  15.164  0.00  0.00    +0.000 NA
ATOM     21  C   UNL     1      50.991   7.344  15.148  0.00  0.00    +0.000 C 
BRANCH  20  22
ATOM     22  C   UNL     1      49.181   6.738  16.577  0.00  0.00    +0.000 C 
BRANCH  22  23
ATOM     23  C   UNL     1      48.871   5.355  17.123  0.00  0.00    +0.000 A 
ATOM     24  C   UNL     1      49.889   4.415  17.273  0.00  0.00    +0.000 A 
ATOM     25  C   UNL     1      49.553   3.126  17.667  0.00  0.00    +0.000 A 
ATOM     26  C   UNL     1      48.222   2.810  17.909  0.00  0.00    +0.000 A 
ATOM     27  C   UNL     1      47.277   3.804  17.750  0.00  0.00    +0.000 A 
ATOM     28  N   UNL     1      47.563   5.065  17.362  0.00  0.00    +0.000 NA
ENDBRANCH  22  23
ENDBRANCH  20  22
ENDBRANCH  19  20
ENDBRANCH   4  19
TORSDOF 9
ENDMDL
MODEL 3
REMARK VINA RESULT:    -7.212      1.319      8.482
REMARK INTER + INTRA:         -12.227
REMARK INTER:                 -10.956
REMARK INTRA:                  -1.271
REMARK UNBOUND:                -1.220
REMARK  Name = 
REMARK  11 active torsions:
REMARK  status: ('A' for Active; 'I' for Inactive)
REMARK    1  A    between atoms: C_1  and  C_2
REMARK    2  A    between atoms: C_2  and  C_3
REMARK    3  A    between atoms: C_3  and  N_4
REMARK    4  A    between atoms: C_3  and  C_12
REMARK    5  A    between atoms: N_4  and  C_5
REMARK    6  A    between atoms: C_5  and  C_6
REMARK    7  A    between atoms: C_15  and  C_16
REMARK    8  A    between atoms: C_16  and  N_17
REMARK    9  A    between atoms: N_17  and  C_18
REMARK   10  A    between atoms: N_17  and  C_19
REMARK   11  A    between atoms: C_19  and  C_20
REMARK                            x       y       z     vdW  Elec       q    Type
REMARK                         _______ _______ _______ _____ _____    ______ ____
ROOT
ATOM      1  C   UNL     1      48.065   6.198  14.244  0.00  0.00    +0.000 A 
ATOM      2  C   UNL     1      47.237   5.065  14.215  0.00  0.00    +0.000 A 
ATOM      3  C   UNL     1      46.333   4.863  13.171  0.00  0.00    +0.000 A 
ATOM      4  C   UNL     1      46.209   5.801  12.142  0.00  0.00    +0.000 A 
ATOM      5  C   UNL     1      47.113   6.873  12.112  0.00  0.00    +0.000 A 
ATOM      6  C   UNL     1      48.023   7.075  13.151  0.00  0.00    +0.000 A 
ENDROOT
BRANCH   1   7
ATOM      7  C   UNL     1      48.893   6.491  15.494  0.00  0.00    +0.000 C 
BRANCH   7   9
ATOM      8  C   UNL     1      51.215   7.611  15.257  0.00  0.00    +0.000 C 
ATOM      9  C   UNL     1      49.705   7.798  15.323  0.00  0.00    +0.000 C 
ENDBRANCH   7   9
BRANCH   7  10
ATOM     10  N   UNL     1      48.055   6.534  16.713  0.00  0.00    +0.000 NA
ATOM     11  H   UNL     1      47.178   6.050  16.531  0.00  0.00    +0.000 HD
BRANCH  10  12
ATOM     12  C   UNL     1      48.707   5.889  17.861  0.00  0.00    +0.000 C 
BRANCH  12  13
ATOM     13  C   UNL     1      49.311   4.544  17.529  0.00  0.00    +0.000 A 
ATOM     14  C   UNL     1      50.686   4.319  17.714  0.00  0.00    +0.000 A 
ATOM     15  C   UNL     1      51.239   3.058  17.487  0.00  0.00    +0.000 A 
ATOM     16  C   UNL     1      50.425   2.008  17.072  0.00  0.00    +0.000 A 
ATOM     17  C   UNL     1      49.060   2.219  16.877  0.00  0.00    +0.000 A 
ATOM     18  C   UNL     1      48.506   3.480  17.104  0.00  0.00    +0.000 A 
ENDBRANCH  12  13
ENDBRANCH  10  12
ENDBRANCH   7  10
ENDBRANCH   1   7
BRANCH   4  19
ATOM     19  C   UNL     1      45.156   5.735  11.049  0.00  0.00    +0.000 C 
BRANCH  19  20
ATOM     20  N   UNL     1      44.526   4.417  10.812  0.00  0.00    +0.000 NA
ATOM     21  C   UNL     1      43.280   4.262  11.578  0.00  0.00    +0.000 C 
BRANCH  20  22
ATOM     22  C   UNL     1      44.185   4.277   9.372  0.00  0.00    +0.000 C 
BRANCH  22  23
ATOM     23  C   UNL     1      45.180   3.465   8.560  0.00  0.00    +0.000 A 
ATOM     24  C   UNL     1      45.324   2.099   8.791  0.00  0.00    +0.000 A 
ATOM     25  C   UNL     1      46.321   1.410   8.112  0.00  0.00    +0.000 A 
ATOM     26  C   UNL     1      47.137   2.093   7.219  0.00  0.00    +0.000 A 
ATOM     27  C   UNL     1      46.919   3.443   7.039  0.00  0.00    +0.000 A 
ATOM     28  N   UNL     1      45.966   4.149   7.685  0.00  0.00    +0.000 NA
ENDBRANCH  22  23
ENDBRANCH  20  22
ENDBRANCH  19  20
ENDBRANCH   4  19
TORSDOF 9
ENDMDL
MODEL 4
REMARK VINA RESULT:    -6.860      2.485      4.828
REMARK INTER + INTRA:         -11.690
REMARK INTER:                 -10.587
REMARK INTRA:                  -1.103
REMARK UNBOUND:                -1.220
REMARK  Name = 
REMARK  11 active torsions:
REMARK  status: ('A' for Active; 'I' for Inactive)
REMARK    1  A    between atoms: C_1  and  C_2
REMARK    2  A    between atoms: C_2  and  C_3
REMARK    3  A    between atoms: C_3  and  N_4
REMARK    4  A    between atoms: C_3  and  C_12
REMARK    5  A    between atoms: N_4  and  C_5
REMARK    6  A    between atoms: C_5  and  C_6
REMARK    7  A    between atoms: C_15  and  C_16
REMARK    8  A    between atoms: C_16  and  N_17
REMARK    9  A    between atoms: N_17  and  C_18
REMARK   10  A    between atoms: N_17  and  C_19
REMARK   11  A    between atoms: C_19  and  C_20
REMARK                            x       y       z     vdW  Elec       q    Type
REMARK                         _______ _______ _______ _____ _____    ______ ____
ROOT
ATOM      1  C   UNL     1      45.517   4.641  11.896  0.00  0.00    +0.000 A 
ATOM      2  C   UNL     1      45.987   5.767  11.201  0.00  0.00    +0.000 A 
ATOM      3  C   UNL     1      46.950   6.607  11.762  0.00  0.00    +0.000 A 
ATOM      4  C   UNL     1      47.451   6.363  13.045  0.00  0.00    +0.000 A 
ATOM      5  C   UNL     1      47.066   5.179  13.690  0.00  0.00    +0.000 A 
ATOM      6  C   UNL     1      46.108   4.333  13.129  0.00  0.00    +0.000 A 
ENDROOT
BRANCH   1   7
ATOM      7  C   UNL     1      44.325   3.862  11.344  0.00  0.00    +0.000 C 
BRANCH   7   9
ATOM      8  C   UNL     1      42.408   5.501  11.926  0.00  0.00    +0.000 C 
ATOM      9  C   UNL     1      43.226   4.825  10.834  0.00  0.00    +0.000 C 
ENDBRANCH   7   9
BRANCH   7  10
ATOM     10  N   UNL     1      44.731   2.903  10.294  0.00  0.00    +0.000 NA
ATOM     11  H   UNL     1      44.060   2.139  10.262  0.00  0.00    +0.000 HD
BRANCH  10  12
ATOM     12  C   UNL     1      44.785   3.523   8.962  0.00  0.00    +0.000 C 
BRANCH  12  13
ATOM     13  C   UNL     1      45.678   2.784   7.993  0.00  0.00    +0.000 A 
ATOM     14  C   UNL     1      46.132   3.416   6.823  0.00  0.00    +0.000 A 
ATOM     15  C   UNL     1      47.022   2.770   5.963  0.00  0.00    +0.000 A 
ATOM     16  C   UNL     1      47.468   1.486   6.263  0.00  0.00    +0.000 A 
ATOM     17  C   UNL     1      47.019   0.844   7.417  0.00  0.00    +0.000 A 
ATOM     18  C   UNL     1      46.129   1.489   8.278  0.00  0.00    +0.000 A 
ENDBRANCH  12  13
ENDBRANCH  10  12
ENDBRANCH   7  10
ENDBRANCH   1   7
BRANCH   4  19
ATOM     19  C   UNL     1      48.388   7.300  13.786  0.00  0.00    +0.000 C 
BRANCH  19  20
ATOM     20  N   UNL     1      47.971   8.716  13.886  0.00  0.00    +0.000 NA
ATOM     21  C   UNL     1      48.478   9.349  15.114  0.00  0.00    +0.000 C 
BRANCH  20  22
ATOM     22  C   UNL     1      48.516   9.481  12.733  0.00  0.00    +0.000 C 
BRANCH  22  23
ATOM     23  C   UNL     1      47.494  10.331  11.997  0.00  0.00    +0.000 A 
ATOM     24  C   UNL     1      46.142  10.000  12.045  0.00  0.00    +0.000 A 
ATOM     25  C   UNL     1      45.249  10.730  11.271  0.00  0.00    +0.000 A 
ATOM     26  C   UNL     1      45.722  11.769  10.479  0.00  0.00    +0.000 A 
ATOM     27  C   UNL     1      47.076  12.040  10.500  0.00  0.00    +0.000 A 
ATOM     28  N   UNL     1      47.975  11.349  11.233  0.00  0.00    +0.000 NA
ENDBRANCH  22  23
ENDBRANCH  20  22
ENDBRANCH  19  20
ENDBRANCH   4  19
TORSDOF 9
ENDMDL
MODEL 5
REMARK VINA RESULT:    -6.693      1.840      2.587
REMARK INTER + INTRA:         -11.435
REMARK INTER:                 -10.400
REMARK INTRA:                  -1.035
REMARK UNBOUND:                -1.220
REMARK  Name = 
REMARK  11 active torsions:
REMARK  status: ('A' for Active; 'I' for Inactive)
REMARK    1  A    between atoms: C_1  and  C_2
REMARK    2  A    between atoms: C_2  and  C_3
REMARK    3  A    between atoms: C_3  and  N_4
REMARK    4  A    between atoms: C_3  and  C_12
REMARK    5  A    between atoms: N_4  and  C_5
REMARK    6  A    between atoms: C_5  and  C_6
REMARK    7  A    between atoms: C_15  and  C_16
REMARK    8  A    between atoms: C_16  and  N_17
REMARK    9  A    between atoms: N_17  and  C_18
REMARK   10  A    between atoms: N_17  and  C_19
REMARK   11  A    between atoms: C_19  and  C_20
REMARK                            x       y       z     vdW  Elec       q    Type
REMARK                         _______ _______ _______ _____ _____    ______ ____
ROOT
ATOM      1  C   UNL     1      45.620   4.876  12.281  0.00  0.00    +0.000 A 
ATOM      2  C   UNL     1      46.049   5.904  11.428  0.00  0.00    +0.000 A 
ATOM      3  C   UNL     1      46.982   6.850  11.855  0.00  0.00    +0.000 A 
ATOM      4  C   UNL     1      47.491   6.813  13.158  0.00  0.00    +0.000 A 
ATOM      5  C   UNL     1      47.148   5.722  13.970  0.00  0.00    +0.000 A 
ATOM      6  C   UNL     1      46.220   4.772  13.543  0.00  0.00    +0.000 A 
ENDROOT
BRANCH   1   7
ATOM      7  C   UNL     1      44.455   3.984  11.854  0.00  0.00    +0.000 C 
BRANCH   7   9
ATOM      8  C   UNL     1      42.334   5.467  11.829  0.00  0.00    +0.000 C 
ATOM      9  C   UNL     1      43.427   4.783  11.018  0.00  0.00    +0.000 C 
ENDBRANCH   7   9
BRANCH   7  10
ATOM     10  N   UNL     1      44.919   2.781  11.130  0.00  0.00    +0.000 NA
ATOM     11  H   UNL     1      44.654   1.951  11.657  0.00  0.00    +0.000 HD
BRANCH  10  12
ATOM     12  C   UNL     1      44.334   2.677   9.786  0.00  0.00    +0.000 C 
BRANCH  12  13
ATOM     13  C   UNL     1      45.368   2.664   8.683  0.00  0.00    +0.000 A 
ATOM     14  C   UNL     1      45.730   3.856   8.035  0.00  0.00    +0.000 A 
ATOM     15  C   UNL     1      46.740   3.867   7.072  0.00  0.00    +0.000 A 
ATOM     16  C   UNL     1      47.401   2.685   6.747  0.00  0.00    +0.000 A 
ATOM     17  C   UNL     1      47.047   1.493   7.378  0.00  0.00    +0.000 A 
ATOM     18  C   UNL     1      46.036   1.481   8.341  0.00  0.00    +0.000 A 
ENDBRANCH  12  13
ENDBRANCH  10  12
ENDBRANCH   7  10
ENDBRANCH   1   7
BRANCH   4  19
ATOM     19  C   UNL     1      48.394   7.880  13.751  0.00  0.00    +0.000 C 
BRANCH  19  20
ATOM     20  N   UNL     1      49.853   7.661  13.626  0.00  0.00    +0.000 NA
ATOM     21  C   UNL     1      50.529   8.822  13.028  0.00  0.00    +0.000 C 
BRANCH  20  22
ATOM     22  C   UNL     1      50.444   7.446  14.973  0.00  0.00    +0.000 C 
BRANCH  22  23
ATOM     23  C   UNL     1      49.708   8.141  16.106  0.00  0.00    +0.000 A 
ATOM     24  C   UNL     1      48.918   7.404  16.986  0.00  0.00    +0.000 A 
ATOM     25  C   UNL     1      48.170   8.083  17.939  0.00  0.00    +0.000 A 
ATOM     26  C   UNL     1      48.235   9.469  17.999  0.00  0.00    +0.000 A 
ATOM     27  C   UNL     1      49.053  10.122  17.099  0.00  0.00    +0.000 A 
ATOM     28  N   UNL     1      49.789   9.498  16.154  0.00  0.00    +0.000 NA
ENDBRANCH  22  23
ENDBRANCH  20  22
ENDBRANCH  19  20
ENDBRANCH   4  19
TORSDOF 9
ENDMDL
MODEL 6
REMARK VINA RESULT:    -6.342      1.681      2.294
REMARK INTER + INTRA:         -10.899
REMARK INTER:                  -9.603
REMARK INTRA:                  -1.297
REMARK UNBOUND:                -1.220
REMARK  Name = 
REMARK  11 active torsions:
REMARK  status: ('A' for Active; 'I' for Inactive)
REMARK    1  A    between atoms: C_1  and  C_2
REMARK    2  A    between atoms: C_2  and  C_3
REMARK    3  A    between atoms: C_3  and  N_4
REMARK    4  A    between atoms: C_3  and  C_12
REMARK    5  A    between atoms: N_4  and  C_5
REMARK    6  A    between atoms: C_5  and  C_6
REMARK    7  A    between atoms: C_15  and  C_16
REMARK    8  A    between atoms: C_16  and  N_17
REMARK    9  A    between atoms: N_17  and  C_18
REMARK   10  A    between atoms: N_17  and  C_19
REMARK   11  A    between atoms: C_19  and  C_20
REMARK                            x       y       z     vdW  Elec       q    Type
REMARK                         _______ _______ _______ _____ _____    ______ ____
ROOT
ATOM      1  C   UNL     1      46.314   6.018  12.068  0.00  0.00    +0.000 A 
ATOM      2  C   UNL     1      45.904   7.353  11.921  0.00  0.00    +0.000 A 
ATOM      3  C   UNL     1      46.594   8.390  12.550  0.00  0.00    +0.000 A 
ATOM      4  C   UNL     1      47.696   8.121  13.368  0.00  0.00    +0.000 A 
ATOM      5  C   UNL     1      48.172   6.803  13.423  0.00  0.00    +0.000 A 
ATOM      6  C   UNL     1      47.488   5.765  12.791  0.00  0.00    +0.000 A 
ENDROOT
BRANCH   1   7
ATOM      7  C   UNL     1      45.423   4.896  11.537  0.00  0.00    +0.000 C 
BRANCH   7   9
ATOM      8  C   UNL     1      43.329   5.125  13.041  0.00  0.00    +0.000 C 
ATOM      9  C   UNL     1      44.554   4.300  12.669  0.00  0.00    +0.000 C 
ENDBRANCH   7   9
BRANCH   7  10
ATOM     10  N   UNL     1      44.591   5.346  10.399  0.00  0.00    +0.000 NA
ATOM     11  H   UNL     1      45.173   5.865   9.745  0.00  0.00    +0.000 HD
BRANCH  10  12
ATOM     12  C   UNL     1      43.979   4.222   9.677  0.00  0.00    +0.000 C 
BRANCH  12  13
ATOM     13  C   UNL     1      44.963   3.443   8.835  0.00  0.00    +0.000 A 
ATOM     14  C   UNL     1      45.827   4.113   7.953  0.00  0.00    +0.000 A 
ATOM     15  C   UNL     1      46.795   3.412   7.232  0.00  0.00    +0.000 A 
ATOM     16  C   UNL     1      46.909   2.033   7.384  0.00  0.00    +0.000 A 
ATOM     17  C   UNL     1      46.053   1.354   8.251  0.00  0.00    +0.000 A 
ATOM     18  C   UNL     1      45.085   2.055   8.973  0.00  0.00    +0.000 A 
ENDBRANCH  12  13
ENDBRANCH  10  12
ENDBRANCH   7  10
ENDBRANCH   1   7
BRANCH   4  19
ATOM     19  C   UNL     1      48.415   9.168  14.202  0.00  0.00    +0.000 C 
BRANCH  19  20
ATOM     20  N   UNL     1      49.320   8.668  15.261  0.00  0.00    +0.000 NA
ATOM     21  C   UNL     1      50.662   9.261  15.156  0.00  0.00    +0.000 C 
BRANCH  20  22
ATOM     22  C   UNL     1      48.775   9.031  16.596  0.00  0.00    +0.000 C 
BRANCH  22  23
ATOM     23  C   UNL     1      48.410   7.846  17.474  0.00  0.00    +0.000 A 
ATOM     24  C   UNL     1      47.883   8.053  18.747  0.00  0.00    +0.000 A 
ATOM     25  C   UNL     1      47.665   6.953  19.566  0.00  0.00    +0.000 A 
ATOM     26  C   UNL     1      47.968   5.681  19.095  0.00  0.00    +0.000 A 
ATOM     27  C   UNL     1      48.474   5.562  17.817  0.00  0.00    +0.000 A 
ATOM     28  N   UNL     1      48.706   6.608  16.995  0.00  0.00    +0.000 NA
ENDBRANCH  22  23
ENDBRANCH  20  22
ENDBRANCH  19  20
ENDBRANCH   4  19
TORSDOF 9
ENDMDL
MODEL 7
REMARK VINA RESULT:    -6.328      1.872      8.128
REMARK INTER + INTRA:         -10.877
REMARK INTER:                  -9.589
REMARK INTRA:                  -1.288
REMARK UNBOUND:                -1.220
REMARK  Name = 
REMARK  11 active torsions:
REMARK  status: ('A' for Active; 'I' for Inactive)
REMARK    1  A    between atoms: C_1  and  C_2
REMARK    2  A    between atoms: C_2  and  C_3
REMARK    3  A    between atoms: C_3  and  N_4
REMARK    4  A    between atoms: C_3  and  C_12
REMARK    5  A    between atoms: N_4  and  C_5
REMARK    6  A    between atoms: C_5  and  C_6
REMARK    7  A    between atoms: C_15  and  C_16
REMARK    8  A    between atoms: C_16  and  N_17
REMARK    9  A    between atoms: N_17  and  C_18
REMARK   10  A    between atoms: N_17  and  C_19
REMARK   11  A    between atoms: C_19  and  C_20
REMARK                            x       y       z     vdW  Elec       q    Type
REMARK                         _______ _______ _______ _____ _____    ______ ____
ROOT
ATOM      1  C   UNL     1      47.388   6.142  14.012  0.00  0.00    +0.000 A 
ATOM      2  C   UNL     1      46.747   7.080  13.188  0.00  0.00    +0.000 A 
ATOM      3  C   UNL     1      45.847   6.674  12.201  0.00  0.00    +0.000 A 
ATOM      4  C   UNL     1      45.585   5.317  11.990  0.00  0.00    +0.000 A 
ATOM      5  C   UNL     1      46.137   4.390  12.886  0.00  0.00    +0.000 A 
ATOM      6  C   UNL     1      47.032   4.793  13.877  0.00  0.00    +0.000 A 
ENDROOT
BRANCH   1   7
ATOM      7  C   UNL     1      48.512   6.601  14.940  0.00  0.00    +0.000 C 
BRANCH   7   9
ATOM      8  C   UNL     1      48.085   5.896  17.394  0.00  0.00    +0.000 C 
ATOM      9  C   UNL     1      48.754   5.567  16.065  0.00  0.00    +0.000 C 
ENDBRANCH   7   9
BRANCH   7  10
ATOM     10  N   UNL     1      49.757   6.889  14.195  0.00  0.00    +0.000 NA
ATOM     11  H   UNL     1      49.596   6.732  13.203  0.00  0.00    +0.000 HD
BRANCH  10  12
ATOM     12  C   UNL     1      50.207   8.277  14.374  0.00  0.00    +0.000 C 
BRANCH  12  13
ATOM     13  C   UNL     1      49.644   9.225  13.341  0.00  0.00    +0.000 A 
ATOM     14  C   UNL     1      50.028   9.115  11.994  0.00  0.00    +0.000 A 
ATOM     15  C   UNL     1      49.453   9.933  11.019  0.00  0.00    +0.000 A 
ATOM     16  C   UNL     1      48.489  10.871  11.381  0.00  0.00    +0.000 A 
ATOM     17  C   UNL     1      48.105  10.995  12.715  0.00  0.00    +0.000 A 
ATOM     18  C   UNL     1      48.679  10.178  13.691  0.00  0.00    +0.000 A 
ENDBRANCH  12  13
ENDBRANCH  10  12
ENDBRANCH   7  10
ENDBRANCH   1   7
BRANCH   4  19
ATOM     19  C   UNL     1      44.736   4.780  10.851  0.00  0.00    +0.000 C 
BRANCH  19  20
ATOM     20  N   UNL     1      44.600   3.309  10.758  0.00  0.00    +0.000 NA
ATOM     21  C   UNL     1      43.514   2.807  11.612  0.00  0.00    +0.000 C 
BRANCH  20  22
ATOM     22  C   UNL     1      44.281   2.924   9.358  0.00  0.00    +0.000 C 
BRANCH  22  23
ATOM     23  C   UNL     1      45.487   2.542   8.515  0.00  0.00    +0.000 A 
ATOM     24  C   UNL     1      46.101   3.491   7.700  0.00  0.00    +0.000 A 
ATOM     25  C   UNL     1      47.128   3.082   6.860  0.00  0.00    +0.000 A 
ATOM     26  C   UNL     1      47.521   1.749   6.859  0.00  0.00    +0.000 A 
ATOM     27  C   UNL     1      46.869   0.877   7.707  0.00  0.00    +0.000 A 
ATOM     28  N   UNL     1      45.862   1.235   8.533  0.00  0.00    +0.000 NA
ENDBRANCH  22  23
ENDBRANCH  20  22
ENDBRANCH  19  20
ENDBRANCH   4  19
TORSDOF 9
ENDMDL
MODEL 8
REMARK VINA RESULT:    -6.223      1.625      8.396
REMARK INTER + INTRA:         -10.717
REMARK INTER:                  -9.145
REMARK INTRA:                  -1.573
REMARK UNBOUND:                -1.220
REMARK  Name = 
REMARK  11 active torsions:
REMARK  status: ('A' for Active; 'I' for Inactive)
REMARK    1  A    between atoms: C_1  and  C_2
REMARK    2  A    between atoms: C_2  and  C_3
REMARK    3  A    between atoms: C_3  and  N_4
REMARK    4  A    between atoms: C_3  and  C_12
REMARK    5  A    between atoms: N_4  and  C_5
REMARK    6  A    between atoms: C_5  and  C_6
REMARK    7  A    between atoms: C_15  and  C_16
REMARK    8  A    between atoms: C_16  and  N_17
REMARK    9  A    between atoms: N_17  and  C_18
REMARK   10  A    between atoms: N_17  and  C_19
REMARK   11  A    between atoms: C_19  and  C_20
REMARK                            x       y       z     vdW  Elec       q    Type
REMARK                         _______ _______ _______ _____ _____    ______ ____
ROOT
ATOM      1  C   UNL     1      49.146   8.100  14.422  0.00  0.00    +0.000 A 
ATOM      2  C   UNL     1      49.440   7.251  13.345  0.00  0.00    +0.000 A 
ATOM      3  C   UNL     1      48.455   6.891  12.423  0.00  0.00    +0.000 A 
ATOM      4  C   UNL     1      47.141   7.346  12.569  0.00  0.00    +0.000 A 
ATOM      5  C   UNL     1      46.874   8.283  13.578  0.00  0.00    +0.000 A 
ATOM      6  C   UNL     1      47.858   8.649  14.497  0.00  0.00    +0.000 A 
ENDROOT
BRANCH   1   7
ATOM      7  C   UNL     1      50.188   8.310  15.520  0.00  0.00    +0.000 C 
BRANCH   7   9
ATOM      8  C   UNL     1      51.613  10.419  15.047  0.00  0.00    +0.000 C 
ATOM      9  C   UNL     1      50.419   9.818  15.778  0.00  0.00    +0.000 C 
ENDBRANCH   7   9
BRANCH   7  10
ATOM     10  N   UNL     1      49.826   7.599  16.766  0.00  0.00    +0.000 NA
ATOM     11  H   UNL     1      48.813   7.553  16.842  0.00  0.00    +0.000 HD
BRANCH  10  12
ATOM     12  C   UNL     1      50.351   6.226  16.797  0.00  0.00    +0.000 C 
BRANCH  12  13
ATOM     13  C   UNL     1      49.284   5.183  17.037  0.00  0.00    +0.000 A 
ATOM     14  C   UNL     1      48.110   5.179  16.265  0.00  0.00    +0.000 A 
ATOM     15  C   UNL     1      47.156   4.173  16.424  0.00  0.00    +0.000 A 
ATOM     16  C   UNL     1      47.365   3.159  17.355  0.00  0.00    +0.000 A 
ATOM     17  C   UNL     1      48.522   3.155  18.132  0.00  0.00    +0.000 A 
ATOM     18  C   UNL     1      49.477   4.161  17.975  0.00  0.00    +0.000 A 
ENDBRANCH  12  13
ENDBRANCH  10  12
ENDBRANCH   7  10
ENDBRANCH   1   7
BRANCH   4  19
ATOM     19  C   UNL     1      45.980   6.892  11.702  0.00  0.00    +0.000 C 
BRANCH  19  20
ATOM     20  N   UNL     1      45.666   5.446  11.714  0.00  0.00    +0.000 NA
ATOM     21  C   UNL     1      45.139   5.013  13.017  0.00  0.00    +0.000 C 
BRANCH  20  22
ATOM     22  C   UNL     1      44.628   5.150  10.692  0.00  0.00    +0.000 C 
BRANCH  22  23
ATOM     23  C   UNL     1      45.058   4.166   9.618  0.00  0.00    +0.000 A 
ATOM     24  C   UNL     1      44.880   2.797   9.809  0.00  0.00    +0.000 A 
ATOM     25  C   UNL     1      45.386   1.921   8.858  0.00  0.00    +0.000 A 
ATOM     26  C   UNL     1      46.044   2.426   7.743  0.00  0.00    +0.000 A 
ATOM     27  C   UNL     1      46.165   3.796   7.624  0.00  0.00    +0.000 A 
ATOM     28  N   UNL     1      45.693   4.679   8.530  0.00  0.00    +0.000 NA
ENDBRANCH  22  23
ENDBRANCH  20  22
ENDBRANCH  19  20
ENDBRANCH   4  19
TORSDOF 9
ENDMDL
MODEL 9
REMARK VINA RESULT:    -6.146      2.691      9.103
REMARK INTER + INTRA:         -10.599
REMARK INTER:                  -9.077
REMARK INTRA:                  -1.522
REMARK UNBOUND:                -1.220
REMARK  Name = 
REMARK  11 active torsions:
REMARK  status: ('A' for Active; 'I' for Inactive)
REMARK    1  A    between atoms: C_1  and  C_2
REMARK    2  A    between atoms: C_2  and  C_3
REMARK    3  A    between atoms: C_3  and  N_4
REMARK    4  A    between atoms: C_3  and  C_12
REMARK    5  A    between atoms: N_4  and  C_5
REMARK    6  A    between atoms: C_5  and  C_6
REMARK    7  A    between atoms: C_15  and  C_16
REMARK    8  A    between atoms: C_16  and  N_17
REMARK    9  A    between atoms: N_17  and  C_18
REMARK   10  A    between atoms: N_17  and  C_19
REMARK   11  A    between atoms: C_19  and  C_20
REMARK                            x       y       z     vdW  Elec       q    Type
REMARK                         _______ _______ _______ _____ _____    ______ ____
ROOT
ATOM      1  C   UNL     1      48.385   4.859  16.710  0.00  0.00    +0.000 A 
ATOM      2  C   UNL     1      48.902   6.068  16.220  0.00  0.00    +0.000 A 
ATOM      3  C   UNL     1      48.503   6.571  14.980  0.00  0.00    +0.000 A 
ATOM      4  C   UNL     1      47.598   5.865  14.182  0.00  0.00    +0.000 A 
ATOM      5  C   UNL     1      46.997   4.717  14.720  0.00  0.00    +0.000 A 
ATOM      6  C   UNL     1      47.389   4.216  15.961  0.00  0.00    +0.000 A 
ENDROOT
BRANCH   1   7
ATOM      7  C   UNL     1      48.990   4.239  17.968  0.00  0.00    +0.000 C 
BRANCH   7   9
ATOM      8  C   UNL     1      50.068   2.085  17.021  0.00  0.00    +0.000 C 
ATOM      9  C   UNL     1      50.285   3.463  17.631  0.00  0.00    +0.000 C 
ENDBRANCH   7   9
BRANCH   7  10
ATOM     10  N   UNL     1      49.225   5.250  19.022  0.00  0.00    +0.000 NA
ATOM     11  H   UNL     1      49.362   6.160  18.587  0.00  0.00    +0.000 HD
BRANCH  10  12
ATOM     12  C   UNL     1      48.097   5.354  19.959  0.00  0.00    +0.000 C 
BRANCH  12  13
ATOM     13  C   UNL     1      47.661   6.778  20.214  0.00  0.00    +0.000 A 
ATOM     14  C   UNL     1      47.459   7.234  21.528  0.00  0.00    +0.000 A 
ATOM     15  C   UNL     1      47.135   8.568  21.778  0.00  0.00    +0.000 A 
ATOM     16  C   UNL     1      47.008   9.462  20.718  0.00  0.00    +0.000 A 
ATOM     17  C   UNL     1      47.198   9.021  19.409  0.00  0.00    +0.000 A 
ATOM     18  C   UNL     1      47.522   7.686  19.157  0.00  0.00    +0.000 A 
ENDBRANCH  12  13
ENDBRANCH  10  12
ENDBRANCH   7  10
ENDBRANCH   1   7
BRANCH   4  19
ATOM     19  C   UNL     1      47.220   6.262  12.765  0.00  0.00    +0.000 C 
BRANCH  19  20
ATOM     20  N   UNL     1      46.135   7.258  12.620  0.00  0.00    +0.000 NA
ATOM     21  C   UNL     1      46.664   8.605  12.353  0.00  0.00    +0.000 C 
BRANCH  20  22
ATOM     22  C   UNL     1      45.264   6.886  11.475  0.00  0.00    +0.000 C 
BRANCH  22  23
ATOM     23  C   UNL     1      44.540   5.559  11.634  0.00  0.00    +0.000 A 
ATOM     24  C   UNL     1      43.842   5.278  12.807  0.00  0.00    +0.000 A 
ATOM     25  C   UNL     1      43.287   4.015  12.966  0.00  0.00    +0.000 A 
ATOM     26  C   UNL     1      43.433   3.073  11.955  0.00  0.00    +0.000 A 
ATOM     27  C   UNL     1      44.128   3.437  10.820  0.00  0.00    +0.000 A 
ATOM     28  N   UNL     1      44.687   4.652  10.632  0.00  0.00    +0.000 NA
ENDBRANCH  22  23
ENDBRANCH  20  22
ENDBRANCH  19  20
ENDBRANCH   4  19
TORSDOF 9
ENDMDL
