MODEL 1
REMARK VINA RESULT:    -8.131      0.000      0.000
REMARK INTER + INTRA:         -13.410
REMARK INTER:                 -11.934
REMARK INTRA:                  -1.475
REMARK UNBOUND:                -1.475
REMARK  Name = 
REMARK  10 active torsions:
REMARK  status: ('A' for Active; 'I' for Inactive)
REMARK    1  A    between atoms: C_1  and  C_2
REMARK    2  A    between atoms: C_2  and  C_3
REMARK    3  A    between atoms: C_2  and  N_10
REMARK    4  A    between atoms: C_3  and  C_4
REMARK    5  A    between atoms: N_10  and  C_11
REMARK    6  A    between atoms: N_10  and  C_12
REMARK    7  A    between atoms: C_12  and  C_13
REMARK    8  A    between atoms: C_16  and  C_17
REMARK    9  A    between atoms: C_17  and  N_18
REMARK   10  A    between atoms: C_19  and  C_21
REMARK                            x       y       z     vdW  Elec       q    Type
REMARK                         _______ _______ _______ _____ _____    ______ ____
ROOT
ATOM      1  C   UNL     1      45.006   6.901  11.339  0.00  0.00    +0.000 A 
ATOM      2  C   UNL     1      46.322   6.423  11.393  0.00  0.00    +0.000 A 
ATOM      3  C   UNL     1      47.263   6.942  12.271  0.00  0.00    +0.000 A 
ATOM      4  C   UNL     1      46.933   8.039  13.058  0.00  0.00    +0.000 A 
ATOM      5  C   UNL     1      45.673   8.632  12.898  0.00  0.00    +0.000 A 
ATOM      6  C   UNL     1      44.709   8.057  12.067  0.00  0.00    +0.000 A 
ENDROOT
BRANCH   1   7
ATOM      7  C   UNL     1      43.917   6.189  10.546  0.00  0.00    +0.000 C 
BRANCH   7   8
ATOM      8  N   UNL     1      43.545   4.821  11.006  0.00  0.00    +0.000 NA
ATOM      9  C   UNL     1      42.978   4.896  12.360  0.00  0.00    +0.000 C 
BRANCH   8  11
ATOM     10  C   UNL     1      44.937   3.109  12.252  0.00  0.00    +0.000 C 
ATOM     11  C   UNL     1      44.643   3.819  10.917  0.00  0.00    +0.000 C 
BRANCH  11  12
ATOM     12  C   UNL     1      44.392   2.732   9.820  0.00  0.00    +0.000 C 
BRANCH  12  13
ATOM     13  C   UNL     1      45.426   2.660   8.712  0.00  0.00    +0.000 A 
ATOM     14  C   UNL     1      46.005   1.423   8.403  0.00  0.00    +0.000 A 
ATOM     15  C   UNL     1      46.949   1.321   7.380  0.00  0.00    +0.000 A 
ATOM     16  C   UNL     1      47.315   2.447   6.646  0.00  0.00    +0.000 A 
ATOM     17  C   UNL     1      46.729   3.676   6.923  0.00  0.00    +0.000 A 
ATOM     18  C   UNL     1      45.781   3.778   7.939  0.00  0.00    +0.000 A 
ENDBRANCH  12  13
ENDBRANCH  11  12
ENDBRANCH   8  11
ENDBRANCH   7   8
ENDBRANCH   1   7
BRANCH   4  19
ATOM     19  C   UNL     1      47.935   8.611  14.015  0.00  0.00    +0.000 C 
BRANCH  19  20
ATOM     20  N   UNL     1      48.144   7.719  15.119  0.00  0.00    +0.000 N 
ATOM     21  C   UNL     1      49.348   7.095  15.300  0.00  0.00    +0.000 C 
ATOM     22  O   UNL     1      50.306   7.295  14.558  0.00  0.00    +0.000 OA
ATOM     23  H   UNL     1      47.314   7.349  15.574  0.00  0.00    +0.000 HD
BRANCH  21  24
ATOM     24  C   UNL     1      49.446   6.221  16.474  0.00  0.00    +0.000 A 
ATOM     25  C   UNL     1      50.411   6.478  17.438  0.00  0.00    +0.000 A 
ATOM     26  S   UNL     1      50.357   5.390  18.751  0.00  0.00    +0.000 S 
ATOM     27  C   UNL     1      49.074   4.517  18.052  0.00  0.00    +0.000 A 
ATOM     28  N   UNL     1      48.556   3.422  18.664  0.00  0.00    +0.000 NA
ATOM     29  C   UNL     1      47.601   2.841  18.010  0.00  0.00    +0.000 A 
ATOM     30  N   UNL     1      47.118   3.267  16.801  0.00  0.00    +0.000 N 
ATOM     31  C   UNL     1      47.589   4.391  16.157  0.00  0.00    +0.000 A 
ATOM     32  O   UNL     1      47.099   4.770  15.105  0.00  0.00    +0.000 OA
ATOM     33  C   UNL     1      48.679   5.062  16.847  0.00  0.00    +0.000 A 
ATOM     34  H   UNL     1      46.357   2.782  16.348  0.00  0.00    +0.000 HD
ENDBRANCH  21  24
ENDBRANCH  19  20
ENDBRANCH   4  19
TORSDOF 8
ENDMDL
MODEL 2
REMARK VINA RESULT:    -7.668      3.550      9.781
REMARK INTER + INTRA:         -12.729
REMARK INTER:                  -9.900
REMARK INTRA:                  -2.829
REMARK UNBOUND:                -1.475
REMARK  Name = 
REMARK  10 active torsions:
REMARK  status: ('A' for Active; 'I' for Inactive)
REMARK    1  A    between atoms: C_1  and  C_2
REMARK    2  A    between atoms: C_2  and  C_3
REMARK    3  A    between atoms: C_2  and  N_10
REMARK    4  A    between atoms: C_3  and  C_4
REMARK    5  A    between atoms: N_10  and  C_11
REMARK    6  A    between atoms: N_10  and  C_12
REMARK    7  A    between atoms: C_12  and  C_13
REMARK    8  A    between atoms: C_16  and  C_17
REMARK    9  A    between atoms: C_17  and  N_18
REMARK   10  A    between atoms: C_19  and  C_21
REMARK                            x       y       z     vdW  Elec       q    Type
REMARK                         _______ _______ _______ _____ _____    ______ ____
ROOT
ATOM      1  C   UNL     1      51.529   4.238  17.780  0.00  0.00    +0.000 A 
ATOM      2  C   UNL     1      50.727   5.311  17.367  0.00  0.00    +0.000 A 
ATOM      3  C   UNL     1      49.375   5.160  17.088  0.00  0.00    +0.000 A 
ATOM      4  C   UNL     1      48.807   3.893  17.117  0.00  0.00    +0.000 A 
ATOM      5  C   UNL     1      49.632   2.787  17.368  0.00  0.00    +0.000 A 
ATOM      6  C   UNL     1      50.973   2.957  17.721  0.00  0.00    +0.000 A 
ENDROOT
BRANCH   1   7
ATOM      7  C   UNL     1      52.945   4.440  18.303  0.00  0.00    +0.000 C 
BRANCH   7   8
ATOM      8  N   UNL     1      53.079   5.141  19.610  0.00  0.00    +0.000 NA
ATOM      9  C   UNL     1      54.477   5.555  19.805  0.00  0.00    +0.000 C 
BRANCH   8  11
ATOM     10  C   UNL     1      53.662   3.736  21.636  0.00  0.00    +0.000 C 
ATOM     11  C   UNL     1      52.557   4.378  20.778  0.00  0.00    +0.000 C 
BRANCH  11  12
ATOM     12  C   UNL     1      51.639   5.237  21.709  0.00  0.00    +0.000 C 
BRANCH  12  13
ATOM     13  C   UNL     1      50.307   5.659  21.117  0.00  0.00    +0.000 A 
ATOM     14  C   UNL     1      49.265   4.726  21.052  0.00  0.00    +0.000 A 
ATOM     15  C   UNL     1      48.024   5.087  20.526  0.00  0.00    +0.000 A 
ATOM     16  C   UNL     1      47.804   6.385  20.072  0.00  0.00    +0.000 A 
ATOM     17  C   UNL     1      48.820   7.331  20.156  0.00  0.00    +0.000 A 
ATOM     18  C   UNL     1      50.057   6.973  20.687  0.00  0.00    +0.000 A 
ENDBRANCH  12  13
ENDBRANCH  11  12
ENDBRANCH   8  11
ENDBRANCH   7   8
ENDBRANCH   1   7
BRANCH   4  19
ATOM     19  C   UNL     1      47.349   3.712  16.823  0.00  0.00    +0.000 C 
BRANCH  19  20
ATOM     20  N   UNL     1      46.914   4.649  15.828  0.00  0.00    +0.000 N 
ATOM     21  C   UNL     1      46.909   4.313  14.501  0.00  0.00    +0.000 C 
ATOM     22  O   UNL     1      47.236   3.197  14.108  0.00  0.00    +0.000 OA
ATOM     23  H   UNL     1      46.893   5.628  16.097  0.00  0.00    +0.000 HD
BRANCH  21  24
ATOM     24  C   UNL     1      46.427   5.349  13.581  0.00  0.00    +0.000 A 
ATOM     25  C   UNL     1      47.248   6.426  13.274  0.00  0.00    +0.000 A 
ATOM     26  S   UNL     1      46.547   7.510  12.160  0.00  0.00    +0.000 S 
ATOM     27  C   UNL     1      45.111   6.601  12.087  0.00  0.00    +0.000 A 
ATOM     28  N   UNL     1      44.066   7.000  11.318  0.00  0.00    +0.000 NA
ATOM     29  C   UNL     1      43.029   6.227  11.376  0.00  0.00    +0.000 A 
ATOM     30  N   UNL     1      42.952   5.087  12.131  0.00  0.00    +0.000 N 
ATOM     31  C   UNL     1      43.996   4.623  12.900  0.00  0.00    +0.000 A 
ATOM     32  O   UNL     1      43.909   3.575  13.520  0.00  0.00    +0.000 OA
ATOM     33  C   UNL     1      45.176   5.474  12.882  0.00  0.00    +0.000 A 
ATOM     34  H   UNL     1      42.121   4.514  12.119  0.00  0.00    +0.000 HD
ENDBRANCH  21  24
ENDBRANCH  19  20
ENDBRANCH   4  19
TORSDOF 8
ENDMDL
MODEL 3
REMARK VINA RESULT:    -7.479      1.826      2.181
REMARK INTER + INTRA:         -12.453
REMARK INTER:                 -11.259
REMARK INTRA:                  -1.194
REMARK UNBOUND:                -1.475
REMARK  Name = 
REMARK  10 active torsions:
REMARK  status: ('A' for Active; 'I' for Inactive)
REMARK    1  A    between atoms: C_1  and  C_2
REMARK    2  A    between atoms: C_2  and  C_3
REMARK    3  A    between atoms: C_2  and  N_10
REMARK    4  A    between atoms: C_3  and  C_4
REMARK    5  A    between atoms: N_10  and  C_11
REMARK    6  A    between atoms: N_10  and  C_12
REMARK    7  A    between atoms: C_12  and  C_13
REMARK    8  A    between atoms: C_16  and  C_17
REMARK    9  A    between atoms: C_17  and  N_18
REMARK   10  A    between atoms: C_19  and  C_21
REMARK                            x       y       z     vdW  Elec       q    Type
REMARK                         _______ _______ _______ _____ _____    ______ ____
ROOT
ATOM      1  C   UNL     1      45.226   6.936  11.491  0.00  0.00    +0.000 A 
ATOM      2  C   UNL     1      46.531   6.426  11.490  0.00  0.00    +0.000 A 
ATOM      3  C   UNL     1      47.496   6.862  12.388  0.00  0.00    +0.000 A 
ATOM      4  C   UNL     1      47.203   7.908  13.254  0.00  0.00    +0.000 A 
ATOM      5  C   UNL     1      45.955   8.539  13.156  0.00  0.00    +0.000 A 
ATOM      6  C   UNL     1      44.966   8.044  12.302  0.00  0.00    +0.000 A 
ENDROOT
BRANCH   1   7
ATOM      7  C   UNL     1      44.110   6.305  10.667  0.00  0.00    +0.000 C 
BRANCH   7   8
ATOM      8  N   UNL     1      43.645   4.956  11.098  0.00  0.00    +0.000 NA
ATOM      9  C   UNL     1      43.067   5.044  12.447  0.00  0.00    +0.000 C 
BRANCH   8  11
ATOM     10  C   UNL     1      44.916   3.144  12.332  0.00  0.00    +0.000 C 
ATOM     11  C   UNL     1      44.678   3.887  11.004  0.00  0.00    +0.000 C 
BRANCH  11  12
ATOM     12  C   UNL     1      44.366   2.831   9.892  0.00  0.00    +0.000 C 
BRANCH  12  13
ATOM     13  C   UNL     1      45.387   2.726   8.775  0.00  0.00    +0.000 A 
ATOM     14  C   UNL     1      45.936   1.474   8.472  0.00  0.00    +0.000 A 
ATOM     15  C   UNL     1      46.867   1.342   7.441  0.00  0.00    +0.000 A 
ATOM     16  C   UNL     1      47.251   2.453   6.693  0.00  0.00    +0.000 A 
ATOM     17  C   UNL     1      46.694   3.697   6.964  0.00  0.00    +0.000 A 
ATOM     18  C   UNL     1      45.758   3.829   7.988  0.00  0.00    +0.000 A 
ENDBRANCH  12  13
ENDBRANCH  11  12
ENDBRANCH   8  11
ENDBRANCH   7   8
ENDBRANCH   1   7
BRANCH   4  19
ATOM     19  C   UNL     1      48.231   8.389  14.233  0.00  0.00    +0.000 C 
BRANCH  19  20
ATOM     20  N   UNL     1      48.081   7.719  15.492  0.00  0.00    +0.000 N 
ATOM     21  C   UNL     1      49.019   6.822  15.926  0.00  0.00    +0.000 C 
ATOM     22  O   UNL     1      50.039   6.579  15.285  0.00  0.00    +0.000 OA
ATOM     23  H   UNL     1      47.150   7.706  15.898  0.00  0.00    +0.000 HD
BRANCH  21  24
ATOM     24  C   UNL     1      48.765   6.214  17.237  0.00  0.00    +0.000 A 
ATOM     25  C   UNL     1      48.942   4.847  17.402  0.00  0.00    +0.000 A 
ATOM     26  S   UNL     1      48.643   4.318  18.995  0.00  0.00    +0.000 S 
ATOM     27  C   UNL     1      48.226   5.887  19.502  0.00  0.00    +0.000 A 
ATOM     28  N   UNL     1      47.836   6.131  20.780  0.00  0.00    +0.000 NA
ATOM     29  C   UNL     1      47.525   7.364  21.022  0.00  0.00    +0.000 A 
ATOM     30  N   UNL     1      47.578   8.373  20.097  0.00  0.00    +0.000 N 
ATOM     31  C   UNL     1      47.998   8.182  18.799  0.00  0.00    +0.000 A 
ATOM     32  O   UNL     1      48.081   9.115  18.016  0.00  0.00    +0.000 OA
ATOM     33  C   UNL     1      48.337   6.804  18.477  0.00  0.00    +0.000 A 
ATOM     34  H   UNL     1      47.341   9.321  20.351  0.00  0.00    +0.000 HD
ENDBRANCH  21  24
ENDBRANCH  19  20
ENDBRANCH   4  19
TORSDOF 8
ENDMDL
MODEL 4
REMARK VINA RESULT:    -7.323      3.065      8.230
REMARK INTER + INTRA:         -12.223
REMARK INTER:                 -10.007
REMARK INTRA:                  -2.216
REMARK UNBOUND:                -1.475
REMARK  Name = 
REMARK  10 active torsions:
REMARK  status: ('A' for Active; 'I' for Inactive)
REMARK    1  A    between atoms: C_1  and  C_2
REMARK    2  A    between atoms: C_2  and  C_3
REMARK    3  A    between atoms: C_2  and  N_10
REMARK    4  A    between atoms: C_3  and  C_4
REMARK    5  A    between atoms: N_10  and  C_11
REMARK    6  A    between atoms: N_10  and  C_12
REMARK    7  A    between atoms: C_12  and  C_13
REMARK    8  A    between atoms: C_16  and  C_17
REMARK    9  A    between atoms: C_17  and  N_18
REMARK   10  A    between atoms: C_19  and  C_21
REMARK                            x       y       z     vdW  Elec       q    Type
REMARK                         _______ _______ _______ _____ _____    ______ ____
ROOT
ATOM      1  C   UNL     1      48.913   8.119  16.147  0.00  0.00    +0.000 A 
ATOM      2  C   UNL     1      49.075   6.916  15.445  0.00  0.00    +0.000 A 
ATOM      3  C   UNL     1      48.701   6.779  14.115  0.00  0.00    +0.000 A 
ATOM      4  C   UNL     1      48.052   7.827  13.475  0.00  0.00    +0.000 A 
ATOM      5  C   UNL     1      47.736   8.978  14.210  0.00  0.00    +0.000 A 
ATOM      6  C   UNL     1      48.182   9.135  15.525  0.00  0.00    +0.000 A 
ENDROOT
BRANCH   1   7
ATOM      7  C   UNL     1      49.526   8.342  17.524  0.00  0.00    +0.000 C 
BRANCH   7   8
ATOM      8  N   UNL     1      48.574   8.492  18.660  0.00  0.00    +0.000 NA
ATOM      9  C   UNL     1      48.910   9.701  19.426  0.00  0.00    +0.000 C 
BRANCH   8  11
ATOM     10  C   UNL     1      48.155   7.631  21.006  0.00  0.00    +0.000 C 
ATOM     11  C   UNL     1      48.461   7.292  19.535  0.00  0.00    +0.000 C 
BRANCH  11  12
ATOM     12  C   UNL     1      47.397   6.263  19.029  0.00  0.00    +0.000 C 
BRANCH  12  13
ATOM     13  C   UNL     1      47.945   5.046  18.307  0.00  0.00    +0.000 A 
ATOM     14  C   UNL     1      49.260   4.640  18.561  0.00  0.00    +0.000 A 
ATOM     15  C   UNL     1      49.789   3.517  17.924  0.00  0.00    +0.000 A 
ATOM     16  C   UNL     1      49.008   2.780  17.037  0.00  0.00    +0.000 A 
ATOM     17  C   UNL     1      47.691   3.154  16.796  0.00  0.00    +0.000 A 
ATOM     18  C   UNL     1      47.160   4.271  17.437  0.00  0.00    +0.000 A 
ENDBRANCH  12  13
ENDBRANCH  11  12
ENDBRANCH   8  11
ENDBRANCH   7   8
ENDBRANCH   1   7
BRANCH   4  19
ATOM     19  C   UNL     1      47.644   7.698  12.039  0.00  0.00    +0.000 C 
BRANCH  19  20
ATOM     20  N   UNL     1      46.932   6.472  11.824  0.00  0.00    +0.000 N 
ATOM     21  C   UNL     1      45.565   6.453  11.769  0.00  0.00    +0.000 C 
ATOM     22  O   UNL     1      44.893   7.477  11.863  0.00  0.00    +0.000 OA
ATOM     23  H   UNL     1      47.438   5.609  12.002  0.00  0.00    +0.000 HD
BRANCH  21  24
ATOM     24  C   UNL     1      44.952   5.143  11.527  0.00  0.00    +0.000 A 
ATOM     25  C   UNL     1      44.228   4.530  12.541  0.00  0.00    +0.000 A 
ATOM     26  S   UNL     1      43.552   3.035  12.076  0.00  0.00    +0.000 S 
ATOM     27  C   UNL     1      44.240   3.139  10.524  0.00  0.00    +0.000 A 
ATOM     28  N   UNL     1      44.067   2.148   9.612  0.00  0.00    +0.000 NA
ATOM     29  C   UNL     1      44.666   2.346   8.481  0.00  0.00    +0.000 A 
ATOM     30  N   UNL     1      45.416   3.453   8.184  0.00  0.00    +0.000 N 
ATOM     31  C   UNL     1      45.593   4.499   9.063  0.00  0.00    +0.000 A 
ATOM     32  O   UNL     1      46.226   5.493   8.745  0.00  0.00    +0.000 OA
ATOM     33  C   UNL     1      44.955   4.308  10.356  0.00  0.00    +0.000 A 
ATOM     34  H   UNL     1      45.843   3.560   7.276  0.00  0.00    +0.000 HD
ENDBRANCH  21  24
ENDBRANCH  19  20
ENDBRANCH   4  19
TORSDOF 8
ENDMDL
MODEL 5
REMARK VINA RESULT:    -7.274      1.575      2.108
REMARK INTER + INTRA:         -12.151
REMARK INTER:                 -11.093
REMARK INTRA:                  -1.059
REMARK UNBOUND:                -1.475
REMARK  Name = 
REMARK  10 active torsions:
REMARK  status: ('A' for Active; 'I' for Inactive)
REMARK    1  A    between atoms: C_1  and  C_2
REMARK    2  A    between atoms: C_2  and  C_3
REMARK    3  A    between atoms: C_2  and  N_10
REMARK    4  A    between atoms: C_3  and  C_4
REMARK    5  A    between atoms: N_10  and  C_11
REMARK    6  A    between atoms: N_10  and  C_12
REMARK    7  A    between atoms: C_12  and  C_13
REMARK    8  A    between atoms: C_16  and  C_17
REMARK    9  A    between atoms: C_17  and  N_18
REMARK   10  A    between atoms: C_19  and  C_21
REMARK                            x       y       z     vdW  Elec       q    Type
REMARK                         _______ _______ _______ _____ _____    ______ ____
ROOT
ATOM      1  C   UNL     1      45.393   6.981  11.861  0.00  0.00    +0.000 A 
ATOM      2  C   UNL     1      45.379   7.992  12.831  0.00  0.00    +0.000 A 
ATOM      3  C   UNL     1      46.545   8.515  13.373  0.00  0.00    +0.000 A 
ATOM      4  C   UNL     1      47.770   7.958  13.026  0.00  0.00    +0.000 A 
ATOM      5  C   UNL     1      47.791   6.839  12.181  0.00  0.00    +0.000 A 
ATOM      6  C   UNL     1      46.619   6.370  11.584  0.00  0.00    +0.000 A 
ENDROOT
BRANCH   1   7
ATOM      7  C   UNL     1      44.137   6.567  11.103  0.00  0.00    +0.000 C 
BRANCH   7   8
ATOM      8  N   UNL     1      43.601   5.209  11.395  0.00  0.00    +0.000 NA
ATOM      9  C   UNL     1      43.125   5.156  12.785  0.00  0.00    +0.000 C 
BRANCH   8  11
ATOM     10  C   UNL     1      44.790   3.153  12.279  0.00  0.00    +0.000 C 
ATOM     11  C   UNL     1      44.538   4.093  11.085  0.00  0.00    +0.000 C 
BRANCH  11  12
ATOM     12  C   UNL     1      44.083   3.233   9.861  0.00  0.00    +0.000 C 
BRANCH  12  13
ATOM     13  C   UNL     1      45.157   2.922   8.835  0.00  0.00    +0.000 A 
ATOM     14  C   UNL     1      45.731   3.974   8.112  0.00  0.00    +0.000 A 
ATOM     15  C   UNL     1      46.731   3.722   7.171  0.00  0.00    +0.000 A 
ATOM     16  C   UNL     1      47.177   2.421   6.951  0.00  0.00    +0.000 A 
ATOM     17  C   UNL     1      46.635   1.370   7.680  0.00  0.00    +0.000 A 
ATOM     18  C   UNL     1      45.643   1.621   8.625  0.00  0.00    +0.000 A 
ENDBRANCH  12  13
ENDBRANCH  11  12
ENDBRANCH   8  11
ENDBRANCH   7   8
ENDBRANCH   1   7
BRANCH   4  19
ATOM     19  C   UNL     1      49.040   8.512  13.597  0.00  0.00    +0.000 C 
BRANCH  19  20
ATOM     20  N   UNL     1      48.971   8.560  15.029  0.00  0.00    +0.000 N 
ATOM     21  C   UNL     1      49.331   7.479  15.787  0.00  0.00    +0.000 C 
ATOM     22  O   UNL     1      49.760   6.444  15.286  0.00  0.00    +0.000 OA
ATOM     23  H   UNL     1      48.389   9.287  15.437  0.00  0.00    +0.000 HD
BRANCH  21  24
ATOM     24  C   UNL     1      49.234   7.655  17.240  0.00  0.00    +0.000 A 
ATOM     25  C   UNL     1      49.819   8.765  17.834  0.00  0.00    +0.000 A 
ATOM     26  S   UNL     1      49.574   8.832  19.521  0.00  0.00    +0.000 S 
ATOM     27  C   UNL     1      48.720   7.360  19.516  0.00  0.00    +0.000 A 
ATOM     28  N   UNL     1      48.243   6.823  20.667  0.00  0.00    +0.000 NA
ATOM     29  C   UNL     1      47.633   5.690  20.520  0.00  0.00    +0.000 A 
ATOM     30  N   UNL     1      47.456   5.055  19.320  0.00  0.00    +0.000 N 
ATOM     31  C   UNL     1      47.892   5.576  18.122  0.00  0.00    +0.000 A 
ATOM     32  O   UNL     1      47.670   5.007  17.065  0.00  0.00    +0.000 OA
ATOM     33  C   UNL     1      48.602   6.840  18.243  0.00  0.00    +0.000 A 
ATOM     34  H   UNL     1      46.954   4.180  19.266  0.00  0.00    +0.000 HD
ENDBRANCH  21  24
ENDBRANCH  19  20
ENDBRANCH   4  19
TORSDOF 8
ENDMDL
MODEL 6
REMARK VINA RESULT:    -7.233      4.912      6.543
REMARK INTER + INTRA:         -12.092
REMARK INTER:                 -11.016
REMARK INTRA:                  -1.076
REMARK UNBOUND:                -1.475
REMARK  Name = 
REMARK  10 active torsions:
REMARK  status: ('A' for Active; 'I' for Inactive)
REMARK    1  A    between atoms: C_1  and  C_2
REMARK    2  A    between atoms: C_2  and  C_3
REMARK    3  A    between atoms: C_2  and  N_10
REMARK    4  A    between atoms: C_3  and  C_4
REMARK    5  A    between atoms: N_10  and  C_11
REMARK    6  A    between atoms: N_10  and  C_12
REMARK    7  A    between atoms: C_12  and  C_13
REMARK    8  A    between atoms: C_16  and  C_17
REMARK    9  A    between atoms: C_17  and  N_18
REMARK   10  A    between atoms: C_19  and  C_21
REMARK                            x       y       z     vdW  Elec       q    Type
REMARK                         _______ _______ _______ _____ _____    ______ ____
ROOT
ATOM      1  C   UNL     1      46.114   6.125  12.716  0.00  0.00    +0.000 A 
ATOM      2  C   UNL     1      47.083   5.796  13.674  0.00  0.00    +0.000 A 
ATOM      3  C   UNL     1      48.350   6.363  13.669  0.00  0.00    +0.000 A 
ATOM      4  C   UNL     1      48.719   7.208  12.630  0.00  0.00    +0.000 A 
ATOM      5  C   UNL     1      47.818   7.419  11.577  0.00  0.00    +0.000 A 
ATOM      6  C   UNL     1      46.520   6.905  11.629  0.00  0.00    +0.000 A 
ENDROOT
BRANCH   1   7
ATOM      7  C   UNL     1      44.662   5.684  12.849  0.00  0.00    +0.000 C 
BRANCH   7   8
ATOM      8  N   UNL     1      43.937   5.387  11.581  0.00  0.00    +0.000 NA
ATOM      9  C   UNL     1      42.488   5.495  11.807  0.00  0.00    +0.000 C 
BRANCH   8  11
ATOM     10  C   UNL     1      43.500   2.893  11.482  0.00  0.00    +0.000 C 
ATOM     11  C   UNL     1      44.306   4.091  10.946  0.00  0.00    +0.000 C 
BRANCH  11  12
ATOM     12  C   UNL     1      44.183   4.117   9.387  0.00  0.00    +0.000 C 
BRANCH  12  13
ATOM     13  C   UNL     1      45.264   3.371   8.626  0.00  0.00    +0.000 A 
ATOM     14  C   UNL     1      45.376   1.985   8.789  0.00  0.00    +0.000 A 
ATOM     15  C   UNL     1      46.349   1.268   8.093  0.00  0.00    +0.000 A 
ATOM     16  C   UNL     1      47.213   1.923   7.217  0.00  0.00    +0.000 A 
ATOM     17  C   UNL     1      47.096   3.294   7.025  0.00  0.00    +0.000 A 
ATOM     18  C   UNL     1      46.119   4.010   7.714  0.00  0.00    +0.000 A 
ENDBRANCH  12  13
ENDBRANCH  11  12
ENDBRANCH   8  11
ENDBRANCH   7   8
ENDBRANCH   1   7
BRANCH   4  19
ATOM     19  C   UNL     1      50.081   7.832  12.611  0.00  0.00    +0.000 C 
BRANCH  19  20
ATOM     20  N   UNL     1      50.802   7.433  11.436  0.00  0.00    +0.000 N 
ATOM     21  C   UNL     1      52.060   7.911  11.189  0.00  0.00    +0.000 C 
ATOM     22  O   UNL     1      52.639   8.663  11.968  0.00  0.00    +0.000 OA
ATOM     23  H   UNL     1      50.258   7.036  10.676  0.00  0.00    +0.000 HD
BRANCH  21  24
ATOM     24  C   UNL     1      52.703   7.418   9.966  0.00  0.00    +0.000 A 
ATOM     25  C   UNL     1      53.102   6.090   9.892  0.00  0.00    +0.000 A 
ATOM     26  S   UNL     1      53.792   5.678   8.387  0.00  0.00    +0.000 S 
ATOM     27  C   UNL     1      53.620   7.268   7.805  0.00  0.00    +0.000 A 
ATOM     28  N   UNL     1      54.045   7.609   6.563  0.00  0.00    +0.000 NA
ATOM     29  C   UNL     1      53.874   8.856   6.259  0.00  0.00    +0.000 A 
ATOM     30  N   UNL     1      53.308   9.786   7.089  0.00  0.00    +0.000 N 
ATOM     31  C   UNL     1      52.830   9.481   8.345  0.00  0.00    +0.000 A 
ATOM     32  O   UNL     1      52.284  10.325   9.038  0.00  0.00    +0.000 OA
ATOM     33  C   UNL     1      53.023   8.093   8.737  0.00  0.00    +0.000 A 
ATOM     34  H   UNL     1      53.183  10.741   6.788  0.00  0.00    +0.000 HD
ENDBRANCH  21  24
ENDBRANCH  19  20
ENDBRANCH   4  19
TORSDOF 8
ENDMDL
MODEL 7
REMARK VINA RESULT:    -7.180      3.542      9.129
REMARK INTER + INTRA:         -12.014
REMARK INTER:                  -8.927
REMARK INTRA:                  -3.086
REMARK UNBOUND:                -1.475
REMARK  Name = 
REMARK  10 active torsions:
REMARK  status: ('A' for Active; 'I' for Inactive)
REMARK    1  A    between atoms: C_1  and  C_2
REMARK    2  A    between atoms: C_2  and  C_3
REMARK    3  A    between atoms: C_2  and  N_10
REMARK    4  A    between atoms: C_3  and  C_4
REMARK    5  A    between atoms: N_10  and  C_11
REMARK    6  A    between atoms: N_10  and  C_12
REMARK    7  A    between atoms: C_12  and  C_13
REMARK    8  A    between atoms: C_16  and  C_17
REMARK    9  A    between atoms: C_17  and  N_18
REMARK   10  A    between atoms: C_19  and  C_21
REMARK                            x       y       z     vdW  Elec       q    Type
REMARK                         _______ _______ _______ _____ _____    ______ ____
ROOT
ATOM      1  C   UNL     1      50.054   5.178  19.517  0.00  0.00    +0.000 A 
ATOM      2  C   UNL     1      48.700   5.540  19.480  0.00  0.00    +0.000 A 
ATOM      3  C   UNL     1      47.806   4.969  18.585  0.00  0.00    +0.000 A 
ATOM      4  C   UNL     1      48.272   4.083  17.622  0.00  0.00    +0.000 A 
ATOM      5  C   UNL     1      49.650   3.835  17.541  0.00  0.00    +0.000 A 
ATOM      6  C   UNL     1      50.530   4.355  18.492  0.00  0.00    +0.000 A 
ENDROOT
BRANCH   1   7
ATOM      7  C   UNL     1      50.982   5.630  20.637  0.00  0.00    +0.000 C 
BRANCH   7   8
ATOM      8  N   UNL     1      51.822   6.829  20.364  0.00  0.00    +0.000 NA
ATOM      9  C   UNL     1      52.997   6.818  21.248  0.00  0.00    +0.000 C 
BRANCH   8  11
ATOM     10  C   UNL     1      51.505   9.006  21.622  0.00  0.00    +0.000 C 
ATOM     11  C   UNL     1      51.090   8.125  20.429  0.00  0.00    +0.000 C 
BRANCH  11  12
ATOM     12  C   UNL     1      51.220   8.968  19.118  0.00  0.00    +0.000 C 
BRANCH  12  13
ATOM     13  C   UNL     1      50.707   8.306  17.852  0.00  0.00    +0.000 A 
ATOM     14  C   UNL     1      51.604   7.592  17.048  0.00  0.00    +0.000 A 
ATOM     15  C   UNL     1      51.161   6.960  15.885  0.00  0.00    +0.000 A 
ATOM     16  C   UNL     1      49.818   7.023  15.519  0.00  0.00    +0.000 A 
ATOM     17  C   UNL     1      48.912   7.705  16.322  0.00  0.00    +0.000 A 
ATOM     18  C   UNL     1      49.351   8.329  17.487  0.00  0.00    +0.000 A 
ENDBRANCH  12  13
ENDBRANCH  11  12
ENDBRANCH   8  11
ENDBRANCH   7   8
ENDBRANCH   1   7
BRANCH   4  19
ATOM     19  C   UNL     1      47.321   3.454  16.650  0.00  0.00    +0.000 C 
BRANCH  19  20
ATOM     20  N   UNL     1      46.823   4.431  15.726  0.00  0.00    +0.000 N 
ATOM     21  C   UNL     1      46.830   4.192  14.379  0.00  0.00    +0.000 C 
ATOM     22  O   UNL     1      47.224   3.130  13.905  0.00  0.00    +0.000 OA
ATOM     23  H   UNL     1      46.742   5.385  16.066  0.00  0.00    +0.000 HD
BRANCH  21  24
ATOM     24  C   UNL     1      46.280   5.259  13.536  0.00  0.00    +0.000 A 
ATOM     25  C   UNL     1      47.032   6.403  13.304  0.00  0.00    +0.000 A 
ATOM     26  S   UNL     1      46.257   7.519  12.272  0.00  0.00    +0.000 S 
ATOM     27  C   UNL     1      44.878   6.532  12.141  0.00  0.00    +0.000 A 
ATOM     28  N   UNL     1      43.805   6.920  11.406  0.00  0.00    +0.000 NA
ATOM     29  C   UNL     1      42.816   6.084  11.413  0.00  0.00    +0.000 A 
ATOM     30  N   UNL     1      42.814   4.891  12.085  0.00  0.00    +0.000 N 
ATOM     31  C   UNL     1      43.891   4.438  12.816  0.00  0.00    +0.000 A 
ATOM     32  O   UNL     1      43.873   3.345  13.359  0.00  0.00    +0.000 OA
ATOM     33  C   UNL     1      45.017   5.358  12.853  0.00  0.00    +0.000 A 
ATOM     34  H   UNL     1      42.019   4.271  12.036  0.00  0.00    +0.000 HD
ENDBRANCH  21  24
ENDBRANCH  19  20
ENDBRANCH   4  19
TORSDOF 8
ENDMDL
MODEL 8
REMARK VINA RESULT:    -7.158      3.232      7.752
REMARK INTER + INTRA:         -11.982
REMARK INTER:                 -10.095
REMARK INTRA:                  -1.887
REMARK UNBOUND:                -1.475
REMARK  Name = 
REMARK  10 active torsions:
REMARK  status: ('A' for Active; 'I' for Inactive)
REMARK    1  A    between atoms: C_1  and  C_2
REMARK    2  A    between atoms: C_2  and  C_3
REMARK    3  A    between atoms: C_2  and  N_10
REMARK    4  A    between atoms: C_3  and  C_4
REMARK    5  A    between atoms: N_10  and  C_11
REMARK    6  A    between atoms: N_10  and  C_12
REMARK    7  A    between atoms: C_12  and  C_13
REMARK    8  A    between atoms: C_16  and  C_17
REMARK    9  A    between atoms: C_17  and  N_18
REMARK   10  A    between atoms: C_19  and  C_21
REMARK                            x       y       z     vdW  Elec       q    Type
REMARK                         _______ _______ _______ _____ _____    ______ ____
ROOT
ATOM      1  C   UNL     1      48.828   7.892  16.133  0.00  0.00    +0.000 A 
ATOM      2  C   UNL     1      48.796   6.733  15.345  0.00  0.00    +0.000 A 
ATOM      3  C   UNL     1      48.686   6.781  13.962  0.00  0.00    +0.000 A 
ATOM      4  C   UNL     1      48.500   8.005  13.332  0.00  0.00    +0.000 A 
ATOM      5  C   UNL     1      48.366   9.159  14.118  0.00  0.00    +0.000 A 
ATOM      6  C   UNL     1      48.553   9.109  15.502  0.00  0.00    +0.000 A 
ENDROOT
BRANCH   1   7
ATOM      7  C   UNL     1      49.175   7.854  17.616  0.00  0.00    +0.000 C 
BRANCH   7   8
ATOM      8  N   UNL     1      48.041   7.653  18.560  0.00  0.00    +0.000 NA
ATOM      9  C   UNL     1      47.965   8.794  19.486  0.00  0.00    +0.000 C 
BRANCH   8  11
ATOM     10  C   UNL     1      47.350   6.395  20.648  0.00  0.00    +0.000 C 
ATOM     11  C   UNL     1      48.059   6.351  19.282  0.00  0.00    +0.000 C 
BRANCH  11  12
ATOM     12  C   UNL     1      47.452   5.178  18.444  0.00  0.00    +0.000 C 
BRANCH  12  13
ATOM     13  C   UNL     1      48.438   4.131  17.960  0.00  0.00    +0.000 A 
ATOM     14  C   UNL     1      47.980   3.095  17.136  0.00  0.00    +0.000 A 
ATOM     15  C   UNL     1      48.864   2.125  16.664  0.00  0.00    +0.000 A 
ATOM     16  C   UNL     1      50.215   2.183  16.997  0.00  0.00    +0.000 A 
ATOM     17  C   UNL     1      50.690   3.220  17.791  0.00  0.00    +0.000 A 
ATOM     18  C   UNL     1      49.809   4.195  18.257  0.00  0.00    +0.000 A 
ENDBRANCH  12  13
ENDBRANCH  11  12
ENDBRANCH   8  11
ENDBRANCH   7   8
ENDBRANCH   1   7
BRANCH   4  19
ATOM     19  C   UNL     1      48.384   8.077  11.839  0.00  0.00    +0.000 C 
BRANCH  19  20
ATOM     20  N   UNL     1      47.667   6.942  11.334  0.00  0.00    +0.000 N 
ATOM     21  C   UNL     1      46.298   6.924  11.321  0.00  0.00    +0.000 C 
ATOM     22  O   UNL     1      45.628   7.880  11.702  0.00  0.00    +0.000 OA
ATOM     23  H   UNL     1      48.180   6.068  11.263  0.00  0.00    +0.000 HD
BRANCH  21  24
ATOM     24  C   UNL     1      45.679   5.717  10.765  0.00  0.00    +0.000 A 
ATOM     25  C   UNL     1      45.840   5.426   9.417  0.00  0.00    +0.000 A 
ATOM     26  S   UNL     1      45.090   3.968   8.949  0.00  0.00    +0.000 S 
ATOM     27  C   UNL     1      44.491   3.702  10.519  0.00  0.00    +0.000 A 
ATOM     28  N   UNL     1      43.726   2.617  10.804  0.00  0.00    +0.000 NA
ATOM     29  C   UNL     1      43.319   2.553  12.032  0.00  0.00    +0.000 A 
ATOM     30  N   UNL     1      43.618   3.477  12.997  0.00  0.00    +0.000 N 
ATOM     31  C   UNL     1      44.416   4.576  12.765  0.00  0.00    +0.000 A 
ATOM     32  O   UNL     1      44.703   5.351  13.664  0.00  0.00    +0.000 OA
ATOM     33  C   UNL     1      44.878   4.699  11.392  0.00  0.00    +0.000 A 
ATOM     34  H   UNL     1      43.286   3.362  13.944  0.00  0.00    +0.000 HD
ENDBRANCH  21  24
ENDBRANCH  19  20
ENDBRANCH   4  19
TORSDOF 8
ENDMDL
MODEL 9
REMARK VINA RESULT:    -6.916      3.355      8.260
REMARK INTER + INTRA:         -11.625
REMARK INTER:                  -8.993
REMARK INTRA:                  -2.632
REMARK UNBOUND:                -1.475
REMARK  Name = 
REMARK  10 active torsions:
REMARK  status: ('A' for Active; 'I' for Inactive)
REMARK    1  A    between atoms: C_1  and  C_2
REMARK    2  A    between atoms: C_2  and  C_3
REMARK    3  A    between atoms: C_2  and  N_10
REMARK    4  A    between atoms: C_3  and  C_4
REMARK    5  A    between atoms: N_10  and  C_11
REMARK    6  A    between atoms: N_10  and  C_12
REMARK    7  A    between atoms: C_12  and  C_13
REMARK    8  A    between atoms: C_16  and  C_17
REMARK    9  A    between atoms: C_17  and  N_18
REMARK   10  A    between atoms: C_19  and  C_21
REMARK                            x       y       z     vdW  Elec       q    Type
REMARK                         _______ _______ _______ _____ _____    ______ ____
ROOT
ATOM      1  C   UNL     1      49.485   8.078  18.529  0.00  0.00    +0.000 A 
ATOM      2  C   UNL     1      50.102   7.297  17.541  0.00  0.00    +0.000 A 
ATOM      3  C   UNL     1      49.810   7.445  16.192  0.00  0.00    +0.000 A 
ATOM      4  C   UNL     1      48.804   8.319  15.801  0.00  0.00    +0.000 A 
ATOM      5  C   UNL     1      48.066   8.987  16.788  0.00  0.00    +0.000 A 
ATOM      6  C   UNL     1      48.417   8.889  18.136  0.00  0.00    +0.000 A 
ENDROOT
BRANCH   1   7
ATOM      7  C   UNL     1      49.963   8.079  19.975  0.00  0.00    +0.000 C 
BRANCH   7   8
ATOM      8  N   UNL     1      49.361   7.057  20.877  0.00  0.00    +0.000 NA
ATOM      9  C   UNL     1      49.576   7.450  22.278  0.00  0.00    +0.000 C 
BRANCH   8  11
ATOM     10  C   UNL     1      50.725   5.094  21.717  0.00  0.00    +0.000 C 
ATOM     11  C   UNL     1      49.810   5.661  20.616  0.00  0.00    +0.000 C 
BRANCH  11  12
ATOM     12  C   UNL     1      48.622   4.667  20.396  0.00  0.00    +0.000 C 
BRANCH  12  13
ATOM     13  C   UNL     1      48.384   4.227  18.963  0.00  0.00    +0.000 A 
ATOM     14  C   UNL     1      47.457   4.927  18.182  0.00  0.00    +0.000 A 
ATOM     15  C   UNL     1      47.226   4.556  16.857  0.00  0.00    +0.000 A 
ATOM     16  C   UNL     1      47.926   3.491  16.293  0.00  0.00    +0.000 A 
ATOM     17  C   UNL     1      48.868   2.804  17.048  0.00  0.00    +0.000 A 
ATOM     18  C   UNL     1      49.106   3.178  18.369  0.00  0.00    +0.000 A 
ENDBRANCH  12  13
ENDBRANCH  11  12
ENDBRANCH   8  11
ENDBRANCH   7   8
ENDBRANCH   1   7
BRANCH   4  19
ATOM     19  C   UNL     1      48.478   8.495  14.348  0.00  0.00    +0.000 C 
BRANCH  19  20
ATOM     20  N   UNL     1      47.438   7.590  13.951  0.00  0.00    +0.000 N 
ATOM     21  C   UNL     1      47.724   6.465  13.227  0.00  0.00    +0.000 C 
ATOM     22  O   UNL     1      48.873   6.160  12.918  0.00  0.00    +0.000 OA
ATOM     23  H   UNL     1      46.488   7.948  13.968  0.00  0.00    +0.000 HD
BRANCH  21  24
ATOM     24  C   UNL     1      46.580   5.609  12.896  0.00  0.00    +0.000 A 
ATOM     25  C   UNL     1      46.658   4.243  13.132  0.00  0.00    +0.000 A 
ATOM     26  S   UNL     1      45.227   3.408  12.727  0.00  0.00    +0.000 S 
ATOM     27  C   UNL     1      44.477   4.835  12.184  0.00  0.00    +0.000 A 
ATOM     28  N   UNL     1      43.219   4.816  11.674  0.00  0.00    +0.000 NA
ATOM     29  C   UNL     1      42.781   5.968  11.277  0.00  0.00    +0.000 A 
ATOM     30  N   UNL     1      43.491   7.136  11.353  0.00  0.00    +0.000 N 
ATOM     31  C   UNL     1      44.757   7.212  11.893  0.00  0.00    +0.000 A 
ATOM     32  O   UNL     1      45.340   8.280  11.991  0.00  0.00    +0.000 OA
ATOM     33  C   UNL     1      45.297   5.935  12.332  0.00  0.00    +0.000 A 
ATOM     34  H   UNL     1      43.088   8.008  11.045  0.00  0.00    +0.000 HD
ENDBRANCH  21  24
ENDBRANCH  19  20
ENDBRANCH   4  19
TORSDOF 8
ENDMDL
