MODEL 1
REMARK VINA RESULT:    -8.045      0.000      0.000
REMARK INTER + INTRA:         -12.584
REMARK INTER:                 -11.338
REMARK INTRA:                  -1.247
REMARK UNBOUND:                -1.247
REMARK  Name = 
REMARK  8 active torsions:
REMARK  status: ('A' for Active; 'I' for Inactive)
REMARK    1  A    between atoms: C_1  and  N_2
REMARK    2  A    between atoms: C_4  and  C_5
REMARK    3  A    between atoms: N_7  and  C_8
REMARK    4  A    between atoms: C_8  and  C_9
REMARK    5  A    between atoms: C_12  and  C_13
REMARK    6  A    between atoms: C_13  and  N_14
REMARK    7  A    between atoms: N_14  and  C_15
REMARK    8  A    between atoms: C_15  and  C_16
REMARK                            x       y       z     vdW  Elec       q    Type
REMARK                         _______ _______ _______ _____ _____    ______ ____
ROOT
ATOM      1  C   UNL     1      46.820   7.726  12.951  0.00  0.00    +0.000 C 
ENDROOT
BRANCH   1   2
ATOM      2  C   UNL     1      46.051   6.561  12.400  0.00  0.00    +0.000 A 
ATOM      3  C   UNL     1      45.312   5.730  13.250  0.00  0.00    +0.000 A 
ATOM      4  C   UNL     1      44.555   4.677  12.730  0.00  0.00    +0.000 A 
ATOM      5  C   UNL     1      44.527   4.432  11.349  0.00  0.00    +0.000 A 
ATOM      6  C   UNL     1      45.281   5.254  10.502  0.00  0.00    +0.000 A 
ATOM      7  C   UNL     1      46.039   6.306  11.023  0.00  0.00    +0.000 A 
BRANCH   5   8
ATOM      8  C   UNL     1      43.711   3.292  10.785  0.00  0.00    +0.000 C 
BRANCH   8   9
ATOM      9  N   UNL     1      43.986   3.097   9.364  0.00  0.00    +0.000 NA
ATOM     10  H   UNL     1      44.510   3.899   9.016  0.00  0.00    +0.000 HD
BRANCH   9  11
ATOM     11  C   UNL     1      44.762   1.879   9.140  0.00  0.00    +0.000 C 
BRANCH  11  12
ATOM     12  C   UNL     1      45.840   2.104   8.118  0.00  0.00    +0.000 A 
ATOM     13  C   UNL     1      45.967   3.322   7.442  0.00  0.00    +0.000 A 
ATOM     14  C   UNL     1      46.983   3.494   6.507  0.00  0.00    +0.000 A 
ATOM     15  C   UNL     1      47.840   2.433   6.270  0.00  0.00    +0.000 A 
ATOM     16  N   UNL     1      47.746   1.237   6.890  0.00  0.00    +0.000 NA
ATOM     17  C   UNL     1      46.752   1.102   7.797  0.00  0.00    +0.000 A 
ENDBRANCH  11  12
ENDBRANCH   9  11
ENDBRANCH   8   9
ENDBRANCH   5   8
ENDBRANCH   1   2
BRANCH   1  20
ATOM     18  C   UNL     1      48.512   6.881  14.482  0.00  0.00    +0.000 C 
ATOM     19  O   UNL     1      49.191   6.506  13.532  0.00  0.00    +0.000 OA
ATOM     20  N   UNL     1      47.300   7.508  14.291  0.00  0.00    +0.000 N 
ATOM     21  H   UNL     1      46.772   7.794  15.110  0.00  0.00    +0.000 HD
BRANCH  18  25
ATOM     22  C   UNL     1      50.484   7.923  18.787  0.00  0.00    +0.000 C 
ATOM     23  N   UNL     1      49.782   7.169  17.777  0.00  0.00    +0.000 N 
ATOM     24  N   UNL     1      49.600   7.671  16.537  0.00  0.00    +0.000 NA
ATOM     25  C   UNL     1      48.914   6.698  15.887  0.00  0.00    +0.000 A 
ATOM     26  C   UNL     1      48.670   5.574  16.740  0.00  0.00    +0.000 A 
ATOM     27  C   UNL     1      48.076   4.318  16.744  0.00  0.00    +0.000 A 
ATOM     28 CL   UNL     1      47.317   3.667  15.380  0.00  0.00    +0.000 Cl
ATOM     29  N   UNL     1      48.071   3.534  17.838  0.00  0.00    +0.000 NA
ATOM     30  C   UNL     1      48.668   4.013  18.937  0.00  0.00    +0.000 A 
ATOM     31  N   UNL     1      49.281   5.197  19.081  0.00  0.00    +0.000 NA
ATOM     32  C   UNL     1      49.247   5.927  17.951  0.00  0.00    +0.000 A 
ENDBRANCH  18  25
ENDBRANCH   1  20
TORSDOF 7
ENDMDL
MODEL 2
REMARK VINA RESULT:    -7.791      1.519      1.902
REMARK INTER + INTRA:         -12.226
REMARK INTER:                 -11.183
REMARK INTRA:                  -1.043
REMARK UNBOUND:                -1.247
REMARK  Name = 
REMARK  8 active torsions:
REMARK  status: ('A' for Active; 'I' for Inactive)
REMARK    1  A    between atoms: C_1  and  N_2
REMARK    2  A    between atoms: C_4  and  C_5
REMARK    3  A    between atoms: N_7  and  C_8
REMARK    4  A    between atoms: C_8  and  C_9
REMARK    5  A    between atoms: C_12  and  C_13
REMARK    6  A    between atoms: C_13  and  N_14
REMARK    7  A    between atoms: N_14  and  C_15
REMARK    8  A    between atoms: C_15  and  C_16
REMARK                            x       y       z     vdW  Elec       q    Type
REMARK                         _______ _______ _______ _____ _____    ______ ____
ROOT
ATOM      1  C   UNL     1      48.230   6.516  13.606  0.00  0.00    +0.000 C 
ENDROOT
BRANCH   1   2
ATOM      2  C   UNL     1      46.997   6.123  12.844  0.00  0.00    +0.000 A 
ATOM      3  C   UNL     1      46.762   6.631  11.562  0.00  0.00    +0.000 A 
ATOM      4  C   UNL     1      45.640   6.225  10.834  0.00  0.00    +0.000 A 
ATOM      5  C   UNL     1      44.731   5.307  11.377  0.00  0.00    +0.000 A 
ATOM      6  C   UNL     1      44.960   4.812  12.668  0.00  0.00    +0.000 A 
ATOM      7  C   UNL     1      46.080   5.220  13.396  0.00  0.00    +0.000 A 
BRANCH   5   8
ATOM      8  C   UNL     1      43.517   4.868  10.592  0.00  0.00    +0.000 C 
BRANCH   8   9
ATOM      9  N   UNL     1      43.897   4.324   9.290  0.00  0.00    +0.000 NA
ATOM     10  H   UNL     1      44.647   4.894   8.901  0.00  0.00    +0.000 HD
BRANCH   9  11
ATOM     11  C   UNL     1      44.353   2.941   9.410  0.00  0.00    +0.000 C 
BRANCH  11  12
ATOM     12  C   UNL     1      45.487   2.660   8.465  0.00  0.00    +0.000 A 
ATOM     13  C   UNL     1      46.066   3.674   7.694  0.00  0.00    +0.000 A 
ATOM     14  C   UNL     1      47.119   3.375   6.834  0.00  0.00    +0.000 A 
ATOM     15  C   UNL     1      47.557   2.064   6.767  0.00  0.00    +0.000 A 
ATOM     16  N   UNL     1      47.020   1.054   7.484  0.00  0.00    +0.000 NA
ATOM     17  C   UNL     1      46.001   1.376   8.314  0.00  0.00    +0.000 A 
ENDBRANCH  11  12
ENDBRANCH   9  11
ENDBRANCH   8   9
ENDBRANCH   5   8
ENDBRANCH   1   2
BRANCH   1  20
ATOM     18  C   UNL     1      49.025   6.740  15.895  0.00  0.00    +0.000 C 
ATOM     19  O   UNL     1      50.167   6.484  15.528  0.00  0.00    +0.000 OA
ATOM     20  N   UNL     1      47.978   6.781  14.999  0.00  0.00    +0.000 N 
ATOM     21  H   UNL     1      47.050   6.991  15.352  0.00  0.00    +0.000 HD
BRANCH  18  25
ATOM     22  C   UNL     1      47.599   9.277  19.772  0.00  0.00    +0.000 C 
ATOM     23  N   UNL     1      48.035   8.144  18.994  0.00  0.00    +0.000 N 
ATOM     24  N   UNL     1      48.291   8.266  17.673  0.00  0.00    +0.000 NA
ATOM     25  C   UNL     1      48.666   7.018  17.296  0.00  0.00    +0.000 A 
ATOM     26  C   UNL     1      48.643   6.110  18.403  0.00  0.00    +0.000 A 
ATOM     27  C   UNL     1      48.891   4.782  18.727  0.00  0.00    +0.000 A 
ATOM     28 CL   UNL     1      49.418   3.650  17.586  0.00  0.00    +0.000 Cl
ATOM     29  N   UNL     1      48.729   4.311  19.977  0.00  0.00    +0.000 NA
ATOM     30  C   UNL     1      48.318   5.179  20.910  0.00  0.00    +0.000 A 
ATOM     31  N   UNL     1      48.045   6.481  20.747  0.00  0.00    +0.000 NA
ATOM     32  C   UNL     1      48.227   6.883  19.476  0.00  0.00    +0.000 A 
ENDBRANCH  18  25
ENDBRANCH   1  20
TORSDOF 7
ENDMDL
MODEL 3
REMARK VINA RESULT:    -7.715      2.004      2.834
REMARK INTER + INTRA:         -12.119
REMARK INTER:                 -11.260
REMARK INTRA:                  -0.859
REMARK UNBOUND:                -1.247
REMARK  Name = 
REMARK  8 active torsions:
REMARK  status: ('A' for Active; 'I' for Inactive)
REMARK    1  A    between atoms: C_1  and  N_2
REMARK    2  A    between atoms: C_4  and  C_5
REMARK    3  A    between atoms: N_7  and  C_8
REMARK    4  A    between atoms: C_8  and  C_9
REMARK    5  A    between atoms: C_12  and  C_13
REMARK    6  A    between atoms: C_13  and  N_14
REMARK    7  A    between atoms: N_14  and  C_15
REMARK    8  A    between atoms: C_15  and  C_16
REMARK                            x       y       z     vdW  Elec       q    Type
REMARK                         _______ _______ _______ _____ _____    ______ ____
ROOT
ATOM      1  C   UNL     1      48.240   6.565  13.853  0.00  0.00    +0.000 C 
ENDROOT
BRANCH   1   2
ATOM      2  C   UNL     1      47.055   6.105  13.054  0.00  0.00    +0.000 A 
ATOM      3  C   UNL     1      46.577   6.872  11.986  0.00  0.00    +0.000 A 
ATOM      4  C   UNL     1      45.505   6.419  11.212  0.00  0.00    +0.000 A 
ATOM      5  C   UNL     1      44.889   5.191  11.495  0.00  0.00    +0.000 A 
ATOM      6  C   UNL     1      45.359   4.434  12.576  0.00  0.00    +0.000 A 
ATOM      7  C   UNL     1      46.428   4.888  13.350  0.00  0.00    +0.000 A 
BRANCH   5   8
ATOM      8  C   UNL     1      43.730   4.700  10.659  0.00  0.00    +0.000 C 
BRANCH   8   9
ATOM      9  N   UNL     1      44.128   3.585   9.805  0.00  0.00    +0.000 NA
ATOM     10  H   UNL     1      43.304   3.027   9.585  0.00  0.00    +0.000 HD
BRANCH   9  11
ATOM     11  C   UNL     1      44.735   4.061   8.564  0.00  0.00    +0.000 C 
BRANCH  11  12
ATOM     12  C   UNL     1      45.717   3.062   8.022  0.00  0.00    +0.000 A 
ATOM     13  C   UNL     1      46.637   3.404   7.025  0.00  0.00    +0.000 A 
ATOM     14  C   UNL     1      47.535   2.452   6.554  0.00  0.00    +0.000 A 
ATOM     15  C   UNL     1      47.480   1.178   7.091  0.00  0.00    +0.000 A 
ATOM     16  N   UNL     1      46.601   0.801   8.044  0.00  0.00    +0.000 NA
ATOM     17  C   UNL     1      45.743   1.750   8.486  0.00  0.00    +0.000 A 
ENDBRANCH  11  12
ENDBRANCH   9  11
ENDBRANCH   8   9
ENDBRANCH   5   8
ENDBRANCH   1   2
BRANCH   1  20
ATOM     18  C   UNL     1      49.117   6.420  16.118  0.00  0.00    +0.000 C 
ATOM     19  O   UNL     1      50.262   6.406  15.679  0.00  0.00    +0.000 OA
ATOM     20  N   UNL     1      48.029   6.499  15.275  0.00  0.00    +0.000 N 
ATOM     21  H   UNL     1      47.101   6.500  15.687  0.00  0.00    +0.000 HD
BRANCH  18  25
ATOM     22  C   UNL     1      48.656   4.514  20.552  0.00  0.00    +0.000 C 
ATOM     23  N   UNL     1      48.602   5.501  19.501  0.00  0.00    +0.000 N 
ATOM     24  N   UNL     1      48.983   5.194  18.242  0.00  0.00    +0.000 NA
ATOM     25  C   UNL     1      48.798   6.349  17.554  0.00  0.00    +0.000 A 
ATOM     26  C   UNL     1      48.291   7.386  18.402  0.00  0.00    +0.000 A 
ATOM     27  C   UNL     1      47.895   8.717  18.377  0.00  0.00    +0.000 A 
ATOM     28 CL   UNL     1      47.927   9.649  16.966  0.00  0.00    +0.000 Cl
ATOM     29  N   UNL     1      47.454   9.351  19.480  0.00  0.00    +0.000 NA
ATOM     30  C   UNL     1      47.409   8.644  20.616  0.00  0.00    +0.000 A 
ATOM     31  N   UNL     1      47.754   7.360  20.791  0.00  0.00    +0.000 NA
ATOM     32  C   UNL     1      48.184   6.790  19.650  0.00  0.00    +0.000 A 
ENDBRANCH  18  25
ENDBRANCH   1  20
TORSDOF 7
ENDMDL
MODEL 4
REMARK VINA RESULT:    -7.270      1.871      2.318
REMARK INTER + INTRA:         -11.492
REMARK INTER:                 -10.752
REMARK INTRA:                  -0.740
REMARK UNBOUND:                -1.247
REMARK  Name = 
REMARK  8 active torsions:
REMARK  status: ('A' for Active; 'I' for Inactive)
REMARK    1  A    between atoms: C_1  and  N_2
REMARK    2  A    between atoms: C_4  and  C_5
REMARK    3  A    between atoms: N_7  and  C_8
REMARK    4  A    between atoms: C_8  and  C_9
REMARK    5  A    between atoms: C_12  and  C_13
REMARK    6  A    between atoms: C_13  and  N_14
REMARK    7  A    between atoms: N_14  and  C_15
REMARK    8  A    between atoms: C_15  and  C_16
REMARK                            x       y       z     vdW  Elec       q    Type
REMARK                         _______ _______ _______ _____ _____    ______ ____
ROOT
ATOM      1  C   UNL     1      47.920   7.388  13.748  0.00  0.00    +0.000 C 
ENDROOT
BRANCH   1   2
ATOM      2  C   UNL     1      46.843   6.708  12.952  0.00  0.00    +0.000 A 
ATOM      3  C   UNL     1      46.596   5.340  13.114  0.00  0.00    +0.000 A 
ATOM      4  C   UNL     1      45.560   4.720  12.410  0.00  0.00    +0.000 A 
ATOM      5  C   UNL     1      44.755   5.455  11.529  0.00  0.00    +0.000 A 
ATOM      6  C   UNL     1      45.015   6.821  11.357  0.00  0.00    +0.000 A 
ATOM      7  C   UNL     1      46.052   7.440  12.058  0.00  0.00    +0.000 A 
BRANCH   5   8
ATOM      8  C   UNL     1      43.635   4.785  10.767  0.00  0.00    +0.000 C 
BRANCH   8   9
ATOM      9  N   UNL     1      44.135   3.673   9.962  0.00  0.00    +0.000 NA
ATOM     10  H   UNL     1      43.368   3.026   9.782  0.00  0.00    +0.000 HD
BRANCH   9  11
ATOM     11  C   UNL     1      44.677   4.145   8.690  0.00  0.00    +0.000 C 
BRANCH  11  12
ATOM     12  C   UNL     1      45.662   3.162   8.122  0.00  0.00    +0.000 A 
ATOM     13  C   UNL     1      46.580   3.532   7.134  0.00  0.00    +0.000 A 
ATOM     14  C   UNL     1      47.480   2.594   6.638  0.00  0.00    +0.000 A 
ATOM     15  C   UNL     1      47.428   1.306   7.143  0.00  0.00    +0.000 A 
ATOM     16  N   UNL     1      46.551   0.903   8.087  0.00  0.00    +0.000 NA
ATOM     17  C   UNL     1      45.692   1.839   8.553  0.00  0.00    +0.000 A 
ENDBRANCH  11  12
ENDBRANCH   9  11
ENDBRANCH   8   9
ENDBRANCH   5   8
ENDBRANCH   1   2
BRANCH   1  20
ATOM     18  C   UNL     1      48.740   7.115  16.022  0.00  0.00    +0.000 C 
ATOM     19  O   UNL     1      48.528   8.302  16.246  0.00  0.00    +0.000 OA
ATOM     20  N   UNL     1      48.465   6.559  14.792  0.00  0.00    +0.000 N 
ATOM     21  H   UNL     1      48.665   5.574  14.653  0.00  0.00    +0.000 HD
BRANCH  18  25
ATOM     22  C   UNL     1      51.390   3.472  17.816  0.00  0.00    +0.000 C 
ATOM     23  N   UNL     1      50.473   4.587  17.799  0.00  0.00    +0.000 N 
ATOM     24  N   UNL     1      50.171   5.219  16.644  0.00  0.00    +0.000 NA
ATOM     25  C   UNL     1      49.302   6.190  17.021  0.00  0.00    +0.000 A 
ATOM     26  C   UNL     1      49.061   6.155  18.432  0.00  0.00    +0.000 A 
ATOM     27  C   UNL     1      48.338   6.796  19.430  0.00  0.00    +0.000 A 
ATOM     28 CL   UNL     1      47.307   8.099  19.111  0.00  0.00    +0.000 Cl
ATOM     29  N   UNL     1      48.410   6.417  20.719  0.00  0.00    +0.000 NA
ATOM     30  C   UNL     1      49.211   5.385  21.010  0.00  0.00    +0.000 A 
ATOM     31  N   UNL     1      49.962   4.671  20.159  0.00  0.00    +0.000 NA
ATOM     32  C   UNL     1      49.842   5.104  18.890  0.00  0.00    +0.000 A 
ENDBRANCH  18  25
ENDBRANCH   1  20
TORSDOF 7
ENDMDL
MODEL 5
REMARK VINA RESULT:    -7.209      1.993      2.455
REMARK INTER + INTRA:         -11.406
REMARK INTER:                 -10.172
REMARK INTRA:                  -1.233
REMARK UNBOUND:                -1.247
REMARK  Name = 
REMARK  8 active torsions:
REMARK  status: ('A' for Active; 'I' for Inactive)
REMARK    1  A    between atoms: C_1  and  N_2
REMARK    2  A    between atoms: C_4  and  C_5
REMARK    3  A    between atoms: N_7  and  C_8
REMARK    4  A    between atoms: C_8  and  C_9
REMARK    5  A    between atoms: C_12  and  C_13
REMARK    6  A    between atoms: C_13  and  N_14
REMARK    7  A    between atoms: N_14  and  C_15
REMARK    8  A    between atoms: C_15  and  C_16
REMARK                            x       y       z     vdW  Elec       q    Type
REMARK                         _______ _______ _______ _____ _____    ______ ____
ROOT
ATOM      1  C   UNL     1      47.912   7.748  13.195  0.00  0.00    +0.000 C 
ENDROOT
BRANCH   1   2
ATOM      2  C   UNL     1      46.745   6.811  13.071  0.00  0.00    +0.000 A 
ATOM      3  C   UNL     1      45.523   7.261  12.558  0.00  0.00    +0.000 A 
ATOM      4  C   UNL     1      44.454   6.376  12.396  0.00  0.00    +0.000 A 
ATOM      5  C   UNL     1      44.585   5.025  12.749  0.00  0.00    +0.000 A 
ATOM      6  C   UNL     1      45.804   4.581  13.278  0.00  0.00    +0.000 A 
ATOM      7  C   UNL     1      46.872   5.466  13.442  0.00  0.00    +0.000 A 
BRANCH   5   8
ATOM      8  C   UNL     1      43.430   4.068  12.576  0.00  0.00    +0.000 C 
BRANCH   8   9
ATOM      9  N   UNL     1      43.178   3.792  11.163  0.00  0.00    +0.000 NA
ATOM     10  H   UNL     1      43.462   4.602  10.613  0.00  0.00    +0.000 HD
BRANCH   9  11
ATOM     11  C   UNL     1      43.923   2.618  10.714  0.00  0.00    +0.000 C 
BRANCH  11  12
ATOM     12  C   UNL     1      44.804   2.950   9.543  0.00  0.00    +0.000 A 
ATOM     13  C   UNL     1      45.470   1.954   8.821  0.00  0.00    +0.000 A 
ATOM     14  C   UNL     1      46.272   2.302   7.739  0.00  0.00    +0.000 A 
ATOM     15  C   UNL     1      46.391   3.642   7.417  0.00  0.00    +0.000 A 
ATOM     16  N   UNL     1      45.777   4.636   8.094  0.00  0.00    +0.000 NA
ATOM     17  C   UNL     1      45.000   4.267   9.138  0.00  0.00    +0.000 A 
ENDBRANCH  11  12
ENDBRANCH   9  11
ENDBRANCH   8   9
ENDBRANCH   5   8
ENDBRANCH   1   2
BRANCH   1  20
ATOM     18  C   UNL     1      49.289   7.549  15.191  0.00  0.00    +0.000 C 
ATOM     19  O   UNL     1      48.578   8.365  15.768  0.00  0.00    +0.000 OA
ATOM     20  N   UNL     1      49.033   7.172  13.890  0.00  0.00    +0.000 N 
ATOM     21  H   UNL     1      49.654   6.498  13.453  0.00  0.00    +0.000 HD
BRANCH  18  25
ATOM     22  C   UNL     1      53.943   6.746  16.287  0.00  0.00    +0.000 C 
ATOM     23  N   UNL     1      52.511   6.568  16.291  0.00  0.00    +0.000 N 
ATOM     24  N   UNL     1      51.711   7.372  15.558  0.00  0.00    +0.000 NA
ATOM     25  C   UNL     1      50.461   6.910  15.814  0.00  0.00    +0.000 A 
ATOM     26  C   UNL     1      50.490   5.800  16.718  0.00  0.00    +0.000 A 
ATOM     27  C   UNL     1      49.653   4.899  17.364  0.00  0.00    +0.000 A 
ATOM     28 CL   UNL     1      47.973   4.917  17.167  0.00  0.00    +0.000 Cl
ATOM     29  N   UNL     1      50.130   3.948  18.188  0.00  0.00    +0.000 NA
ATOM     30  C   UNL     1      51.456   3.898  18.364  0.00  0.00    +0.000 A 
ATOM     31  N   UNL     1      52.382   4.693  17.809  0.00  0.00    +0.000 NA
ATOM     32  C   UNL     1      51.836   5.619  16.999  0.00  0.00    +0.000 A 
ENDBRANCH  18  25
ENDBRANCH   1  20
TORSDOF 7
ENDMDL
MODEL 6
REMARK VINA RESULT:    -7.032      2.059      3.182
REMARK INTER + INTRA:         -11.156
REMARK INTER:                 -10.103
REMARK INTRA:                  -1.054
REMARK UNBOUND:                -1.247
REMARK  Name = 
REMARK  8 active torsions:
REMARK  status: ('A' for Active; 'I' for Inactive)
REMARK    1  A    between atoms: C_1  and  N_2
REMARK    2  A    between atoms: C_4  and  C_5
REMARK    3  A    between atoms: N_7  and  C_8
REMARK    4  A    between atoms: C_8  and  C_9
REMARK    5  A    between atoms: C_12  and  C_13
REMARK    6  A    between atoms: C_13  and  N_14
REMARK    7  A    between atoms: N_14  and  C_15
REMARK    8  A    between atoms: C_15  and  C_16
REMARK                            x       y       z     vdW  Elec       q    Type
REMARK                         _______ _______ _______ _____ _____    ______ ____
ROOT
ATOM      1  C   UNL     1      47.353   3.898  14.971  0.00  0.00    +0.000 C 
ENDROOT
BRANCH   1   2
ATOM      2  C   UNL     1      46.537   4.262  13.764  0.00  0.00    +0.000 A 
ATOM      3  C   UNL     1      46.447   5.594  13.343  0.00  0.00    +0.000 A 
ATOM      4  C   UNL     1      45.730   5.925  12.190  0.00  0.00    +0.000 A 
ATOM      5  C   UNL     1      45.086   4.930  11.439  0.00  0.00    +0.000 A 
ATOM      6  C   UNL     1      45.164   3.601  11.873  0.00  0.00    +0.000 A 
ATOM      7  C   UNL     1      45.879   3.270  13.026  0.00  0.00    +0.000 A 
BRANCH   5   8
ATOM      8  C   UNL     1      44.309   5.287  10.194  0.00  0.00    +0.000 C 
BRANCH   8   9
ATOM      9  N   UNL     1      45.109   5.069   8.991  0.00  0.00    +0.000 NA
ATOM     10  H   UNL     1      46.072   4.876   9.265  0.00  0.00    +0.000 HD
BRANCH   9  11
ATOM     11  C   UNL     1      44.594   3.943   8.213  0.00  0.00    +0.000 C 
BRANCH  11  12
ATOM     12  C   UNL     1      45.707   3.034   7.773  0.00  0.00    +0.000 A 
ATOM     13  C   UNL     1      45.803   1.717   8.235  0.00  0.00    +0.000 A 
ATOM     14  C   UNL     1      46.845   0.905   7.799  0.00  0.00    +0.000 A 
ATOM     15  C   UNL     1      47.767   1.440   6.916  0.00  0.00    +0.000 A 
ATOM     16  N   UNL     1      47.719   2.708   6.455  0.00  0.00    +0.000 NA
ATOM     17  C   UNL     1      46.692   3.472   6.893  0.00  0.00    +0.000 A 
ENDBRANCH  11  12
ENDBRANCH   9  11
ENDBRANCH   8   9
ENDBRANCH   5   8
ENDBRANCH   1   2
BRANCH   1  20
ATOM     18  C   UNL     1      48.409   4.966  16.885  0.00  0.00    +0.000 C 
ATOM     19  O   UNL     1      49.314   4.139  16.853  0.00  0.00    +0.000 OA
ATOM     20  N   UNL     1      47.374   4.929  15.976  0.00  0.00    +0.000 N 
ATOM     21  H   UNL     1      46.645   5.632  16.048  0.00  0.00    +0.000 HD
BRANCH  18  25
ATOM     22  C   UNL     1      47.933   7.109  21.208  0.00  0.00    +0.000 C 
ATOM     23  N   UNL     1      48.130   6.984  19.784  0.00  0.00    +0.000 N 
ATOM     24  N   UNL     1      48.125   5.773  19.187  0.00  0.00    +0.000 NA
ATOM     25  C   UNL     1      48.338   6.053  17.877  0.00  0.00    +0.000 A 
ATOM     26  C   UNL     1      48.475   7.462  17.661  0.00  0.00    +0.000 A 
ATOM     27  C   UNL     1      48.688   8.393  16.653  0.00  0.00    +0.000 A 
ATOM     28 CL   UNL     1      48.878   7.951  15.031  0.00  0.00    +0.000 Cl
ATOM     29  N   UNL     1      48.755   9.714  16.904  0.00  0.00    +0.000 NA
ATOM     30  C   UNL     1      48.604  10.103  18.175  0.00  0.00    +0.000 A 
ATOM     31  N   UNL     1      48.390   9.325  19.246  0.00  0.00    +0.000 NA
ATOM     32  C   UNL     1      48.335   8.020  18.922  0.00  0.00    +0.000 A 
ENDBRANCH  18  25
ENDBRANCH   1  20
TORSDOF 7
ENDMDL
MODEL 7
REMARK VINA RESULT:    -6.917      2.299      3.125
REMARK INTER + INTRA:         -10.994
REMARK INTER:                 -10.083
REMARK INTRA:                  -0.911
REMARK UNBOUND:                -1.247
REMARK  Name = 
REMARK  8 active torsions:
REMARK  status: ('A' for Active; 'I' for Inactive)
REMARK    1  A    between atoms: C_1  and  N_2
REMARK    2  A    between atoms: C_4  and  C_5
REMARK    3  A    between atoms: N_7  and  C_8
REMARK    4  A    between atoms: C_8  and  C_9
REMARK    5  A    between atoms: C_12  and  C_13
REMARK    6  A    between atoms: C_13  and  N_14
REMARK    7  A    between atoms: N_14  and  C_15
REMARK    8  A    between atoms: C_15  and  C_16
REMARK                            x       y       z     vdW  Elec       q    Type
REMARK                         _______ _______ _______ _____ _____    ______ ____
ROOT
ATOM      1  C   UNL     1      47.159   7.588  13.006  0.00  0.00    +0.000 C 
ENDROOT
BRANCH   1   2
ATOM      2  C   UNL     1      46.275   6.542  12.391  0.00  0.00    +0.000 A 
ATOM      3  C   UNL     1      46.268   6.343  11.006  0.00  0.00    +0.000 A 
ATOM      4  C   UNL     1      45.482   5.335  10.439  0.00  0.00    +0.000 A 
ATOM      5  C   UNL     1      44.686   4.511  11.248  0.00  0.00    +0.000 A 
ATOM      6  C   UNL     1      44.682   4.724  12.632  0.00  0.00    +0.000 A 
ATOM      7  C   UNL     1      45.466   5.732  13.198  0.00  0.00    +0.000 A 
BRANCH   5   8
ATOM      8  C   UNL     1      43.835   3.422  10.636  0.00  0.00    +0.000 C 
BRANCH   8   9
ATOM      9  N   UNL     1      44.215   3.171   9.249  0.00  0.00    +0.000 NA
ATOM     10  H   UNL     1      44.687   3.996   8.880  0.00  0.00    +0.000 HD
BRANCH   9  11
ATOM     11  C   UNL     1      45.109   2.019   9.148  0.00  0.00    +0.000 C 
BRANCH  11  12
ATOM     12  C   UNL     1      46.019   2.141   7.957  0.00  0.00    +0.000 A 
ATOM     13  C   UNL     1      46.005   3.275   7.138  0.00  0.00    +0.000 A 
ATOM     14  C   UNL     1      46.867   3.354   6.049  0.00  0.00    +0.000 A 
ATOM     15  C   UNL     1      47.715   2.287   5.807  0.00  0.00    +0.000 A 
ATOM     16  N   UNL     1      47.753   1.170   6.564  0.00  0.00    +0.000 NA
ATOM     17  C   UNL     1      46.907   1.124   7.619  0.00  0.00    +0.000 A 
ENDBRANCH  11  12
ENDBRANCH   9  11
ENDBRANCH   8   9
ENDBRANCH   5   8
ENDBRANCH   1   2
BRANCH   1  20
ATOM     18  C   UNL     1      48.660   7.622  14.921  0.00  0.00    +0.000 C 
ATOM     19  O   UNL     1      48.077   8.605  15.366  0.00  0.00    +0.000 OA
ATOM     20  N   UNL     1      48.270   7.036  13.737  0.00  0.00    +0.000 N 
ATOM     21  H   UNL     1      48.789   6.228  13.406  0.00  0.00    +0.000 HD
BRANCH  18  25
ATOM     22  C   UNL     1      51.093   4.547  17.773  0.00  0.00    +0.000 C 
ATOM     23  N   UNL     1      50.869   5.630  16.845  0.00  0.00    +0.000 N 
ATOM     24  N   UNL     1      49.621   5.948  16.439  0.00  0.00    +0.000 NA
ATOM     25  C   UNL     1      49.809   6.990  15.590  0.00  0.00    +0.000 A 
ATOM     26  C   UNL     1      51.197   7.322  15.472  0.00  0.00    +0.000 A 
ATOM     27  C   UNL     1      52.054   8.209  14.834  0.00  0.00    +0.000 A 
ATOM     28 CL   UNL     1      51.499   9.413  13.784  0.00  0.00    +0.000 Cl
ATOM     29  N   UNL     1      53.388   8.168  15.015  0.00  0.00    +0.000 NA
ATOM     30  C   UNL     1      53.864   7.231  15.843  0.00  0.00    +0.000 A 
ATOM     31  N   UNL     1      53.164   6.315  16.528  0.00  0.00    +0.000 NA
ATOM     32  C   UNL     1      51.841   6.414  16.300  0.00  0.00    +0.000 A 
ENDBRANCH  18  25
ENDBRANCH   1  20
TORSDOF 7
ENDMDL
MODEL 8
REMARK VINA RESULT:    -6.825      1.965      2.827
REMARK INTER + INTRA:         -10.864
REMARK INTER:                  -9.991
REMARK INTRA:                  -0.873
REMARK UNBOUND:                -1.247
REMARK  Name = 
REMARK  8 active torsions:
REMARK  status: ('A' for Active; 'I' for Inactive)
REMARK    1  A    between atoms: C_1  and  N_2
REMARK    2  A    between atoms: C_4  and  C_5
REMARK    3  A    between atoms: N_7  and  C_8
REMARK    4  A    between atoms: C_8  and  C_9
REMARK    5  A    between atoms: C_12  and  C_13
REMARK    6  A    between atoms: C_13  and  N_14
REMARK    7  A    between atoms: N_14  and  C_15
REMARK    8  A    between atoms: C_15  and  C_16
REMARK                            x       y       z     vdW  Elec       q    Type
REMARK                         _______ _______ _______ _____ _____    ______ ____
ROOT
ATOM      1  C   UNL     1      47.270   7.837  13.497  0.00  0.00    +0.000 C 
ENDROOT
BRANCH   1   2
ATOM      2  C   UNL     1      46.246   6.891  12.941  0.00  0.00    +0.000 A 
ATOM      3  C   UNL     1      45.327   7.324  11.978  0.00  0.00    +0.000 A 
ATOM      4  C   UNL     1      44.407   6.429  11.424  0.00  0.00    +0.000 A 
ATOM      5  C   UNL     1      44.388   5.086  11.825  0.00  0.00    +0.000 A 
ATOM      6  C   UNL     1      45.297   4.659  12.800  0.00  0.00    +0.000 A 
ATOM      7  C   UNL     1      46.215   5.553  13.356  0.00  0.00    +0.000 A 
BRANCH   5   8
ATOM      8  C   UNL     1      43.393   4.118  11.227  0.00  0.00    +0.000 C 
BRANCH   8   9
ATOM      9  N   UNL     1      43.676   3.873   9.815  0.00  0.00    +0.000 NA
ATOM     10  H   UNL     1      44.300   4.604   9.472  0.00  0.00    +0.000 HD
BRANCH   9  11
ATOM     11  C   UNL     1      44.308   2.570   9.622  0.00  0.00    +0.000 C 
BRANCH  11  12
ATOM     12  C   UNL     1      45.386   2.639   8.577  0.00  0.00    +0.000 A 
ATOM     13  C   UNL     1      46.190   1.533   8.280  0.00  0.00    +0.000 A 
ATOM     14  C   UNL     1      47.173   1.635   7.301  0.00  0.00    +0.000 A 
ATOM     15  C   UNL     1      47.328   2.848   6.653  0.00  0.00    +0.000 A 
ATOM     16  N   UNL     1      46.583   3.943   6.917  0.00  0.00    +0.000 NA
ATOM     17  C   UNL     1      45.632   3.811   7.870  0.00  0.00    +0.000 A 
ENDBRANCH  11  12
ENDBRANCH   9  11
ENDBRANCH   8   9
ENDBRANCH   5   8
ENDBRANCH   1   2
BRANCH   1  20
ATOM     18  C   UNL     1      49.226   7.235  14.814  0.00  0.00    +0.000 C 
ATOM     19  O   UNL     1      49.953   7.491  13.860  0.00  0.00    +0.000 OA
ATOM     20  N   UNL     1      47.858   7.379  14.730  0.00  0.00    +0.000 N 
ATOM     21  H   UNL     1      47.298   7.148  15.545  0.00  0.00    +0.000 HD
BRANCH  18  25
ATOM     22  C   UNL     1      50.386   4.104  18.329  0.00  0.00    +0.000 C 
ATOM     23  N   UNL     1      50.239   5.369  17.650  0.00  0.00    +0.000 N 
ATOM     24  N   UNL     1      49.701   5.433  16.413  0.00  0.00    +0.000 NA
ATOM     25  C   UNL     1      49.730   6.755  16.112  0.00  0.00    +0.000 A 
ATOM     26  C   UNL     1      50.293   7.521  17.183  0.00  0.00    +0.000 A 
ATOM     27  C   UNL     1      50.605   8.827  17.542  0.00  0.00    +0.000 A 
ATOM     28 CL   UNL     1      50.302  10.146  16.527  0.00  0.00    +0.000 Cl
ATOM     29  N   UNL     1      51.167   9.125  18.728  0.00  0.00    +0.000 NA
ATOM     30  C   UNL     1      51.416   8.108  19.561  0.00  0.00    +0.000 A 
ATOM     31  N   UNL     1      51.169   6.806  19.355  0.00  0.00    +0.000 NA
ATOM     32  C   UNL     1      50.608   6.581  18.152  0.00  0.00    +0.000 A 
ENDBRANCH  18  25
ENDBRANCH   1  20
TORSDOF 7
ENDMDL
MODEL 9
REMARK VINA RESULT:    -6.776      2.423      3.187
REMARK INTER + INTRA:         -10.795
REMARK INTER:                  -9.817
REMARK INTRA:                  -0.977
REMARK UNBOUND:                -1.247
REMARK  Name = 
REMARK  8 active torsions:
REMARK  status: ('A' for Active; 'I' for Inactive)
REMARK    1  A    between atoms: C_1  and  N_2
REMARK    2  A    between atoms: C_4  and  C_5
REMARK    3  A    between atoms: N_7  and  C_8
REMARK    4  A    between atoms: C_8  and  C_9
REMARK    5  A    between atoms: C_12  and  C_13
REMARK    6  A    between atoms: C_13  and  N_14
REMARK    7  A    between atoms: N_14  and  C_15
REMARK    8  A    between atoms: C_15  and  C_16
REMARK                            x       y       z     vdW  Elec       q    Type
REMARK                         _______ _______ _______ _____ _____    ______ ____
ROOT
ATOM      1  C   UNL     1      48.039   5.724  14.172  0.00  0.00    +0.000 C 
ENDROOT
BRANCH   1   2
ATOM      2  C   UNL     1      46.796   5.348  13.419  0.00  0.00    +0.000 A 
ATOM      3  C   UNL     1      45.982   6.335  12.851  0.00  0.00    +0.000 A 
ATOM      4  C   UNL     1      44.854   5.982  12.107  0.00  0.00    +0.000 A 
ATOM      5  C   UNL     1      44.515   4.634  11.920  0.00  0.00    +0.000 A 
ATOM      6  C   UNL     1      45.322   3.648  12.503  0.00  0.00    +0.000 A 
ATOM      7  C   UNL     1      46.449   4.002  13.249  0.00  0.00    +0.000 A 
BRANCH   5   8
ATOM      8  C   UNL     1      43.295   4.250  11.116  0.00  0.00    +0.000 C 
BRANCH   8   9
ATOM      9  N   UNL     1      43.650   3.386   9.993  0.00  0.00    +0.000 NA
ATOM     10  H   UNL     1      42.795   3.035   9.564  0.00  0.00    +0.000 HD
BRANCH   9  11
ATOM     11  C   UNL     1      44.428   4.115   8.994  0.00  0.00    +0.000 C 
BRANCH  11  12
ATOM     12  C   UNL     1      45.458   3.226   8.355  0.00  0.00    +0.000 A 
ATOM     13  C   UNL     1      45.509   1.854   8.622  0.00  0.00    +0.000 A 
ATOM     14  C   UNL     1      46.473   1.063   8.006  0.00  0.00    +0.000 A 
ATOM     15  C   UNL     1      47.367   1.674   7.143  0.00  0.00    +0.000 A 
ATOM     16  N   UNL     1      47.361   2.996   6.866  0.00  0.00    +0.000 NA
ATOM     17  C   UNL     1      46.409   3.738   7.477  0.00  0.00    +0.000 A 
ENDBRANCH  11  12
ENDBRANCH   9  11
ENDBRANCH   8   9
ENDBRANCH   5   8
ENDBRANCH   1   2
BRANCH   1  20
ATOM     18  C   UNL     1      48.948   7.385  15.700  0.00  0.00    +0.000 C 
ATOM     19  O   UNL     1      49.968   6.716  15.829  0.00  0.00    +0.000 OA
ATOM     20  N   UNL     1      47.917   6.969  14.885  0.00  0.00    +0.000 N 
ATOM     21  H   UNL     1      47.091   7.555  14.818  0.00  0.00    +0.000 HD
BRANCH  18  25
ATOM     22  C   UNL     1      48.910  12.179  16.420  0.00  0.00    +0.000 C 
ATOM     23  N   UNL     1      48.713  10.777  16.696  0.00  0.00    +0.000 N 
ATOM     24  N   UNL     1      49.056   9.837  15.790  0.00  0.00    +0.000 NA
ATOM     25  C   UNL     1      48.727   8.666  16.392  0.00  0.00    +0.000 A 
ATOM     26  C   UNL     1      48.173   8.888  17.694  0.00  0.00    +0.000 A 
ATOM     27  C   UNL     1      47.660   8.206  18.790  0.00  0.00    +0.000 A 
ATOM     28 CL   UNL     1      47.558   6.518  18.844  0.00  0.00    +0.000 Cl
ATOM     29  N   UNL     1      47.214   8.848  19.885  0.00  0.00    +0.000 NA
ATOM     30  C   UNL     1      47.285  10.184  19.882  0.00  0.00    +0.000 A 
ATOM     31  N   UNL     1      47.754  10.974  18.905  0.00  0.00    +0.000 NA
ATOM     32  C   UNL     1      48.182  10.267  17.843  0.00  0.00    +0.000 A 
ENDBRANCH  18  25
ENDBRANCH   1  20
TORSDOF 7
ENDMDL
