MODEL 1
REMARK VINA RESULT:    -8.143      0.000      0.000
REMARK INTER + INTRA:         -12.487
REMARK INTER:                 -11.475
REMARK INTRA:                  -1.012
REMARK UNBOUND:                -1.012
REMARK  Name = 
REMARK  7 active torsions:
REMARK  status: ('A' for Active; 'I' for Inactive)
REMARK    1  A    between atoms: C_2  and  C_11
REMARK    2  A    between atoms: N_3  and  C_4
REMARK    3  A    between atoms: C_4  and  C_5
REMARK    4  A    between atoms: C_14  and  C_15
REMARK    5  A    between atoms: C_15  and  N_16
REMARK    6  A    between atoms: N_16  and  C_17
REMARK    7  A    between atoms: C_17  and  C_18
REMARK                            x       y       z     vdW  Elec       q    Type
REMARK                         _______ _______ _______ _____ _____    ______ ____
ROOT
ATOM      1  C   UNL     1      46.894   5.899  13.032  0.00  0.00    +0.000 A 
ATOM      2  C   UNL     1      46.787   6.482  11.765  0.00  0.00    +0.000 A 
ATOM      3  C   UNL     1      45.713   6.156  10.929  0.00  0.00    +0.000 A 
ATOM      4  C   UNL     1      44.723   5.254  11.350  0.00  0.00    +0.000 A 
ATOM      5  C   UNL     1      44.826   4.693  12.634  0.00  0.00    +0.000 A 
ATOM      6  C   UNL     1      45.901   5.014  13.472  0.00  0.00    +0.000 A 
ENDROOT
BRANCH   1   8
ATOM      7  O   UNL     1      49.135   6.536  13.389  0.00  0.00    +0.000 OA
ATOM      8  C   UNL     1      48.053   6.267  13.893  0.00  0.00    +0.000 C 
ATOM      9  N   UNL     1      47.820   6.246  15.255  0.00  0.00    +0.000 N 
ATOM     10  H   UNL     1      47.003   5.750  15.586  0.00  0.00    +0.000 HD
BRANCH   9  11
ATOM     11  C   UNL     1      48.884   6.509  16.208  0.00  0.00    +0.000 C 
BRANCH  11  12
ATOM     12  C   UNL     1      49.167   5.293  17.106  0.00  0.00    +0.000 C 
ATOM     13  C   UNL     1      50.661   4.928  17.079  0.00  0.00    +0.000 C 
ATOM     14  C   UNL     1      50.965   3.667  17.884  0.00  0.00    +0.000 C 
ATOM     15  C   UNL     1      50.107   2.492  17.433  0.00  0.00    +0.000 C 
ATOM     16  C   UNL     1      48.623   2.838  17.487  0.00  0.00    +0.000 C 
ATOM     17  C   UNL     1      48.309   4.091  16.672  0.00  0.00    +0.000 C 
ENDBRANCH  11  12
ENDBRANCH   9  11
ENDBRANCH   1   8
BRANCH   4  18
ATOM     18  C   UNL     1      43.540   4.929  10.461  0.00  0.00    +0.000 C 
BRANCH  18  19
ATOM     19  N   UNL     1      43.960   4.362   9.180  0.00  0.00    +0.000 NA
ATOM     20  H   UNL     1      44.718   4.925   8.796  0.00  0.00    +0.000 HD
BRANCH  19  21
ATOM     21  C   UNL     1      44.431   2.985   9.341  0.00  0.00    +0.000 C 
BRANCH  21  22
ATOM     22  C   UNL     1      45.562   2.659   8.389  0.00  0.00    +0.000 A 
ATOM     23  C   UNL     1      46.203   3.664   7.650  0.00  0.00    +0.000 A 
ATOM     24  C   UNL     1      47.287   3.356   6.820  0.00  0.00    +0.000 A 
ATOM     25  C   UNL     1      47.739   2.042   6.720  0.00  0.00    +0.000 A 
ATOM     26  C   UNL     1      47.104   1.033   7.438  0.00  0.00    +0.000 A 
ATOM     27  C   UNL     1      46.022   1.339   8.267  0.00  0.00    +0.000 A 
ENDBRANCH  21  22
ENDBRANCH  19  21
ENDBRANCH  18  19
ENDBRANCH   4  18
TORSDOF 7
ENDMDL
MODEL 2
REMARK VINA RESULT:    -7.844      0.763      1.594
REMARK INTER + INTRA:         -12.066
REMARK INTER:                 -11.068
REMARK INTRA:                  -0.998
REMARK UNBOUND:                -1.012
REMARK  Name = 
REMARK  7 active torsions:
REMARK  status: ('A' for Active; 'I' for Inactive)
REMARK    1  A    between atoms: C_2  and  C_11
REMARK    2  A    between atoms: N_3  and  C_4
REMARK    3  A    between atoms: C_4  and  C_5
REMARK    4  A    between atoms: C_14  and  C_15
REMARK    5  A    between atoms: C_15  and  N_16
REMARK    6  A    between atoms: N_16  and  C_17
REMARK    7  A    between atoms: C_17  and  C_18
REMARK                            x       y       z     vdW  Elec       q    Type
REMARK                         _______ _______ _______ _____ _____    ______ ____
ROOT
ATOM      1  C   UNL     1      46.932   6.062  12.944  0.00  0.00    +0.000 A 
ATOM      2  C   UNL     1      46.076   5.059  13.412  0.00  0.00    +0.000 A 
ATOM      3  C   UNL     1      44.916   4.735  12.699  0.00  0.00    +0.000 A 
ATOM      4  C   UNL     1      44.599   5.399  11.503  0.00  0.00    +0.000 A 
ATOM      5  C   UNL     1      45.477   6.388  11.030  0.00  0.00    +0.000 A 
ATOM      6  C   UNL     1      46.637   6.716  11.742  0.00  0.00    +0.000 A 
ENDROOT
BRANCH   1   8
ATOM      7  O   UNL     1      49.220   6.581  13.160  0.00  0.00    +0.000 OA
ATOM      8  C   UNL     1      48.156   6.382  13.731  0.00  0.00    +0.000 C 
ATOM      9  N   UNL     1      48.002   6.401  15.104  0.00  0.00    +0.000 N 
ATOM     10  H   UNL     1      47.179   5.958  15.491  0.00  0.00    +0.000 HD
BRANCH   9  11
ATOM     11  C   UNL     1      49.131   6.623  15.988  0.00  0.00    +0.000 C 
BRANCH  11  12
ATOM     12  C   UNL     1      49.354   5.441  16.946  0.00  0.00    +0.000 C 
ATOM     13  C   UNL     1      48.152   4.481  16.921  0.00  0.00    +0.000 C 
ATOM     14  C   UNL     1      48.296   3.345  17.930  0.00  0.00    +0.000 C 
ATOM     15  C   UNL     1      48.545   3.871  19.338  0.00  0.00    +0.000 C 
ATOM     16  C   UNL     1      49.754   4.800  19.375  0.00  0.00    +0.000 C 
ATOM     17  C   UNL     1      49.611   5.947  18.376  0.00  0.00    +0.000 C 
ENDBRANCH  11  12
ENDBRANCH   9  11
ENDBRANCH   1   8
BRANCH   4  18
ATOM     18  C   UNL     1      43.362   5.025  10.711  0.00  0.00    +0.000 C 
BRANCH  18  19
ATOM     19  N   UNL     1      43.702   4.440   9.414  0.00  0.00    +0.000 NA
ATOM     20  H   UNL     1      44.366   5.047   8.936  0.00  0.00    +0.000 HD
BRANCH  19  21
ATOM     21  C   UNL     1      44.305   3.115   9.574  0.00  0.00    +0.000 C 
BRANCH  21  22
ATOM     22  C   UNL     1      45.361   2.843   8.524  0.00  0.00    +0.000 A 
ATOM     23  C   UNL     1      45.806   3.856   7.661  0.00  0.00    +0.000 A 
ATOM     24  C   UNL     1      46.826   3.606   6.737  0.00  0.00    +0.000 A 
ATOM     25  C   UNL     1      47.411   2.344   6.665  0.00  0.00    +0.000 A 
ATOM     26  C   UNL     1      46.970   1.326   7.507  0.00  0.00    +0.000 A 
ATOM     27  C   UNL     1      45.951   1.574   8.430  0.00  0.00    +0.000 A 
ENDBRANCH  21  22
ENDBRANCH  19  21
ENDBRANCH  18  19
ENDBRANCH   4  18
TORSDOF 7
ENDMDL
MODEL 3
REMARK VINA RESULT:    -7.531      1.567      8.404
REMARK INTER + INTRA:         -11.625
REMARK INTER:                 -10.496
REMARK INTRA:                  -1.130
REMARK UNBOUND:                -1.012
REMARK  Name = 
REMARK  7 active torsions:
REMARK  status: ('A' for Active; 'I' for Inactive)
REMARK    1  A    between atoms: C_2  and  C_11
REMARK    2  A    between atoms: N_3  and  C_4
REMARK    3  A    between atoms: C_4  and  C_5
REMARK    4  A    between atoms: C_14  and  C_15
REMARK    5  A    between atoms: C_15  and  N_16
REMARK    6  A    between atoms: N_16  and  C_17
REMARK    7  A    between atoms: C_17  and  C_18
REMARK                            x       y       z     vdW  Elec       q    Type
REMARK                         _______ _______ _______ _____ _____    ______ ____
ROOT
ATOM      1  C   UNL     1      45.844   5.570  11.997  0.00  0.00    +0.000 A 
ATOM      2  C   UNL     1      46.286   4.733  13.027  0.00  0.00    +0.000 A 
ATOM      3  C   UNL     1      47.248   5.184  13.937  0.00  0.00    +0.000 A 
ATOM      4  C   UNL     1      47.774   6.482  13.841  0.00  0.00    +0.000 A 
ATOM      5  C   UNL     1      47.306   7.324  12.819  0.00  0.00    +0.000 A 
ATOM      6  C   UNL     1      46.346   6.875  11.905  0.00  0.00    +0.000 A 
ENDROOT
BRANCH   1   8
ATOM      7  O   UNL     1      43.677   4.844  11.425  0.00  0.00    +0.000 OA
ATOM      8  C   UNL     1      44.821   5.055  11.045  0.00  0.00    +0.000 C 
ATOM      9  N   UNL     1      45.263   4.815   9.759  0.00  0.00    +0.000 N 
ATOM     10  H   UNL     1      46.261   4.748   9.609  0.00  0.00    +0.000 HD
BRANCH   9  11
ATOM     11  C   UNL     1      44.387   4.240   8.753  0.00  0.00    +0.000 C 
BRANCH  11  12
ATOM     12  C   UNL     1      45.115   3.205   7.879  0.00  0.00    +0.000 C 
ATOM     13  C   UNL     1      45.562   1.995   8.718  0.00  0.00    +0.000 C 
ATOM     14  C   UNL     1      46.371   0.991   7.902  0.00  0.00    +0.000 C 
ATOM     15  C   UNL     1      47.562   1.651   7.219  0.00  0.00    +0.000 C 
ATOM     16  C   UNL     1      47.121   2.832   6.361  0.00  0.00    +0.000 C 
ATOM     17  C   UNL     1      46.322   3.849   7.174  0.00  0.00    +0.000 C 
ENDBRANCH  11  12
ENDBRANCH   9  11
ENDBRANCH   1   8
BRANCH   4  18
ATOM     18  C   UNL     1      48.790   6.985  14.848  0.00  0.00    +0.000 C 
BRANCH  18  19
ATOM     19  N   UNL     1      48.157   7.398  16.101  0.00  0.00    +0.000 NA
ATOM     20  H   UNL     1      47.193   7.068  16.114  0.00  0.00    +0.000 HD
BRANCH  19  21
ATOM     21  C   UNL     1      48.861   6.841  17.257  0.00  0.00    +0.000 C 
BRANCH  21  22
ATOM     22  C   UNL     1      48.680   5.342  17.362  0.00  0.00    +0.000 A 
ATOM     23  C   UNL     1      47.402   4.769  17.455  0.00  0.00    +0.000 A 
ATOM     24  C   UNL     1      47.246   3.379  17.490  0.00  0.00    +0.000 A 
ATOM     25  C   UNL     1      48.364   2.548  17.433  0.00  0.00    +0.000 A 
ATOM     26  C   UNL     1      49.638   3.104  17.353  0.00  0.00    +0.000 A 
ATOM     27  C   UNL     1      49.795   4.492  17.318  0.00  0.00    +0.000 A 
ENDBRANCH  21  22
ENDBRANCH  19  21
ENDBRANCH  18  19
ENDBRANCH   4  18
TORSDOF 7
ENDMDL
MODEL 4
REMARK VINA RESULT:    -7.052      2.598      4.169
REMARK INTER + INTRA:         -10.950
REMARK INTER:                  -9.944
REMARK INTRA:                  -1.006
REMARK UNBOUND:                -1.012
REMARK  Name = 
REMARK  7 active torsions:
REMARK  status: ('A' for Active; 'I' for Inactive)
REMARK    1  A    between atoms: C_2  and  C_11
REMARK    2  A    between atoms: N_3  and  C_4
REMARK    3  A    between atoms: C_4  and  C_5
REMARK    4  A    between atoms: C_14  and  C_15
REMARK    5  A    between atoms: C_15  and  N_16
REMARK    6  A    between atoms: N_16  and  C_17
REMARK    7  A    between atoms: C_17  and  C_18
REMARK                            x       y       z     vdW  Elec       q    Type
REMARK                         _______ _______ _______ _____ _____    ______ ____
ROOT
ATOM      1  C   UNL     1      46.749   5.879  13.078  0.00  0.00    +0.000 A 
ATOM      2  C   UNL     1      45.883   4.911  13.597  0.00  0.00    +0.000 A 
ATOM      3  C   UNL     1      44.734   4.542  12.886  0.00  0.00    +0.000 A 
ATOM      4  C   UNL     1      44.441   5.123  11.643  0.00  0.00    +0.000 A 
ATOM      5  C   UNL     1      45.331   6.076  11.120  0.00  0.00    +0.000 A 
ATOM      6  C   UNL     1      46.479   6.450  11.829  0.00  0.00    +0.000 A 
ENDROOT
BRANCH   1   8
ATOM      7  O   UNL     1      48.200   5.691  14.926  0.00  0.00    +0.000 OA
ATOM      8  C   UNL     1      47.960   6.249  13.863  0.00  0.00    +0.000 C 
ATOM      9  N   UNL     1      48.740   7.256  13.328  0.00  0.00    +0.000 N 
ATOM     10  H   UNL     1      48.327   7.841  12.613  0.00  0.00    +0.000 HD
BRANCH   9  11
ATOM     11  C   UNL     1      49.904   7.765  14.030  0.00  0.00    +0.000 C 
BRANCH  11  12
ATOM     12  C   UNL     1      50.919   8.410  13.071  0.00  0.00    +0.000 C 
ATOM     13  C   UNL     1      50.817   9.944  13.116  0.00  0.00    +0.000 C 
ATOM     14  C   UNL     1      51.744  10.616  12.107  0.00  0.00    +0.000 C 
ATOM     15  C   UNL     1      51.512  10.094  10.694  0.00  0.00    +0.000 C 
ATOM     16  C   UNL     1      51.642   8.576  10.638  0.00  0.00    +0.000 C 
ATOM     17  C   UNL     1      50.707   7.895  11.636  0.00  0.00    +0.000 C 
ENDBRANCH  11  12
ENDBRANCH   9  11
ENDBRANCH   1   8
BRANCH   4  18
ATOM     18  C   UNL     1      43.218   4.698  10.856  0.00  0.00    +0.000 C 
BRANCH  18  19
ATOM     19  N   UNL     1      43.575   4.152   9.547  0.00  0.00    +0.000 NA
ATOM     20  H   UNL     1      44.163   4.821   9.053  0.00  0.00    +0.000 HD
BRANCH  19  21
ATOM     21  C   UNL     1      44.308   2.892   9.683  0.00  0.00    +0.000 C 
BRANCH  21  22
ATOM     22  C   UNL     1      45.372   2.738   8.617  0.00  0.00    +0.000 A 
ATOM     23  C   UNL     1      45.834   3.843   7.886  0.00  0.00    +0.000 A 
ATOM     24  C   UNL     1      46.861   3.696   6.947  0.00  0.00    +0.000 A 
ATOM     25  C   UNL     1      47.433   2.445   6.727  0.00  0.00    +0.000 A 
ATOM     26  C   UNL     1      46.975   1.338   7.436  0.00  0.00    +0.000 A 
ATOM     27  C   UNL     1      45.950   1.483   8.374  0.00  0.00    +0.000 A 
ENDBRANCH  21  22
ENDBRANCH  19  21
ENDBRANCH  18  19
ENDBRANCH   4  18
TORSDOF 7
ENDMDL
MODEL 5
REMARK VINA RESULT:    -6.979      3.362      9.612
REMARK INTER + INTRA:         -10.847
REMARK INTER:                  -9.745
REMARK INTRA:                  -1.102
REMARK UNBOUND:                -1.012
REMARK  Name = 
REMARK  7 active torsions:
REMARK  status: ('A' for Active; 'I' for Inactive)
REMARK    1  A    between atoms: C_2  and  C_11
REMARK    2  A    between atoms: N_3  and  C_4
REMARK    3  A    between atoms: C_4  and  C_5
REMARK    4  A    between atoms: C_14  and  C_15
REMARK    5  A    between atoms: C_15  and  N_16
REMARK    6  A    between atoms: N_16  and  C_17
REMARK    7  A    between atoms: C_17  and  C_18
REMARK                            x       y       z     vdW  Elec       q    Type
REMARK                         _______ _______ _______ _____ _____    ______ ____
ROOT
ATOM      1  C   UNL     1      46.432   2.418   7.588  0.00  0.00    +0.000 A 
ATOM      2  C   UNL     1      46.199   3.793   7.689  0.00  0.00    +0.000 A 
ATOM      3  C   UNL     1      45.275   4.284   8.618  0.00  0.00    +0.000 A 
ATOM      4  C   UNL     1      44.579   3.411   9.468  0.00  0.00    +0.000 A 
ATOM      5  C   UNL     1      44.838   2.033   9.377  0.00  0.00    +0.000 A 
ATOM      6  C   UNL     1      45.760   1.538   8.446  0.00  0.00    +0.000 A 
ENDROOT
BRANCH   1   8
ATOM      7  O   UNL     1      48.484   2.517   6.434  0.00  0.00    +0.000 OA
ATOM      8  C   UNL     1      47.421   1.931   6.586  0.00  0.00    +0.000 C 
ATOM      9  N   UNL     1      47.037   0.827   5.849  0.00  0.00    +0.000 N 
ATOM     10  H   UNL     1      46.055   0.585   5.840  0.00  0.00    +0.000 HD
BRANCH   9  11
ATOM     11  C   UNL     1      47.874   0.298   4.787  0.00  0.00    +0.000 C 
BRANCH  11  12
ATOM     12  C   UNL     1      47.096   0.121   3.473  0.00  0.00    +0.000 C 
ATOM     13  C   UNL     1      45.908   1.097   3.404  0.00  0.00    +0.000 C 
ATOM     14  C   UNL     1      45.056   0.885   2.155  0.00  0.00    +0.000 C 
ATOM     15  C   UNL     1      44.584  -0.559   2.036  0.00  0.00    +0.000 C 
ATOM     16  C   UNL     1      45.759  -1.529   2.073  0.00  0.00    +0.000 C 
ATOM     17  C   UNL     1      46.610  -1.332   3.326  0.00  0.00    +0.000 C 
ENDBRANCH  11  12
ENDBRANCH   9  11
ENDBRANCH   1   8
BRANCH   4  18
ATOM     18  C   UNL     1      43.604   3.943  10.500  0.00  0.00    +0.000 C 
BRANCH  18  19
ATOM     19  N   UNL     1      43.504   5.402  10.453  0.00  0.00    +0.000 NA
ATOM     20  H   UNL     1      42.577   5.663  10.120  0.00  0.00    +0.000 HD
BRANCH  19  21
ATOM     21  C   UNL     1      43.712   5.989  11.778  0.00  0.00    +0.000 C 
BRANCH  21  22
ATOM     22  C   UNL     1      45.179   6.050  12.145  0.00  0.00    +0.000 A 
ATOM     23  C   UNL     1      46.103   6.731  11.337  0.00  0.00    +0.000 A 
ATOM     24  C   UNL     1      47.445   6.831  11.720  0.00  0.00    +0.000 A 
ATOM     25  C   UNL     1      47.877   6.252  12.911  0.00  0.00    +0.000 A 
ATOM     26  C   UNL     1      46.974   5.562  13.715  0.00  0.00    +0.000 A 
ATOM     27  C   UNL     1      45.634   5.462  13.334  0.00  0.00    +0.000 A 
ENDBRANCH  21  22
ENDBRANCH  19  21
ENDBRANCH  18  19
ENDBRANCH   4  18
TORSDOF 7
ENDMDL
MODEL 6
REMARK VINA RESULT:    -6.753      2.975      3.935
REMARK INTER + INTRA:         -10.529
REMARK INTER:                  -9.691
REMARK INTRA:                  -0.838
REMARK UNBOUND:                -1.012
REMARK  Name = 
REMARK  7 active torsions:
REMARK  status: ('A' for Active; 'I' for Inactive)
REMARK    1  A    between atoms: C_2  and  C_11
REMARK    2  A    between atoms: N_3  and  C_4
REMARK    3  A    between atoms: C_4  and  C_5
REMARK    4  A    between atoms: C_14  and  C_15
REMARK    5  A    between atoms: C_15  and  N_16
REMARK    6  A    between atoms: N_16  and  C_17
REMARK    7  A    between atoms: C_17  and  C_18
REMARK                            x       y       z     vdW  Elec       q    Type
REMARK                         _______ _______ _______ _____ _____    ______ ____
ROOT
ATOM      1  C   UNL     1      45.987   6.329  12.511  0.00  0.00    +0.000 A 
ATOM      2  C   UNL     1      45.822   6.314  11.122  0.00  0.00    +0.000 A 
ATOM      3  C   UNL     1      45.145   5.255  10.505  0.00  0.00    +0.000 A 
ATOM      4  C   UNL     1      44.611   4.204  11.267  0.00  0.00    +0.000 A 
ATOM      5  C   UNL     1      44.760   4.241  12.663  0.00  0.00    +0.000 A 
ATOM      6  C   UNL     1      45.440   5.297  13.283  0.00  0.00    +0.000 A 
ENDROOT
BRANCH   1   8
ATOM      7  O   UNL     1      46.205   8.582  13.166  0.00  0.00    +0.000 OA
ATOM      8  C   UNL     1      46.715   7.470  13.132  0.00  0.00    +0.000 C 
ATOM      9  N   UNL     1      47.977   7.185  13.617  0.00  0.00    +0.000 N 
ATOM     10  H   UNL     1      48.422   6.333  13.302  0.00  0.00    +0.000 HD
BRANCH   9  11
ATOM     11  C   UNL     1      48.824   8.224  14.177  0.00  0.00    +0.000 C 
BRANCH  11  12
ATOM     12  C   UNL     1      49.878   8.714  13.170  0.00  0.00    +0.000 C 
ATOM     13  C   UNL     1      50.033   7.715  12.010  0.00  0.00    +0.000 C 
ATOM     14  C   UNL     1      51.138   8.122  11.039  0.00  0.00    +0.000 C 
ATOM     15  C   UNL     1      52.465   8.337  11.756  0.00  0.00    +0.000 C 
ATOM     16  C   UNL     1      52.324   9.349  12.888  0.00  0.00    +0.000 C 
ATOM     17  C   UNL     1      51.228   8.942  13.871  0.00  0.00    +0.000 C 
ENDBRANCH  11  12
ENDBRANCH   9  11
ENDBRANCH   1   8
BRANCH   4  18
ATOM     18  C   UNL     1      43.845   3.076  10.604  0.00  0.00    +0.000 C 
BRANCH  18  19
ATOM     19  N   UNL     1      44.261   2.877   9.215  0.00  0.00    +0.000 NA
ATOM     20  H   UNL     1      44.562   3.768   8.825  0.00  0.00    +0.000 HD
BRANCH  19  21
ATOM     21  C   UNL     1      45.370   1.925   9.128  0.00  0.00    +0.000 C 
BRANCH  21  22
ATOM     22  C   UNL     1      46.165   2.099   7.851  0.00  0.00    +0.000 A 
ATOM     23  C   UNL     1      46.940   1.053   7.329  0.00  0.00    +0.000 A 
ATOM     24  C   UNL     1      47.621   1.208   6.117  0.00  0.00    +0.000 A 
ATOM     25  C   UNL     1      47.535   2.409   5.415  0.00  0.00    +0.000 A 
ATOM     26  C   UNL     1      46.779   3.459   5.928  0.00  0.00    +0.000 A 
ATOM     27  C   UNL     1      46.099   3.306   7.139  0.00  0.00    +0.000 A 
ENDBRANCH  21  22
ENDBRANCH  19  21
ENDBRANCH  18  19
ENDBRANCH   4  18
TORSDOF 7
ENDMDL
MODEL 7
REMARK VINA RESULT:    -6.490      1.939      3.104
REMARK INTER + INTRA:         -10.158
REMARK INTER:                  -9.482
REMARK INTRA:                  -0.677
REMARK UNBOUND:                -1.012
REMARK  Name = 
REMARK  7 active torsions:
REMARK  status: ('A' for Active; 'I' for Inactive)
REMARK    1  A    between atoms: C_2  and  C_11
REMARK    2  A    between atoms: N_3  and  C_4
REMARK    3  A    between atoms: C_4  and  C_5
REMARK    4  A    between atoms: C_14  and  C_15
REMARK    5  A    between atoms: C_15  and  N_16
REMARK    6  A    between atoms: N_16  and  C_17
REMARK    7  A    between atoms: C_17  and  C_18
REMARK                            x       y       z     vdW  Elec       q    Type
REMARK                         _______ _______ _______ _____ _____    ______ ____
ROOT
ATOM      1  C   UNL     1      47.881   6.421  13.609  0.00  0.00    +0.000 A 
ATOM      2  C   UNL     1      47.035   5.365  13.966  0.00  0.00    +0.000 A 
ATOM      3  C   UNL     1      46.021   4.951  13.094  0.00  0.00    +0.000 A 
ATOM      4  C   UNL     1      45.845   5.575  11.850  0.00  0.00    +0.000 A 
ATOM      5  C   UNL     1      46.714   6.618  11.491  0.00  0.00    +0.000 A 
ATOM      6  C   UNL     1      47.728   7.037  12.361  0.00  0.00    +0.000 A 
ENDROOT
BRANCH   1   8
ATOM      7  O   UNL     1      49.985   7.334  14.148  0.00  0.00    +0.000 OA
ATOM      8  C   UNL     1      48.947   6.836  14.563  0.00  0.00    +0.000 C 
ATOM      9  N   UNL     1      48.690   6.591  15.898  0.00  0.00    +0.000 N 
ATOM     10  H   UNL     1      47.952   5.936  16.122  0.00  0.00    +0.000 HD
BRANCH   9  11
ATOM     11  C   UNL     1      49.677   6.877  16.923  0.00  0.00    +0.000 C 
BRANCH  11  12
ATOM     12  C   UNL     1      49.181   7.936  17.922  0.00  0.00    +0.000 C 
ATOM     13  C   UNL     1      48.398   7.279  19.073  0.00  0.00    +0.000 C 
ATOM     14  C   UNL     1      47.809   8.307  20.034  0.00  0.00    +0.000 C 
ATOM     15  C   UNL     1      46.949   9.332  19.304  0.00  0.00    +0.000 C 
ATOM     16  C   UNL     1      47.729  10.008  18.182  0.00  0.00    +0.000 C 
ATOM     17  C   UNL     1      48.312   8.986  17.208  0.00  0.00    +0.000 C 
ENDBRANCH  11  12
ENDBRANCH   9  11
ENDBRANCH   1   8
BRANCH   4  18
ATOM     18  C   UNL     1      44.770   5.104  10.890  0.00  0.00    +0.000 C 
BRANCH  18  19
ATOM     19  N   UNL     1      44.712   3.644  10.812  0.00  0.00    +0.000 NA
ATOM     20  H   UNL     1      44.097   3.294  11.545  0.00  0.00    +0.000 HD
BRANCH  19  21
ATOM     21  C   UNL     1      44.196   3.205   9.514  0.00  0.00    +0.000 C 
BRANCH  21  22
ATOM     22  C   UNL     1      45.310   2.825   8.562  0.00  0.00    +0.000 A 
ATOM     23  C   UNL     1      45.927   3.785   7.745  0.00  0.00    +0.000 A 
ATOM     24  C   UNL     1      46.996   3.431   6.914  0.00  0.00    +0.000 A 
ATOM     25  C   UNL     1      47.457   2.116   6.891  0.00  0.00    +0.000 A 
ATOM     26  C   UNL     1      46.846   1.152   7.687  0.00  0.00    +0.000 A 
ATOM     27  C   UNL     1      45.778   1.504   8.517  0.00  0.00    +0.000 A 
ENDBRANCH  21  22
ENDBRANCH  19  21
ENDBRANCH  18  19
ENDBRANCH   4  18
TORSDOF 7
ENDMDL
MODEL 8
REMARK VINA RESULT:    -6.462      3.688      5.171
REMARK INTER + INTRA:         -10.119
REMARK INTER:                  -9.067
REMARK INTRA:                  -1.052
REMARK UNBOUND:                -1.012
REMARK  Name = 
REMARK  7 active torsions:
REMARK  status: ('A' for Active; 'I' for Inactive)
REMARK    1  A    between atoms: C_2  and  C_11
REMARK    2  A    between atoms: N_3  and  C_4
REMARK    3  A    between atoms: C_4  and  C_5
REMARK    4  A    between atoms: C_14  and  C_15
REMARK    5  A    between atoms: C_15  and  N_16
REMARK    6  A    between atoms: N_16  and  C_17
REMARK    7  A    between atoms: C_17  and  C_18
REMARK                            x       y       z     vdW  Elec       q    Type
REMARK                         _______ _______ _______ _____ _____    ______ ____
ROOT
ATOM      1  C   UNL     1      48.313   7.182  12.743  0.00  0.00    +0.000 A 
ATOM      2  C   UNL     1      47.535   7.227  11.582  0.00  0.00    +0.000 A 
ATOM      3  C   UNL     1      46.464   6.340  11.418  0.00  0.00    +0.000 A 
ATOM      4  C   UNL     1      46.147   5.406  12.416  0.00  0.00    +0.000 A 
ATOM      5  C   UNL     1      46.919   5.386  13.589  0.00  0.00    +0.000 A 
ATOM      6  C   UNL     1      47.993   6.269  13.755  0.00  0.00    +0.000 A 
ENDROOT
BRANCH   1   8
ATOM      7  O   UNL     1      49.242   9.289  13.247  0.00  0.00    +0.000 OA
ATOM      8  C   UNL     1      49.447   8.139  12.882  0.00  0.00    +0.000 C 
ATOM      9  N   UNL     1      50.694   7.647  12.545  0.00  0.00    +0.000 N 
ATOM     10  H   UNL     1      50.732   6.798  11.997  0.00  0.00    +0.000 HD
BRANCH   9  11
ATOM     11  C   UNL     1      51.871   8.497  12.561  0.00  0.00    +0.000 C 
BRANCH  11  12
ATOM     12  C   UNL     1      52.703   8.354  11.276  0.00  0.00    +0.000 C 
ATOM     13  C   UNL     1      52.945   9.726  10.624  0.00  0.00    +0.000 C 
ATOM     14  C   UNL     1      53.686   9.614   9.295  0.00  0.00    +0.000 C 
ATOM     15  C   UNL     1      52.977   8.670   8.333  0.00  0.00    +0.000 C 
ATOM     16  C   UNL     1      52.761   7.299   8.962  0.00  0.00    +0.000 C 
ATOM     17  C   UNL     1      52.007   7.401  10.287  0.00  0.00    +0.000 C 
ENDBRANCH  11  12
ENDBRANCH   9  11
ENDBRANCH   1   8
BRANCH   4  18
ATOM     18  C   UNL     1      44.965   4.471  12.257  0.00  0.00    +0.000 C 
BRANCH  18  19
ATOM     19  N   UNL     1      44.180   4.782  11.062  0.00  0.00    +0.000 NA
ATOM     20  H   UNL     1      44.713   5.413  10.466  0.00  0.00    +0.000 HD
BRANCH  19  21
ATOM     21  C   UNL     1      43.867   3.569  10.305  0.00  0.00    +0.000 C 
BRANCH  21  22
ATOM     22  C   UNL     1      44.930   3.256   9.274  0.00  0.00    +0.000 A 
ATOM     23  C   UNL     1      45.335   1.936   9.023  0.00  0.00    +0.000 A 
ATOM     24  C   UNL     1      46.274   1.656   8.025  0.00  0.00    +0.000 A 
ATOM     25  C   UNL     1      46.819   2.692   7.268  0.00  0.00    +0.000 A 
ATOM     26  C   UNL     1      46.436   4.007   7.515  0.00  0.00    +0.000 A 
ATOM     27  C   UNL     1      45.499   4.288   8.512  0.00  0.00    +0.000 A 
ENDBRANCH  21  22
ENDBRANCH  19  21
ENDBRANCH  18  19
ENDBRANCH   4  18
TORSDOF 7
ENDMDL
MODEL 9
REMARK VINA RESULT:    -6.290      2.218      8.339
REMARK INTER + INTRA:          -9.876
REMARK INTER:                  -8.524
REMARK INTRA:                  -1.352
REMARK UNBOUND:                -1.012
REMARK  Name = 
REMARK  7 active torsions:
REMARK  status: ('A' for Active; 'I' for Inactive)
REMARK    1  A    between atoms: C_2  and  C_11
REMARK    2  A    between atoms: N_3  and  C_4
REMARK    3  A    between atoms: C_4  and  C_5
REMARK    4  A    between atoms: C_14  and  C_15
REMARK    5  A    between atoms: C_15  and  N_16
REMARK    6  A    between atoms: N_16  and  C_17
REMARK    7  A    between atoms: C_17  and  C_18
REMARK                            x       y       z     vdW  Elec       q    Type
REMARK                         _______ _______ _______ _____ _____    ______ ____
ROOT
ATOM      1  C   UNL     1      46.242   7.011  12.123  0.00  0.00    +0.000 A 
ATOM      2  C   UNL     1      47.577   6.644  11.924  0.00  0.00    +0.000 A 
ATOM      3  C   UNL     1      48.599   7.584  12.099  0.00  0.00    +0.000 A 
ATOM      4  C   UNL     1      48.304   8.900  12.489  0.00  0.00    +0.000 A 
ATOM      5  C   UNL     1      46.963   9.252  12.710  0.00  0.00    +0.000 A 
ATOM      6  C   UNL     1      45.938   8.315  12.533  0.00  0.00    +0.000 A 
ENDROOT
BRANCH   1   8
ATOM      7  O   UNL     1      44.656   5.446  12.890  0.00  0.00    +0.000 OA
ATOM      8  C   UNL     1      45.181   5.984  11.925  0.00  0.00    +0.000 C 
ATOM      9  N   UNL     1      44.875   5.681  10.612  0.00  0.00    +0.000 N 
ATOM     10  H   UNL     1      45.537   5.957   9.899  0.00  0.00    +0.000 HD
BRANCH   9  11
ATOM     11  C   UNL     1      43.915   4.644  10.279  0.00  0.00    +0.000 C 
BRANCH  11  12
ATOM     12  C   UNL     1      44.410   3.746   9.133  0.00  0.00    +0.000 C 
ATOM     13  C   UNL     1      44.839   2.367   9.663  0.00  0.00    +0.000 C 
ATOM     14  C   UNL     1      45.425   1.482   8.566  0.00  0.00    +0.000 C 
ATOM     15  C   UNL     1      46.575   2.170   7.842  0.00  0.00    +0.000 C 
ATOM     16  C   UNL     1      46.147   3.524   7.288  0.00  0.00    +0.000 C 
ATOM     17  C   UNL     1      45.571   4.422   8.382  0.00  0.00    +0.000 C 
ENDBRANCH  11  12
ENDBRANCH   9  11
ENDBRANCH   1   8
BRANCH   4  18
ATOM     18  C   UNL     1      49.412   9.910  12.715  0.00  0.00    +0.000 C 
BRANCH  18  19
ATOM     19  N   UNL     1      50.456   9.385  13.595  0.00  0.00    +0.000 NA
ATOM     20  H   UNL     1      51.318   9.904  13.439  0.00  0.00    +0.000 HD
BRANCH  19  21
ATOM     21  C   UNL     1      50.074   9.516  15.002  0.00  0.00    +0.000 C 
BRANCH  21  22
ATOM     22  C   UNL     1      50.020   8.174  15.701  0.00  0.00    +0.000 A 
ATOM     23  C   UNL     1      48.801   7.512  15.910  0.00  0.00    +0.000 A 
ATOM     24  C   UNL     1      48.772   6.245  16.502  0.00  0.00    +0.000 A 
ATOM     25  C   UNL     1      49.959   5.628  16.892  0.00  0.00    +0.000 A 
ATOM     26  C   UNL     1      51.174   6.280  16.703  0.00  0.00    +0.000 A 
ATOM     27  C   UNL     1      51.205   7.545  16.112  0.00  0.00    +0.000 A 
ENDBRANCH  21  22
ENDBRANCH  19  21
ENDBRANCH  18  19
ENDBRANCH   4  18
TORSDOF 7
ENDMDL
