MODEL 1
REMARK VINA RESULT:    -7.568      0.000      0.000
REMARK INTER + INTRA:         -11.067
REMARK INTER:                 -10.223
REMARK INTRA:                  -0.845
REMARK UNBOUND:                -0.845
REMARK  Name = 
REMARK  9 active torsions:
REMARK  status: ('A' for Active; 'I' for Inactive)
REMARK    1  A    between atoms: C_1  and  C_2
REMARK    2  A    between atoms: C_4  and  C_5
REMARK    3  A    between atoms: C_5  and  C_6
REMARK    4  A    between atoms: C_5  and  C_7
REMARK    5  A    between atoms: C_7  and  N_8
REMARK    6  A    between atoms: C_12  and  C_13
REMARK    7  A    between atoms: C_19  and  C_20
REMARK    8  A    between atoms: C_21  and  O_22
REMARK    9  A    between atoms: O_22  and  C_23
REMARK                            x       y       z     vdW  Elec       q    Type
REMARK                         _______ _______ _______ _____ _____    ______ ____
ROOT
ATOM      1  C   UNL     1      43.665   5.000  11.665  0.00  0.00    +0.000 C 
ATOM      2  C   UNL     1      42.716   6.213  11.736  0.00  0.00    +0.000 C 
ENDROOT
BRANCH   1   6
ATOM      3  C   UNL     1      47.912   7.633  11.411  0.00  0.00    +0.000 C 
ATOM      4  C   UNL     1      47.116   6.640  12.205  0.00  0.00    +0.000 A 
ATOM      5  C   UNL     1      45.837   6.307  11.701  0.00  0.00    +0.000 A 
ATOM      6  C   UNL     1      45.014   5.336  12.297  0.00  0.00    +0.000 A 
ATOM      7  C   UNL     1      45.483   4.730  13.463  0.00  0.00    +0.000 A 
ATOM      8  C   UNL     1      46.728   5.064  14.016  0.00  0.00    +0.000 A 
ATOM      9  C   UNL     1      47.140   4.405  15.306  0.00  0.00    +0.000 C 
ATOM     10  C   UNL     1      47.563   6.001  13.371  0.00  0.00    +0.000 A 
BRANCH  10  11
ATOM     11  O   UNL     1      48.825   6.060  13.912  0.00  0.00    +0.000 OA
BRANCH  11  12
ATOM     12  C   UNL     1      49.333   7.222  14.592  0.00  0.00    +0.000 C 
ATOM     13  C   UNL     1      49.671   6.966  16.071  0.00  0.00    +0.000 C 
ATOM     14  O   UNL     1      48.790   8.021  16.515  0.00  0.00    +0.000 OA
ATOM     15  C   UNL     1      48.357   8.260  15.155  0.00  0.00    +0.000 C 
ENDBRANCH  11  12
ENDBRANCH  10  11
ENDBRANCH   1   6
BRANCH   1  16
ATOM     16  C   UNL     1      43.684   4.521  10.192  0.00  0.00    +0.000 C 
BRANCH  16  17
ATOM     17  N   UNL     1      43.969   3.085  10.065  0.00  0.00    +0.000 N 
ATOM     18  C   UNL     1      44.967   2.802   9.120  0.00  0.00    +0.000 A 
ATOM     19  C   UNL     1      45.403   1.484   8.920  0.00  0.00    +0.000 A 
ATOM     20  N   UNL     1      46.356   1.122   8.018  0.00  0.00    +0.000 NA
ATOM     21  C   UNL     1      46.888   2.164   7.321  0.00  0.00    +0.000 A 
ATOM     22  C   UNL     1      46.496   3.475   7.530  0.00  0.00    +0.000 A 
ATOM     23  N   UNL     1      45.538   3.812   8.426  0.00  0.00    +0.000 NA
ATOM     24  H   UNL     1      43.137   2.529   9.888  0.00  0.00    +0.000 HD
BRANCH  21  25
ATOM     25  C   UNL     1      47.912   1.870   6.283  0.00  0.00    +0.000 C 
ATOM     26  N   UNL     1      48.953   2.753   6.203  0.00  0.00    +0.000 N 
ATOM     27  O   UNL     1      47.842   0.891   5.552  0.00  0.00    +0.000 OA
ATOM     28  H   UNL     1      48.994   3.551   6.828  0.00  0.00    +0.000 HD
ATOM     29  H   UNL     1      49.691   2.585   5.535  0.00  0.00    +0.000 HD
ENDBRANCH  21  25
ENDBRANCH  16  17
ENDBRANCH   1  16
TORSDOF 6
ENDMDL
MODEL 2
REMARK VINA RESULT:    -7.462      0.495      1.860
REMARK INTER + INTRA:         -10.924
REMARK INTER:                 -10.188
REMARK INTRA:                  -0.735
REMARK UNBOUND:                -0.845
REMARK  Name = 
REMARK  9 active torsions:
REMARK  status: ('A' for Active; 'I' for Inactive)
REMARK    1  A    between atoms: C_1  and  C_2
REMARK    2  A    between atoms: C_4  and  C_5
REMARK    3  A    between atoms: C_5  and  C_6
REMARK    4  A    between atoms: C_5  and  C_7
REMARK    5  A    between atoms: C_7  and  N_8
REMARK    6  A    between atoms: C_12  and  C_13
REMARK    7  A    between atoms: C_19  and  C_20
REMARK    8  A    between atoms: C_21  and  O_22
REMARK    9  A    between atoms: O_22  and  C_23
REMARK                            x       y       z     vdW  Elec       q    Type
REMARK                         _______ _______ _______ _____ _____    ______ ____
ROOT
ATOM      1  C   UNL     1      43.708   5.401  11.503  0.00  0.00    +0.000 C 
ATOM      2  C   UNL     1      42.953   6.744  11.439  0.00  0.00    +0.000 C 
ENDROOT
BRANCH   1   6
ATOM      3  C   UNL     1      46.999   4.150  15.058  0.00  0.00    +0.000 C 
ATOM      4  C   UNL     1      46.755   4.982  13.834  0.00  0.00    +0.000 A 
ATOM      5  C   UNL     1      45.498   4.827  13.205  0.00  0.00    +0.000 A 
ATOM      6  C   UNL     1      45.101   5.596  12.098  0.00  0.00    +0.000 A 
ATOM      7  C   UNL     1      46.028   6.506  11.588  0.00  0.00    +0.000 A 
ATOM      8  C   UNL     1      47.300   6.658  12.159  0.00  0.00    +0.000 A 
ATOM      9  C   UNL     1      48.264   7.622  11.518  0.00  0.00    +0.000 C 
ATOM     10  C   UNL     1      47.658   5.916  13.305  0.00  0.00    +0.000 A 
BRANCH  10  11
ATOM     11  O   UNL     1      48.841   6.330  13.867  0.00  0.00    +0.000 OA
BRANCH  11  12
ATOM     12  C   UNL     1      48.914   6.982  15.148  0.00  0.00    +0.000 C 
ATOM     13  C   UNL     1      48.928   8.517  15.054  0.00  0.00    +0.000 C 
ATOM     14  O   UNL     1      50.173   8.608  15.779  0.00  0.00    +0.000 OA
ATOM     15  C   UNL     1      50.274   7.166  15.830  0.00  0.00    +0.000 C 
ENDBRANCH  11  12
ENDBRANCH  10  11
ENDBRANCH   1   6
BRANCH   1  16
ATOM     16  C   UNL     1      43.634   4.769  10.092  0.00  0.00    +0.000 C 
BRANCH  16  17
ATOM     17  N   UNL     1      43.942   3.331  10.096  0.00  0.00    +0.000 N 
ATOM     18  C   UNL     1      44.884   2.966   9.123  0.00  0.00    +0.000 A 
ATOM     19  C   UNL     1      45.335   1.640   9.033  0.00  0.00    +0.000 A 
ATOM     20  N   UNL     1      46.237   1.200   8.113  0.00  0.00    +0.000 NA
ATOM     21  C   UNL     1      46.701   2.170   7.279  0.00  0.00    +0.000 A 
ATOM     22  C   UNL     1      46.295   3.490   7.375  0.00  0.00    +0.000 A 
ATOM     23  N   UNL     1      45.388   3.905   8.292  0.00  0.00    +0.000 NA
ATOM     24  H   UNL     1      43.113   2.748  10.032  0.00  0.00    +0.000 HD
BRANCH  21  25
ATOM     25  C   UNL     1      47.663   1.785   6.212  0.00  0.00    +0.000 C 
ATOM     26  N   UNL     1      48.878   2.410   6.247  0.00  0.00    +0.000 N 
ATOM     27  O   UNL     1      47.396   0.946   5.361  0.00  0.00    +0.000 OA
ATOM     28  H   UNL     1      49.080   3.093   6.970  0.00  0.00    +0.000 HD
ATOM     29  H   UNL     1      49.580   2.164   5.564  0.00  0.00    +0.000 HD
ENDBRANCH  21  25
ENDBRANCH  16  17
ENDBRANCH   1  16
TORSDOF 6
ENDMDL
MODEL 3
REMARK VINA RESULT:    -6.870      2.130      2.661
REMARK INTER + INTRA:         -10.124
REMARK INTER:                  -9.497
REMARK INTRA:                  -0.627
REMARK UNBOUND:                -0.845
REMARK  Name = 
REMARK  9 active torsions:
REMARK  status: ('A' for Active; 'I' for Inactive)
REMARK    1  A    between atoms: C_1  and  C_2
REMARK    2  A    between atoms: C_4  and  C_5
REMARK    3  A    between atoms: C_5  and  C_6
REMARK    4  A    between atoms: C_5  and  C_7
REMARK    5  A    between atoms: C_7  and  N_8
REMARK    6  A    between atoms: C_12  and  C_13
REMARK    7  A    between atoms: C_19  and  C_20
REMARK    8  A    between atoms: C_21  and  O_22
REMARK    9  A    between atoms: O_22  and  C_23
REMARK                            x       y       z     vdW  Elec       q    Type
REMARK                         _______ _______ _______ _____ _____    ______ ____
ROOT
ATOM      1  C   UNL     1      44.224   4.921  12.048  0.00  0.00    +0.000 C 
ATOM      2  C   UNL     1      43.109   5.023  13.108  0.00  0.00    +0.000 C 
ENDROOT
BRANCH   1   6
ATOM      3  C   UNL     1      44.932   9.874  12.138  0.00  0.00    +0.000 C 
ATOM      4  C   UNL     1      45.583   8.528  12.257  0.00  0.00    +0.000 A 
ATOM      5  C   UNL     1      44.729   7.403  12.173  0.00  0.00    +0.000 A 
ATOM      6  C   UNL     1      45.207   6.082  12.189  0.00  0.00    +0.000 A 
ATOM      7  C   UNL     1      46.581   5.902  12.348  0.00  0.00    +0.000 A 
ATOM      8  C   UNL     1      47.455   6.992  12.476  0.00  0.00    +0.000 A 
ATOM      9  C   UNL     1      48.919   6.716  12.699  0.00  0.00    +0.000 C 
ATOM     10  C   UNL     1      46.961   8.312  12.401  0.00  0.00    +0.000 A 
BRANCH  10  11
ATOM     11  O   UNL     1      47.956   9.257  12.327  0.00  0.00    +0.000 OA
BRANCH  11  12
ATOM     12  C   UNL     1      48.218  10.203  13.379  0.00  0.00    +0.000 C 
ATOM     13  C   UNL     1      48.951  11.466  12.898  0.00  0.00    +0.000 C 
ATOM     14  O   UNL     1      50.032  11.267  13.834  0.00  0.00    +0.000 OA
ATOM     15  C   UNL     1      49.446  10.020  14.276  0.00  0.00    +0.000 C 
ENDBRANCH  11  12
ENDBRANCH  10  11
ENDBRANCH   1   6
BRANCH   1  16
ATOM     16  C   UNL     1      43.532   4.757  10.673  0.00  0.00    +0.000 C 
BRANCH  16  17
ATOM     17  N   UNL     1      44.414   5.099   9.548  0.00  0.00    +0.000 N 
ATOM     18  C   UNL     1      45.046   3.982   8.983  0.00  0.00    +0.000 A 
ATOM     19  C   UNL     1      45.875   4.126   7.860  0.00  0.00    +0.000 A 
ATOM     20  N   UNL     1      46.534   3.098   7.258  0.00  0.00    +0.000 NA
ATOM     21  C   UNL     1      46.306   1.881   7.826  0.00  0.00    +0.000 A 
ATOM     22  C   UNL     1      45.465   1.714   8.912  0.00  0.00    +0.000 A 
ATOM     23  N   UNL     1      44.826   2.753   9.502  0.00  0.00    +0.000 NA
ATOM     24  H   UNL     1      45.091   5.818   9.780  0.00  0.00    +0.000 HD
BRANCH  21  25
ATOM     25  C   UNL     1      47.010   0.697   7.266  0.00  0.00    +0.000 C 
ATOM     26  N   UNL     1      47.771   0.924   6.153  0.00  0.00    +0.000 N 
ATOM     27  O   UNL     1      46.932  -0.413   7.775  0.00  0.00    +0.000 OA
ATOM     28  H   UNL     1      47.829   1.856   5.756  0.00  0.00    +0.000 HD
ATOM     29  H   UNL     1      48.294   0.161   5.749  0.00  0.00    +0.000 HD
ENDBRANCH  21  25
ENDBRANCH  16  17
ENDBRANCH   1  16
TORSDOF 6
ENDMDL
MODEL 4
REMARK VINA RESULT:    -6.471      4.681      6.842
REMARK INTER + INTRA:          -9.586
REMARK INTER:                  -8.928
REMARK INTRA:                  -0.658
REMARK UNBOUND:                -0.845
REMARK  Name = 
REMARK  9 active torsions:
REMARK  status: ('A' for Active; 'I' for Inactive)
REMARK    1  A    between atoms: C_1  and  C_2
REMARK    2  A    between atoms: C_4  and  C_5
REMARK    3  A    between atoms: C_5  and  C_6
REMARK    4  A    between atoms: C_5  and  C_7
REMARK    5  A    between atoms: C_7  and  N_8
REMARK    6  A    between atoms: C_12  and  C_13
REMARK    7  A    between atoms: C_19  and  C_20
REMARK    8  A    between atoms: C_21  and  O_22
REMARK    9  A    between atoms: O_22  and  C_23
REMARK                            x       y       z     vdW  Elec       q    Type
REMARK                         _______ _______ _______ _____ _____    ______ ____
ROOT
ATOM      1  C   UNL     1      47.883   3.768  17.273  0.00  0.00    +0.000 C 
ATOM      2  C   UNL     1      47.406   5.151  17.759  0.00  0.00    +0.000 C 
ENDROOT
BRANCH   1   6
ATOM      3  C   UNL     1      52.282   6.020  18.054  0.00  0.00    +0.000 C 
ATOM      4  C   UNL     1      51.578   4.708  17.869  0.00  0.00    +0.000 A 
ATOM      5  C   UNL     1      50.172   4.761  17.722  0.00  0.00    +0.000 A 
ATOM      6  C   UNL     1      49.391   3.622  17.465  0.00  0.00    +0.000 A 
ATOM      7  C   UNL     1      50.052   2.394  17.408  0.00  0.00    +0.000 A 
ATOM      8  C   UNL     1      51.439   2.297  17.590  0.00  0.00    +0.000 A 
ATOM      9  C   UNL     1      52.072   0.930  17.569  0.00  0.00    +0.000 C 
ATOM     10  C   UNL     1      52.213   3.460  17.792  0.00  0.00    +0.000 A 
BRANCH  10  11
ATOM     11  O   UNL     1      53.565   3.224  17.737  0.00  0.00    +0.000 OA
BRANCH  11  12
ATOM     12  C   UNL     1      54.425   3.321  18.887  0.00  0.00    +0.000 C 
ATOM     13  C   UNL     1      55.046   1.977  19.303  0.00  0.00    +0.000 C 
ATOM     14  O   UNL     1      54.505   2.075  20.638  0.00  0.00    +0.000 OA
ATOM     15  C   UNL     1      53.818   3.300  20.294  0.00  0.00    +0.000 C 
ENDBRANCH  11  12
ENDBRANCH  10  11
ENDBRANCH   1   6
BRANCH   1  16
ATOM     16  C   UNL     1      47.340   3.577  15.835  0.00  0.00    +0.000 C 
BRANCH  16  17
ATOM     17  N   UNL     1      46.964   4.847  15.197  0.00  0.00    +0.000 N 
ATOM     18  C   UNL     1      46.338   4.674  13.953  0.00  0.00    +0.000 A 
ATOM     19  C   UNL     1      45.860   5.783  13.239  0.00  0.00    +0.000 A 
ATOM     20  N   UNL     1      45.251   5.705  12.023  0.00  0.00    +0.000 NA
ATOM     21  C   UNL     1      45.116   4.436  11.548  0.00  0.00    +0.000 A 
ATOM     22  C   UNL     1      45.550   3.328  12.254  0.00  0.00    +0.000 A 
ATOM     23  N   UNL     1      46.161   3.429  13.459  0.00  0.00    +0.000 NA
ATOM     24  H   UNL     1      47.739   5.499  15.123  0.00  0.00    +0.000 HD
BRANCH  21  25
ATOM     25  C   UNL     1      44.498   4.245  10.208  0.00  0.00    +0.000 C 
ATOM     26  N   UNL     1      45.045   4.972   9.188  0.00  0.00    +0.000 N 
ATOM     27  O   UNL     1      43.567   3.473  10.020  0.00  0.00    +0.000 OA
ATOM     28  H   UNL     1      45.824   5.597   9.367  0.00  0.00    +0.000 HD
ATOM     29  H   UNL     1      44.683   4.859   8.252  0.00  0.00    +0.000 HD
ENDBRANCH  21  25
ENDBRANCH  16  17
ENDBRANCH   1  16
TORSDOF 6
ENDMDL
MODEL 5
REMARK VINA RESULT:    -6.305      4.692      8.487
REMARK INTER + INTRA:          -9.361
REMARK INTER:                  -8.407
REMARK INTRA:                  -0.954
REMARK UNBOUND:                -0.845
REMARK  Name = 
REMARK  9 active torsions:
REMARK  status: ('A' for Active; 'I' for Inactive)
REMARK    1  A    between atoms: C_1  and  C_2
REMARK    2  A    between atoms: C_4  and  C_5
REMARK    3  A    between atoms: C_5  and  C_6
REMARK    4  A    between atoms: C_5  and  C_7
REMARK    5  A    between atoms: C_7  and  N_8
REMARK    6  A    between atoms: C_12  and  C_13
REMARK    7  A    between atoms: C_19  and  C_20
REMARK    8  A    between atoms: C_21  and  O_22
REMARK    9  A    between atoms: O_22  and  C_23
REMARK                            x       y       z     vdW  Elec       q    Type
REMARK                         _______ _______ _______ _____ _____    ______ ____
ROOT
ATOM      1  C   UNL     1      49.266   7.779  12.822  0.00  0.00    +0.000 C 
ATOM      2  C   UNL     1      49.117   9.294  12.578  0.00  0.00    +0.000 C 
ENDROOT
BRANCH   1   6
ATOM      3  C   UNL     1      44.465   8.078  11.444  0.00  0.00    +0.000 C 
ATOM      4  C   UNL     1      45.542   7.192  11.997  0.00  0.00    +0.000 A 
ATOM      5  C   UNL     1      46.831   7.762  12.116  0.00  0.00    +0.000 A 
ATOM      6  C   UNL     1      47.916   7.077  12.688  0.00  0.00    +0.000 A 
ATOM      7  C   UNL     1      47.695   5.763  13.101  0.00  0.00    +0.000 A 
ATOM      8  C   UNL     1      46.441   5.150  12.962  0.00  0.00    +0.000 A 
ATOM      9  C   UNL     1      46.296   3.710  13.381  0.00  0.00    +0.000 C 
ATOM     10  C   UNL     1      45.350   5.874  12.435  0.00  0.00    +0.000 A 
BRANCH  10  11
ATOM     11  O   UNL     1      44.153   5.213  12.563  0.00  0.00    +0.000 OA
BRANCH  11  12
ATOM     12  C   UNL     1      43.427   4.681  11.439  0.00  0.00    +0.000 C 
ATOM     13  C   UNL     1      43.214   3.160  11.512  0.00  0.00    +0.000 C 
ATOM     14  O   UNL     1      43.855   2.950  10.236  0.00  0.00    +0.000 OA
ATOM     15  C   UNL     1      44.171   4.359  10.139  0.00  0.00    +0.000 C 
ENDBRANCH  11  12
ENDBRANCH  10  11
ENDBRANCH   1   6
BRANCH   1  16
ATOM     16  C   UNL     1      50.012   7.605  14.168  0.00  0.00    +0.000 C 
BRANCH  16  17
ATOM     17  N   UNL     1      49.237   8.098  15.315  0.00  0.00    +0.000 N 
ATOM     18  C   UNL     1      49.166   7.175  16.370  0.00  0.00    +0.000 A 
ATOM     19  C   UNL     1      48.515   7.512  17.566  0.00  0.00    +0.000 A 
ATOM     20  N   UNL     1      48.391   6.674  18.632  0.00  0.00    +0.000 NA
ATOM     21  C   UNL     1      48.982   5.460  18.458  0.00  0.00    +0.000 A 
ATOM     22  C   UNL     1      49.659   5.122  17.299  0.00  0.00    +0.000 A 
ATOM     23  N   UNL     1      49.762   5.968  16.246  0.00  0.00    +0.000 NA
ATOM     24  H   UNL     1      48.310   8.423  15.058  0.00  0.00    +0.000 HD
BRANCH  21  25
ATOM     25  C   UNL     1      48.870   4.456  19.550  0.00  0.00    +0.000 C 
ATOM     26  N   UNL     1      48.336   3.248  19.200  0.00  0.00    +0.000 N 
ATOM     27  O   UNL     1      49.248   4.686  20.692  0.00  0.00    +0.000 OA
ATOM     28  H   UNL     1      48.041   3.078  18.245  0.00  0.00    +0.000 HD
ATOM     29  H   UNL     1      48.265   2.520  19.896  0.00  0.00    +0.000 HD
ENDBRANCH  21  25
ENDBRANCH  16  17
ENDBRANCH   1  16
TORSDOF 6
ENDMDL
MODEL 6
REMARK VINA RESULT:    -6.030      3.748      6.087
REMARK INTER + INTRA:          -8.990
REMARK INTER:                  -8.294
REMARK INTRA:                  -0.696
REMARK UNBOUND:                -0.845
REMARK  Name = 
REMARK  9 active torsions:
REMARK  status: ('A' for Active; 'I' for Inactive)
REMARK    1  A    between atoms: C_1  and  C_2
REMARK    2  A    between atoms: C_4  and  C_5
REMARK    3  A    between atoms: C_5  and  C_6
REMARK    4  A    between atoms: C_5  and  C_7
REMARK    5  A    between atoms: C_7  and  N_8
REMARK    6  A    between atoms: C_12  and  C_13
REMARK    7  A    between atoms: C_19  and  C_20
REMARK    8  A    between atoms: C_21  and  O_22
REMARK    9  A    between atoms: O_22  and  C_23
REMARK                            x       y       z     vdW  Elec       q    Type
REMARK                         _______ _______ _______ _____ _____    ______ ____
ROOT
ATOM      1  C   UNL     1      48.330   4.352  16.479  0.00  0.00    +0.000 C 
ATOM      2  C   UNL     1      48.522   2.973  17.140  0.00  0.00    +0.000 C 
ENDROOT
BRANCH   1   6
ATOM      3  C   UNL     1      49.895   8.955  17.662  0.00  0.00    +0.000 C 
ATOM      4  C   UNL     1      49.142   7.745  18.130  0.00  0.00    +0.000 A 
ATOM      5  C   UNL     1      49.007   6.687  17.201  0.00  0.00    +0.000 A 
ATOM      6  C   UNL     1      48.396   5.464  17.525  0.00  0.00    +0.000 A 
ATOM      7  C   UNL     1      47.863   5.336  18.808  0.00  0.00    +0.000 A 
ATOM      8  C   UNL     1      47.942   6.379  19.743  0.00  0.00    +0.000 A 
ATOM      9  C   UNL     1      47.295   6.185  21.090  0.00  0.00    +0.000 C 
ATOM     10  C   UNL     1      48.609   7.579  19.416  0.00  0.00    +0.000 A 
BRANCH  10  11
ATOM     11  O   UNL     1      48.787   8.408  20.496  0.00  0.00    +0.000 OA
BRANCH  11  12
ATOM     12  C   UNL     1      48.136   9.686  20.620  0.00  0.00    +0.000 C 
ATOM     13  C   UNL     1      47.323   9.836  21.917  0.00  0.00    +0.000 C 
ATOM     14  O   UNL     1      46.111  10.133  21.192  0.00  0.00    +0.000 OA
ATOM     15  C   UNL     1      46.787   9.920  19.931  0.00  0.00    +0.000 C 
ENDBRANCH  11  12
ENDBRANCH  10  11
ENDBRANCH   1   6
BRANCH   1  16
ATOM     16  C   UNL     1      47.039   4.273  15.627  0.00  0.00    +0.000 C 
BRANCH  16  17
ATOM     17  N   UNL     1      47.005   5.275  14.552  0.00  0.00    +0.000 N 
ATOM     18  C   UNL     1      46.306   4.842  13.415  0.00  0.00    +0.000 A 
ATOM     19  C   UNL     1      46.126   5.701  12.321  0.00  0.00    +0.000 A 
ATOM     20  N   UNL     1      45.471   5.357  11.178  0.00  0.00    +0.000 NA
ATOM     21  C   UNL     1      44.969   4.092  11.182  0.00  0.00    +0.000 A 
ATOM     22  C   UNL     1      45.106   3.242  12.266  0.00  0.00    +0.000 A 
ATOM     23  N   UNL     1      45.770   3.601  13.391  0.00  0.00    +0.000 NA
ATOM     24  H   UNL     1      47.927   5.618  14.299  0.00  0.00    +0.000 HD
BRANCH  21  25
ATOM     25  C   UNL     1      44.268   3.605   9.964  0.00  0.00    +0.000 C 
ATOM     26  N   UNL     1      43.997   4.548   9.012  0.00  0.00    +0.000 N 
ATOM     27  O   UNL     1      43.965   2.429   9.808  0.00  0.00    +0.000 OA
ATOM     28  H   UNL     1      44.269   5.514   9.160  0.00  0.00    +0.000 HD
ATOM     29  H   UNL     1      43.549   4.267   8.152  0.00  0.00    +0.000 HD
ENDBRANCH  21  25
ENDBRANCH  16  17
ENDBRANCH   1  16
TORSDOF 6
ENDMDL
MODEL 7
REMARK VINA RESULT:    -6.011      4.581      8.621
REMARK INTER + INTRA:          -8.963
REMARK INTER:                  -8.115
REMARK INTRA:                  -0.848
REMARK UNBOUND:                -0.845
REMARK  Name = 
REMARK  9 active torsions:
REMARK  status: ('A' for Active; 'I' for Inactive)
REMARK    1  A    between atoms: C_1  and  C_2
REMARK    2  A    between atoms: C_4  and  C_5
REMARK    3  A    between atoms: C_5  and  C_6
REMARK    4  A    between atoms: C_5  and  C_7
REMARK    5  A    between atoms: C_7  and  N_8
REMARK    6  A    between atoms: C_12  and  C_13
REMARK    7  A    between atoms: C_19  and  C_20
REMARK    8  A    between atoms: C_21  and  O_22
REMARK    9  A    between atoms: O_22  and  C_23
REMARK                            x       y       z     vdW  Elec       q    Type
REMARK                         _______ _______ _______ _____ _____    ______ ____
ROOT
ATOM      1  C   UNL     1      49.516   7.656  12.885  0.00  0.00    +0.000 C 
ATOM      2  C   UNL     1      49.809   8.776  11.867  0.00  0.00    +0.000 C 
ENDROOT
BRANCH   1   6
ATOM      3  C   UNL     1      46.243   3.924  13.523  0.00  0.00    +0.000 C 
ATOM      4  C   UNL     1      46.434   5.339  13.062  0.00  0.00    +0.000 A 
ATOM      5  C   UNL     1      47.734   5.879  13.199  0.00  0.00    +0.000 A 
ATOM      6  C   UNL     1      48.077   7.162  12.740  0.00  0.00    +0.000 A 
ATOM      7  C   UNL     1      47.060   7.932  12.176  0.00  0.00    +0.000 A 
ATOM      8  C   UNL     1      45.749   7.446  12.061  0.00  0.00    +0.000 A 
ATOM      9  C   UNL     1      44.694   8.358  11.491  0.00  0.00    +0.000 C 
ATOM     10  C   UNL     1      45.437   6.135  12.478  0.00  0.00    +0.000 A 
BRANCH  10  11
ATOM     11  O   UNL     1      44.177   5.735  12.104  0.00  0.00    +0.000 OA
BRANCH  11  12
ATOM     12  C   UNL     1      43.905   5.054  10.866  0.00  0.00    +0.000 C 
ATOM     13  C   UNL     1      43.587   3.560  11.046  0.00  0.00    +0.000 C 
ATOM     14  O   UNL     1      44.653   3.166  10.156  0.00  0.00    +0.000 OA
ATOM     15  C   UNL     1      45.067   4.545  10.008  0.00  0.00    +0.000 C 
ENDBRANCH  11  12
ENDBRANCH  10  11
ENDBRANCH   1   6
BRANCH   1  16
ATOM     16  C   UNL     1      49.935   8.185  14.278  0.00  0.00    +0.000 C 
BRANCH  16  17
ATOM     17  N   UNL     1      50.836   7.266  14.988  0.00  0.00    +0.000 N 
ATOM     18  C   UNL     1      50.250   6.685  16.122  0.00  0.00    +0.000 A 
ATOM     19  C   UNL     1      50.953   5.736  16.879  0.00  0.00    +0.000 A 
ATOM     20  N   UNL     1      50.463   5.133  17.997  0.00  0.00    +0.000 NA
ATOM     21  C   UNL     1      49.197   5.510  18.324  0.00  0.00    +0.000 A 
ATOM     22  C   UNL     1      48.474   6.419  17.570  0.00  0.00    +0.000 A 
ATOM     23  N   UNL     1      48.984   7.014  16.466  0.00  0.00    +0.000 NA
ATOM     24  H   UNL     1      51.730   7.687  15.220  0.00  0.00    +0.000 HD
BRANCH  21  25
ATOM     25  C   UNL     1      48.583   4.937  19.553  0.00  0.00    +0.000 C 
ATOM     26  N   UNL     1      48.576   3.573  19.637  0.00  0.00    +0.000 N 
ATOM     27  O   UNL     1      48.126   5.639  20.445  0.00  0.00    +0.000 OA
ATOM     28  H   UNL     1      48.972   3.013  18.889  0.00  0.00    +0.000 HD
ATOM     29  H   UNL     1      48.199   3.132  20.463  0.00  0.00    +0.000 HD
ENDBRANCH  21  25
ENDBRANCH  16  17
ENDBRANCH   1  16
TORSDOF 6
ENDMDL
MODEL 8
REMARK VINA RESULT:    -5.984      4.003      6.597
REMARK INTER + INTRA:          -8.927
REMARK INTER:                  -8.212
REMARK INTRA:                  -0.715
REMARK UNBOUND:                -0.845
REMARK  Name = 
REMARK  9 active torsions:
REMARK  status: ('A' for Active; 'I' for Inactive)
REMARK    1  A    between atoms: C_1  and  C_2
REMARK    2  A    between atoms: C_4  and  C_5
REMARK    3  A    between atoms: C_5  and  C_6
REMARK    4  A    between atoms: C_5  and  C_7
REMARK    5  A    between atoms: C_7  and  N_8
REMARK    6  A    between atoms: C_12  and  C_13
REMARK    7  A    between atoms: C_19  and  C_20
REMARK    8  A    between atoms: C_21  and  O_22
REMARK    9  A    between atoms: O_22  and  C_23
REMARK                            x       y       z     vdW  Elec       q    Type
REMARK                         _______ _______ _______ _____ _____    ______ ____
ROOT
ATOM      1  C   UNL     1      48.809   7.604  15.237  0.00  0.00    +0.000 C 
ATOM      2  C   UNL     1      49.662   8.888  15.238  0.00  0.00    +0.000 C 
ENDROOT
BRANCH   1   6
ATOM      3  C   UNL     1      52.978   5.826  17.357  0.00  0.00    +0.000 C 
ATOM      4  C   UNL     1      51.501   5.636  17.182  0.00  0.00    +0.000 A 
ATOM      5  C   UNL     1      50.824   6.616  16.418  0.00  0.00    +0.000 A 
ATOM      6  C   UNL     1      49.457   6.527  16.106  0.00  0.00    +0.000 A 
ATOM      7  C   UNL     1      48.752   5.443  16.629  0.00  0.00    +0.000 A 
ATOM      8  C   UNL     1      49.379   4.474  17.425  0.00  0.00    +0.000 A 
ATOM      9  C   UNL     1      48.539   3.362  17.998  0.00  0.00    +0.000 C 
ATOM     10  C   UNL     1      50.765   4.551  17.680  0.00  0.00    +0.000 A 
BRANCH  10  11
ATOM     11  O   UNL     1      51.266   3.425  18.287  0.00  0.00    +0.000 OA
BRANCH  11  12
ATOM     12  C   UNL     1      52.097   2.470  17.604  0.00  0.00    +0.000 C 
ATOM     13  C   UNL     1      51.521   1.044  17.605  0.00  0.00    +0.000 C 
ATOM     14  O   UNL     1      52.708   0.503  18.225  0.00  0.00    +0.000 OA
ATOM     15  C   UNL     1      53.278   1.828  18.339  0.00  0.00    +0.000 C 
ENDBRANCH  11  12
ENDBRANCH  10  11
ENDBRANCH   1   6
BRANCH   1  16
ATOM     16  C   UNL     1      48.540   7.237  13.757  0.00  0.00    +0.000 C 
BRANCH  16  17
ATOM     17  N   UNL     1      47.226   7.697  13.286  0.00  0.00    +0.000 N 
ATOM     18  C   UNL     1      46.354   6.645  12.970  0.00  0.00    +0.000 A 
ATOM     19  C   UNL     1      45.038   6.911  12.564  0.00  0.00    +0.000 A 
ATOM     20  N   UNL     1      44.132   5.952  12.229  0.00  0.00    +0.000 NA
ATOM     21  C   UNL     1      44.601   4.679  12.341  0.00  0.00    +0.000 A 
ATOM     22  C   UNL     1      45.885   4.395  12.774  0.00  0.00    +0.000 A 
ATOM     23  N   UNL     1      46.773   5.366  13.093  0.00  0.00    +0.000 NA
ATOM     24  H   UNL     1      47.289   8.357  12.517  0.00  0.00    +0.000 HD
BRANCH  21  25
ATOM     25  C   UNL     1      43.700   3.557  11.961  0.00  0.00    +0.000 C 
ATOM     26  N   UNL     1      43.820   2.415  12.704  0.00  0.00    +0.000 N 
ATOM     27  O   UNL     1      42.887   3.649  11.052  0.00  0.00    +0.000 OA
ATOM     28  H   UNL     1      44.494   2.368  13.461  0.00  0.00    +0.000 HD
ATOM     29  H   UNL     1      43.213   1.634  12.508  0.00  0.00    +0.000 HD
ENDBRANCH  21  25
ENDBRANCH  16  17
ENDBRANCH   1  16
TORSDOF 6
ENDMDL
MODEL 9
REMARK VINA RESULT:    -5.772      4.009      6.605
REMARK INTER + INTRA:          -8.641
REMARK INTER:                  -8.091
REMARK INTRA:                  -0.550
REMARK UNBOUND:                -0.845
REMARK  Name = 
REMARK  9 active torsions:
REMARK  status: ('A' for Active; 'I' for Inactive)
REMARK    1  A    between atoms: C_1  and  C_2
REMARK    2  A    between atoms: C_4  and  C_5
REMARK    3  A    between atoms: C_5  and  C_6
REMARK    4  A    between atoms: C_5  and  C_7
REMARK    5  A    between atoms: C_7  and  N_8
REMARK    6  A    between atoms: C_12  and  C_13
REMARK    7  A    between atoms: C_19  and  C_20
REMARK    8  A    between atoms: C_21  and  O_22
REMARK    9  A    between atoms: O_22  and  C_23
REMARK                            x       y       z     vdW  Elec       q    Type
REMARK                         _______ _______ _______ _____ _____    ______ ____
ROOT
ATOM      1  C   UNL     1      48.475   4.450  16.755  0.00  0.00    +0.000 C 
ATOM      2  C   UNL     1      48.747   3.090  17.428  0.00  0.00    +0.000 C 
ENDROOT
BRANCH   1   6
ATOM      3  C   UNL     1      47.303   5.919  21.393  0.00  0.00    +0.000 C 
ATOM      4  C   UNL     1      47.922   6.320  20.086  0.00  0.00    +0.000 A 
ATOM      5  C   UNL     1      47.992   5.320  19.087  0.00  0.00    +0.000 A 
ATOM      6  C   UNL     1      48.474   5.572  17.792  0.00  0.00    +0.000 A 
ATOM      7  C   UNL     1      48.945   6.858  17.524  0.00  0.00    +0.000 A 
ATOM      8  C   UNL     1      48.930   7.864  18.501  0.00  0.00    +0.000 A 
ATOM      9  C   UNL     1      49.505   9.211  18.152  0.00  0.00    +0.000 C 
ATOM     10  C   UNL     1      48.390   7.606  19.779  0.00  0.00    +0.000 A 
BRANCH  10  11
ATOM     11  O   UNL     1      48.250   8.738  20.545  0.00  0.00    +0.000 OA
BRANCH  11  12
ATOM     12  C   UNL     1      46.970   9.295  20.894  0.00  0.00    +0.000 C 
ATOM     13  C   UNL     1      46.572  10.505  20.032  0.00  0.00    +0.000 C 
ATOM     14  O   UNL     1      46.414  11.352  21.191  0.00  0.00    +0.000 OA
ATOM     15  C   UNL     1      46.865  10.285  22.058  0.00  0.00    +0.000 C 
ENDBRANCH  11  12
ENDBRANCH  10  11
ENDBRANCH   1   6
BRANCH   1  16
ATOM     16  C   UNL     1      47.194   4.288  15.901  0.00  0.00    +0.000 C 
BRANCH  16  17
ATOM     17  N   UNL     1      46.999   5.393  14.952  0.00  0.00    +0.000 N 
ATOM     18  C   UNL     1      46.361   4.997  13.768  0.00  0.00    +0.000 A 
ATOM     19  C   UNL     1      46.043   5.943  12.781  0.00  0.00    +0.000 A 
ATOM     20  N   UNL     1      45.435   5.642  11.601  0.00  0.00    +0.000 NA
ATOM     21  C   UNL     1      45.127   4.325  11.452  0.00  0.00    +0.000 A 
ATOM     22  C   UNL     1      45.400   3.383  12.429  0.00  0.00    +0.000 A 
ATOM     23  N   UNL     1      46.015   3.702  13.593  0.00  0.00    +0.000 NA
ATOM     24  H   UNL     1      47.857   5.897  14.748  0.00  0.00    +0.000 HD
BRANCH  21  25
ATOM     25  C   UNL     1      44.494   3.885  10.179  0.00  0.00    +0.000 C 
ATOM     26  N   UNL     1      44.741   4.669   9.087  0.00  0.00    +0.000 N 
ATOM     27  O   UNL     1      43.806   2.876  10.104  0.00  0.00    +0.000 OA
ATOM     28  H   UNL     1      45.324   5.495   9.173  0.00  0.00    +0.000 HD
ATOM     29  H   UNL     1      44.360   4.401   8.191  0.00  0.00    +0.000 HD
ENDBRANCH  21  25
ENDBRANCH  16  17
ENDBRANCH   1  16
TORSDOF 6
ENDMDL
