MODEL 1
REMARK VINA RESULT:    -7.942      0.000      0.000
REMARK INTER + INTRA:         -11.364
REMARK INTER:                 -10.727
REMARK INTRA:                  -0.637
REMARK UNBOUND:                -0.637
REMARK  Name = 
REMARK  6 active torsions:
REMARK  status: ('A' for Active; 'I' for Inactive)
REMARK    1  A    between atoms: C_2  and  C_4
REMARK    2  A    between atoms: C_7  and  O_8
REMARK    3  A    between atoms: O_8  and  C_9
REMARK    4  A    between atoms: C_9  and  C_10
REMARK    5  A    between atoms: C_10  and  C_11
REMARK    6  A    between atoms: C_15  and  C_16
REMARK                            x       y       z     vdW  Elec       q    Type
REMARK                         _______ _______ _______ _____ _____    ______ ____
ROOT
ATOM      1  C   UNL     1      43.402   5.223  12.133  0.00  0.00    +0.000 C 
ENDROOT
BRANCH   1   2
ATOM      2  C   UNL     1      44.793   5.320  12.701  0.00  0.00    +0.000 A 
ATOM      3  C   UNL     1      45.451   4.171  13.144  0.00  0.00    +0.000 A 
ATOM      4  C   UNL     1      46.728   4.266  13.685  0.00  0.00    +0.000 A 
ATOM      5  C   UNL     1      47.365   5.505  13.769  0.00  0.00    +0.000 A 
ATOM      6  C   UNL     1      46.754   6.671  13.287  0.00  0.00    +0.000 A 
ATOM      7  C   UNL     1      45.439   6.562  12.800  0.00  0.00    +0.000 A 
BRANCH   6   8
ATOM      8  C   UNL     1      47.452   8.032  13.251  0.00  0.00    +0.000 C 
ATOM      9  C   UNL     1      48.220   8.250  11.929  0.00  0.00    +0.000 C 
ATOM     10  C   UNL     1      49.507   7.426  11.880  0.00  0.00    +0.000 C 
ATOM     11  N   UNL     1      50.403   7.741  12.992  0.00  0.00    +0.000 NA
ATOM     12  C   UNL     1      49.752   7.573  14.289  0.00  0.00    +0.000 C 
ATOM     13  C   UNL     1      48.428   8.339  14.405  0.00  0.00    +0.000 C 
ATOM     14  H   UNL     1      50.722   8.706  12.900  0.00  0.00    +0.000 HD
ENDBRANCH   6   8
ENDBRANCH   1   2
BRANCH   1  15
ATOM     15  C   UNL     1      43.418   5.091  10.613  0.00  0.00    +0.000 C 
BRANCH  15  16
ATOM     16  O   UNL     1      43.547   3.707  10.286  0.00  0.00    +0.000 OA
BRANCH  16  20
ATOM     17  C   UNL     1      46.500   2.438   7.631  0.00  0.00    +0.000 A 
ATOM     18  C   UNL     1      46.238   3.809   7.731  0.00  0.00    +0.000 A 
ATOM     19  C   UNL     1      45.257   4.275   8.613  0.00  0.00    +0.000 A 
ATOM     20  C   UNL     1      44.532   3.377   9.397  0.00  0.00    +0.000 A 
ATOM     21  C   UNL     1      44.793   2.007   9.293  0.00  0.00    +0.000 A 
ATOM     22  C   UNL     1      45.769   1.537   8.411  0.00  0.00    +0.000 A 
BRANCH  17  24
ATOM     23  N   UNL     1      48.611   2.679   6.443  0.00  0.00    +0.000 N 
ATOM     24  C   UNL     1      47.513   1.903   6.688  0.00  0.00    +0.000 C 
ATOM     25  O   UNL     1      47.394   0.802   6.167  0.00  0.00    +0.000 OA
ATOM     26  H   UNL     1      49.336   2.256   5.876  0.00  0.00    +0.000 HD
ATOM     27  H   UNL     1      48.875   3.448   7.042  0.00  0.00    +0.000 HD
ENDBRANCH  17  24
ENDBRANCH  16  20
ENDBRANCH  15  16
ENDBRANCH   1  15
TORSDOF 6
ENDMDL
MODEL 2
REMARK VINA RESULT:    -7.902      0.881      1.591
REMARK INTER + INTRA:         -11.311
REMARK INTER:                 -10.341
REMARK INTRA:                  -0.969
REMARK UNBOUND:                -0.637
REMARK  Name = 
REMARK  6 active torsions:
REMARK  status: ('A' for Active; 'I' for Inactive)
REMARK    1  A    between atoms: C_2  and  C_4
REMARK    2  A    between atoms: C_7  and  O_8
REMARK    3  A    between atoms: O_8  and  C_9
REMARK    4  A    between atoms: C_9  and  C_10
REMARK    5  A    between atoms: C_10  and  C_11
REMARK    6  A    between atoms: C_15  and  C_16
REMARK                            x       y       z     vdW  Elec       q    Type
REMARK                         _______ _______ _______ _____ _____    ______ ____
ROOT
ATOM      1  C   UNL     1      43.429   5.544  12.112  0.00  0.00    +0.000 C 
ENDROOT
BRANCH   1   2
ATOM      2  C   UNL     1      44.875   5.507  12.528  0.00  0.00    +0.000 A 
ATOM      3  C   UNL     1      45.333   4.502  13.383  0.00  0.00    +0.000 A 
ATOM      4  C   UNL     1      46.665   4.479  13.780  0.00  0.00    +0.000 A 
ATOM      5  C   UNL     1      47.553   5.448  13.312  0.00  0.00    +0.000 A 
ATOM      6  C   UNL     1      47.140   6.441  12.413  0.00  0.00    +0.000 A 
ATOM      7  C   UNL     1      45.776   6.482  12.072  0.00  0.00    +0.000 A 
BRANCH   6   8
ATOM      8  C   UNL     1      48.097   7.454  11.782  0.00  0.00    +0.000 C 
ATOM      9  C   UNL     1      49.529   7.321  12.344  0.00  0.00    +0.000 C 
ATOM     10  C   UNL     1      49.635   7.884  13.761  0.00  0.00    +0.000 C 
ATOM     11  N   UNL     1      49.243   9.293  13.822  0.00  0.00    +0.000 NA
ATOM     12  C   UNL     1      47.899   9.514  13.297  0.00  0.00    +0.000 C 
ATOM     13  C   UNL     1      47.698   8.941  11.889  0.00  0.00    +0.000 C 
ATOM     14  H   UNL     1      49.909   9.848  13.284  0.00  0.00    +0.000 HD
ENDBRANCH   6   8
ENDBRANCH   1   2
BRANCH   1  15
ATOM     15  C   UNL     1      43.243   5.101  10.664  0.00  0.00    +0.000 C 
BRANCH  15  16
ATOM     16  O   UNL     1      43.508   3.700  10.589  0.00  0.00    +0.000 OA
BRANCH  16  20
ATOM     17  C   UNL     1      46.355   2.737   7.699  0.00  0.00    +0.000 A 
ATOM     18  C   UNL     1      45.748   1.695   8.409  0.00  0.00    +0.000 A 
ATOM     19  C   UNL     1      44.786   1.977   9.384  0.00  0.00    +0.000 A 
ATOM     20  C   UNL     1      44.425   3.298   9.658  0.00  0.00    +0.000 A 
ATOM     21  C   UNL     1      45.035   4.337   8.949  0.00  0.00    +0.000 A 
ATOM     22  C   UNL     1      46.000   4.060   7.977  0.00  0.00    +0.000 A 
BRANCH  17  24
ATOM     23  N   UNL     1      47.299   3.161   5.495  0.00  0.00    +0.000 N 
ATOM     24  C   UNL     1      47.400   2.481   6.677  0.00  0.00    +0.000 C 
ATOM     25  O   UNL     1      48.333   1.717   6.884  0.00  0.00    +0.000 OA
ATOM     26  H   UNL     1      48.072   3.048   4.851  0.00  0.00    +0.000 HD
ATOM     27  H   UNL     1      46.718   3.980   5.389  0.00  0.00    +0.000 HD
ENDBRANCH  17  24
ENDBRANCH  16  20
ENDBRANCH  15  16
ENDBRANCH   1  15
TORSDOF 6
ENDMDL
MODEL 3
REMARK VINA RESULT:    -7.875      1.245      2.076
REMARK INTER + INTRA:         -11.274
REMARK INTER:                 -10.567
REMARK INTRA:                  -0.707
REMARK UNBOUND:                -0.637
REMARK  Name = 
REMARK  6 active torsions:
REMARK  status: ('A' for Active; 'I' for Inactive)
REMARK    1  A    between atoms: C_2  and  C_4
REMARK    2  A    between atoms: C_7  and  O_8
REMARK    3  A    between atoms: O_8  and  C_9
REMARK    4  A    between atoms: C_9  and  C_10
REMARK    5  A    between atoms: C_10  and  C_11
REMARK    6  A    between atoms: C_15  and  C_16
REMARK                            x       y       z     vdW  Elec       q    Type
REMARK                         _______ _______ _______ _____ _____    ______ ____
ROOT
ATOM      1  C   UNL     1      43.751   3.625  12.523  0.00  0.00    +0.000 C 
ENDROOT
BRANCH   1   2
ATOM      2  C   UNL     1      44.174   5.014  12.123  0.00  0.00    +0.000 A 
ATOM      3  C   UNL     1      43.216   5.959  11.754  0.00  0.00    +0.000 A 
ATOM      4  C   UNL     1      43.610   7.235  11.368  0.00  0.00    +0.000 A 
ATOM      5  C   UNL     1      44.961   7.582  11.367  0.00  0.00    +0.000 A 
ATOM      6  C   UNL     1      45.946   6.674  11.780  0.00  0.00    +0.000 A 
ATOM      7  C   UNL     1      45.532   5.370  12.108  0.00  0.00    +0.000 A 
BRANCH   6   8
ATOM      8  C   UNL     1      47.426   7.039  11.907  0.00  0.00    +0.000 C 
ATOM      9  C   UNL     1      48.159   6.131  12.918  0.00  0.00    +0.000 C 
ATOM     10  C   UNL     1      47.799   6.485  14.360  0.00  0.00    +0.000 C 
ATOM     11  N   UNL     1      48.113   7.878  14.679  0.00  0.00    +0.000 NA
ATOM     12  C   UNL     1      47.468   8.812  13.760  0.00  0.00    +0.000 C 
ATOM     13  C   UNL     1      47.749   8.500  12.285  0.00  0.00    +0.000 C 
ATOM     14  H   UNL     1      49.124   8.009  14.635  0.00  0.00    +0.000 HD
ENDBRANCH   6   8
ENDBRANCH   1   2
BRANCH   1  15
ATOM     15  C   UNL     1      43.596   2.708  11.313  0.00  0.00    +0.000 C 
BRANCH  15  16
ATOM     16  O   UNL     1      43.631   3.514  10.135  0.00  0.00    +0.000 OA
BRANCH  16  20
ATOM     17  C   UNL     1      46.609   2.406   7.436  0.00  0.00    +0.000 A 
ATOM     18  C   UNL     1      46.287   3.763   7.553  0.00  0.00    +0.000 A 
ATOM     19  C   UNL     1      45.296   4.175   8.450  0.00  0.00    +0.000 A 
ATOM     20  C   UNL     1      44.620   3.237   9.232  0.00  0.00    +0.000 A 
ATOM     21  C   UNL     1      44.941   1.882   9.111  0.00  0.00    +0.000 A 
ATOM     22  C   UNL     1      45.928   1.466   8.214  0.00  0.00    +0.000 A 
BRANCH  17  24
ATOM     23  N   UNL     1      48.745   2.705   6.307  0.00  0.00    +0.000 N 
ATOM     24  C   UNL     1      47.635   1.926   6.477  0.00  0.00    +0.000 C 
ATOM     25  O   UNL     1      47.515   0.865   5.879  0.00  0.00    +0.000 OA
ATOM     26  H   UNL     1      49.476   2.315   5.725  0.00  0.00    +0.000 HD
ATOM     27  H   UNL     1      49.004   3.429   6.962  0.00  0.00    +0.000 HD
ENDBRANCH  17  24
ENDBRANCH  16  20
ENDBRANCH  15  16
ENDBRANCH   1  15
TORSDOF 6
ENDMDL
MODEL 4
REMARK VINA RESULT:    -7.448      1.156      1.902
REMARK INTER + INTRA:         -10.697
REMARK INTER:                 -10.064
REMARK INTRA:                  -0.633
REMARK UNBOUND:                -0.637
REMARK  Name = 
REMARK  6 active torsions:
REMARK  status: ('A' for Active; 'I' for Inactive)
REMARK    1  A    between atoms: C_2  and  C_4
REMARK    2  A    between atoms: C_7  and  O_8
REMARK    3  A    between atoms: O_8  and  C_9
REMARK    4  A    between atoms: C_9  and  C_10
REMARK    5  A    between atoms: C_10  and  C_11
REMARK    6  A    between atoms: C_15  and  C_16
REMARK                            x       y       z     vdW  Elec       q    Type
REMARK                         _______ _______ _______ _____ _____    ______ ____
ROOT
ATOM      1  C   UNL     1      44.953   4.529  11.542  0.00  0.00    +0.000 C 
ENDROOT
BRANCH   1   2
ATOM      2  C   UNL     1      45.282   5.978  11.787  0.00  0.00    +0.000 A 
ATOM      3  C   UNL     1      44.371   6.974  11.427  0.00  0.00    +0.000 A 
ATOM      4  C   UNL     1      44.684   8.312  11.638  0.00  0.00    +0.000 A 
ATOM      5  C   UNL     1      45.899   8.664  12.227  0.00  0.00    +0.000 A 
ATOM      6  C   UNL     1      46.814   7.689  12.648  0.00  0.00    +0.000 A 
ATOM      7  C   UNL     1      46.505   6.345  12.369  0.00  0.00    +0.000 A 
BRANCH   6   8
ATOM      8  C   UNL     1      48.105   8.016  13.400  0.00  0.00    +0.000 C 
ATOM      9  C   UNL     1      48.469   9.513  13.293  0.00  0.00    +0.000 C 
ATOM     10  C   UNL     1      49.015   9.865  11.910  0.00  0.00    +0.000 C 
ATOM     11  N   UNL     1      50.199   9.075  11.570  0.00  0.00    +0.000 NA
ATOM     12  C   UNL     1      49.947   7.639  11.656  0.00  0.00    +0.000 C 
ATOM     13  C   UNL     1      49.359   7.209  13.006  0.00  0.00    +0.000 C 
ATOM     14  H   UNL     1      50.958   9.321  12.207  0.00  0.00    +0.000 HD
ENDBRANCH   6   8
ENDBRANCH   1   2
BRANCH   1  15
ATOM     15  C   UNL     1      43.614   4.363  10.830  0.00  0.00    +0.000 C 
BRANCH  15  16
ATOM     16  O   UNL     1      43.631   3.116  10.133  0.00  0.00    +0.000 OA
BRANCH  16  20
ATOM     17  C   UNL     1      46.606   2.369   7.309  0.00  0.00    +0.000 A 
ATOM     18  C   UNL     1      46.067   3.658   7.384  0.00  0.00    +0.000 A 
ATOM     19  C   UNL     1      45.070   3.949   8.321  0.00  0.00    +0.000 A 
ATOM     20  C   UNL     1      44.603   2.957   9.185  0.00  0.00    +0.000 A 
ATOM     21  C   UNL     1      45.141   1.670   9.105  0.00  0.00    +0.000 A 
ATOM     22  C   UNL     1      46.134   1.373   8.168  0.00  0.00    +0.000 A 
BRANCH  17  24
ATOM     23  N   UNL     1      48.798   2.747   6.320  0.00  0.00    +0.000 N 
ATOM     24  C   UNL     1      47.644   2.013   6.310  0.00  0.00    +0.000 C 
ATOM     25  O   UNL     1      47.497   1.085   5.526  0.00  0.00    +0.000 OA
ATOM     26  H   UNL     1      49.532   2.428   5.700  0.00  0.00    +0.000 HD
ATOM     27  H   UNL     1      49.065   3.325   7.103  0.00  0.00    +0.000 HD
ENDBRANCH  17  24
ENDBRANCH  16  20
ENDBRANCH  15  16
ENDBRANCH   1  15
TORSDOF 6
ENDMDL
MODEL 5
REMARK VINA RESULT:    -7.446      2.752      3.498
REMARK INTER + INTRA:         -10.695
REMARK INTER:                 -10.025
REMARK INTRA:                  -0.670
REMARK UNBOUND:                -0.637
REMARK  Name = 
REMARK  6 active torsions:
REMARK  status: ('A' for Active; 'I' for Inactive)
REMARK    1  A    between atoms: C_2  and  C_4
REMARK    2  A    between atoms: C_7  and  O_8
REMARK    3  A    between atoms: O_8  and  C_9
REMARK    4  A    between atoms: C_9  and  C_10
REMARK    5  A    between atoms: C_10  and  C_11
REMARK    6  A    between atoms: C_15  and  C_16
REMARK                            x       y       z     vdW  Elec       q    Type
REMARK                         _______ _______ _______ _____ _____    ______ ____
ROOT
ATOM      1  C   UNL     1      45.308   5.339  11.572  0.00  0.00    +0.000 C 
ENDROOT
BRANCH   1   2
ATOM      2  C   UNL     1      45.931   6.699  11.751  0.00  0.00    +0.000 A 
ATOM      3  C   UNL     1      47.320   6.834  11.781  0.00  0.00    +0.000 A 
ATOM      4  C   UNL     1      47.893   8.088  11.964  0.00  0.00    +0.000 A 
ATOM      5  C   UNL     1      47.083   9.216  12.098  0.00  0.00    +0.000 A 
ATOM      6  C   UNL     1      45.687   9.124  12.021  0.00  0.00    +0.000 A 
ATOM      7  C   UNL     1      45.126   7.839  11.896  0.00  0.00    +0.000 A 
BRANCH   6   8
ATOM      8  C   UNL     1      44.761  10.341  12.047  0.00  0.00    +0.000 C 
ATOM      9  C   UNL     1      43.562  10.173  11.088  0.00  0.00    +0.000 C 
ATOM     10  C   UNL     1      43.979  10.339   9.627  0.00  0.00    +0.000 C 
ATOM     11  N   UNL     1      44.592  11.644   9.376  0.00  0.00    +0.000 NA
ATOM     12  C   UNL     1      45.733  11.894  10.252  0.00  0.00    +0.000 C 
ATOM     13  C   UNL     1      45.407  11.708  11.739  0.00  0.00    +0.000 C 
ATOM     14  H   UNL     1      43.893  12.373   9.520  0.00  0.00    +0.000 HD
ENDBRANCH   6   8
ENDBRANCH   1   2
BRANCH   1  15
ATOM     15  C   UNL     1      44.009   5.410  10.775  0.00  0.00    +0.000 C 
BRANCH  15  16
ATOM     16  O   UNL     1      43.767   4.126  10.200  0.00  0.00    +0.000 OA
BRANCH  16  20
ATOM     17  C   UNL     1      46.557   2.473   7.579  0.00  0.00    +0.000 A 
ATOM     18  C   UNL     1      46.347   3.856   7.543  0.00  0.00    +0.000 A 
ATOM     19  C   UNL     1      45.422   4.448   8.409  0.00  0.00    +0.000 A 
ATOM     20  C   UNL     1      44.701   3.666   9.313  0.00  0.00    +0.000 A 
ATOM     21  C   UNL     1      44.910   2.285   9.344  0.00  0.00    +0.000 A 
ATOM     22  C   UNL     1      45.830   1.687   8.478  0.00  0.00    +0.000 A 
BRANCH  17  24
ATOM     23  N   UNL     1      48.598   2.523   6.252  0.00  0.00    +0.000 N 
ATOM     24  C   UNL     1      47.509   1.803   6.658  0.00  0.00    +0.000 C 
ATOM     25  O   UNL     1      47.350   0.645   6.294  0.00  0.00    +0.000 OA
ATOM     26  H   UNL     1      49.285   2.019   5.705  0.00  0.00    +0.000 HD
ATOM     27  H   UNL     1      48.902   3.360   6.729  0.00  0.00    +0.000 HD
ENDBRANCH  17  24
ENDBRANCH  16  20
ENDBRANCH  15  16
ENDBRANCH   1  15
TORSDOF 6
ENDMDL
MODEL 6
REMARK VINA RESULT:    -6.995      4.100      7.416
REMARK INTER + INTRA:         -10.085
REMARK INTER:                  -8.872
REMARK INTRA:                  -1.212
REMARK UNBOUND:                -0.637
REMARK  Name = 
REMARK  6 active torsions:
REMARK  status: ('A' for Active; 'I' for Inactive)
REMARK    1  A    between atoms: C_2  and  C_4
REMARK    2  A    between atoms: C_7  and  O_8
REMARK    3  A    between atoms: O_8  and  C_9
REMARK    4  A    between atoms: C_9  and  C_10
REMARK    5  A    between atoms: C_10  and  C_11
REMARK    6  A    between atoms: C_15  and  C_16
REMARK                            x       y       z     vdW  Elec       q    Type
REMARK                         _______ _______ _______ _____ _____    ______ ____
ROOT
ATOM      1  C   UNL     1      48.768   7.901  11.737  0.00  0.00    +0.000 C 
ENDROOT
BRANCH   1   2
ATOM      2  C   UNL     1      47.263   7.873  11.767  0.00  0.00    +0.000 A 
ATOM      3  C   UNL     1      46.549   8.999  12.182  0.00  0.00    +0.000 A 
ATOM      4  C   UNL     1      45.160   8.965  12.225  0.00  0.00    +0.000 A 
ATOM      5  C   UNL     1      44.473   7.814  11.835  0.00  0.00    +0.000 A 
ATOM      6  C   UNL     1      45.156   6.684  11.364  0.00  0.00    +0.000 A 
ATOM      7  C   UNL     1      46.562   6.718  11.386  0.00  0.00    +0.000 A 
BRANCH   6   8
ATOM      8  C   UNL     1      44.449   5.442  10.819  0.00  0.00    +0.000 C 
ATOM      9  C   UNL     1      43.014   5.306  11.373  0.00  0.00    +0.000 C 
ATOM     10  C   UNL     1      43.012   4.846  12.830  0.00  0.00    +0.000 C 
ATOM     11  N   UNL     1      43.696   3.564  13.002  0.00  0.00    +0.000 NA
ATOM     12  C   UNL     1      45.064   3.598  12.491  0.00  0.00    +0.000 C 
ATOM     13  C   UNL     1      45.157   4.090  11.042  0.00  0.00    +0.000 C 
ATOM     14  H   UNL     1      43.173   2.838  12.511  0.00  0.00    +0.000 HD
ENDBRANCH   6   8
ENDBRANCH   1   2
BRANCH   1  15
ATOM     15  C   UNL     1      49.373   6.980  12.792  0.00  0.00    +0.000 C 
BRANCH  15  16
ATOM     16  O   UNL     1      48.832   7.342  14.063  0.00  0.00    +0.000 OA
BRANCH  16  20
ATOM     17  C   UNL     1      47.801   4.316  16.740  0.00  0.00    +0.000 A 
ATOM     18  C   UNL     1      47.188   4.330  15.482  0.00  0.00    +0.000 A 
ATOM     19  C   UNL     1      47.510   5.327  14.555  0.00  0.00    +0.000 A 
ATOM     20  C   UNL     1      48.442   6.315  14.878  0.00  0.00    +0.000 A 
ATOM     21  C   UNL     1      49.051   6.299  16.136  0.00  0.00    +0.000 A 
ATOM     22  C   UNL     1      48.730   5.308  17.067  0.00  0.00    +0.000 A 
BRANCH  17  24
ATOM     23  N   UNL     1      48.308   3.177  18.831  0.00  0.00    +0.000 N 
ATOM     24  C   UNL     1      47.466   3.292  17.760  0.00  0.00    +0.000 C 
ATOM     25  O   UNL     1      46.465   2.594  17.671  0.00  0.00    +0.000 OA
ATOM     26  H   UNL     1      48.011   2.544  19.564  0.00  0.00    +0.000 HD
ATOM     27  H   UNL     1      48.975   3.895  19.076  0.00  0.00    +0.000 HD
ENDBRANCH  17  24
ENDBRANCH  16  20
ENDBRANCH  15  16
ENDBRANCH   1  15
TORSDOF 6
ENDMDL
MODEL 7
REMARK VINA RESULT:    -6.942      2.386      3.470
REMARK INTER + INTRA:         -10.014
REMARK INTER:                  -9.830
REMARK INTRA:                  -0.183
REMARK UNBOUND:                -0.637
REMARK  Name = 
REMARK  6 active torsions:
REMARK  status: ('A' for Active; 'I' for Inactive)
REMARK    1  A    between atoms: C_2  and  C_4
REMARK    2  A    between atoms: C_7  and  O_8
REMARK    3  A    between atoms: O_8  and  C_9
REMARK    4  A    between atoms: C_9  and  C_10
REMARK    5  A    between atoms: C_10  and  C_11
REMARK    6  A    between atoms: C_15  and  C_16
REMARK                            x       y       z     vdW  Elec       q    Type
REMARK                         _______ _______ _______ _____ _____    ______ ____
ROOT
ATOM      1  C   UNL     1      45.538   3.643  12.328  0.00  0.00    +0.000 C 
ENDROOT
BRANCH   1   2
ATOM      2  C   UNL     1      46.380   4.516  13.220  0.00  0.00    +0.000 A 
ATOM      3  C   UNL     1      46.910   5.712  12.731  0.00  0.00    +0.000 A 
ATOM      4  C   UNL     1      47.702   6.508  13.551  0.00  0.00    +0.000 A 
ATOM      5  C   UNL     1      47.953   6.126  14.869  0.00  0.00    +0.000 A 
ATOM      6  C   UNL     1      47.394   4.959  15.408  0.00  0.00    +0.000 A 
ATOM      7  C   UNL     1      46.647   4.138  14.544  0.00  0.00    +0.000 A 
BRANCH   6   8
ATOM      8  C   UNL     1      47.543   4.556  16.876  0.00  0.00    +0.000 C 
ATOM      9  C   UNL     1      48.752   5.248  17.543  0.00  0.00    +0.000 C 
ATOM     10  C   UNL     1      50.076   4.635  17.089  0.00  0.00    +0.000 C 
ATOM     11  N   UNL     1      50.146   3.203  17.379  0.00  0.00    +0.000 NA
ATOM     12  C   UNL     1      49.029   2.467  16.793  0.00  0.00    +0.000 C 
ATOM     13  C   UNL     1      47.660   3.046  17.170  0.00  0.00    +0.000 C 
ATOM     14  H   UNL     1      50.143   3.067  18.391  0.00  0.00    +0.000 HD
ENDBRANCH   6   8
ENDBRANCH   1   2
BRANCH   1  15
ATOM     15  C   UNL     1      44.063   4.028  12.384  0.00  0.00    +0.000 C 
BRANCH  15  16
ATOM     16  O   UNL     1      43.553   4.038  11.050  0.00  0.00    +0.000 OA
BRANCH  16  20
ATOM     17  C   UNL     1      46.189   2.933   8.014  0.00  0.00    +0.000 A 
ATOM     18  C   UNL     1      45.522   1.923   8.718  0.00  0.00    +0.000 A 
ATOM     19  C   UNL     1      44.627   2.254   9.741  0.00  0.00    +0.000 A 
ATOM     20  C   UNL     1      44.394   3.591  10.069  0.00  0.00    +0.000 A 
ATOM     21  C   UNL     1      45.064   4.597   9.366  0.00  0.00    +0.000 A 
ATOM     22  C   UNL     1      45.962   4.271   8.347  0.00  0.00    +0.000 A 
BRANCH  17  24
ATOM     23  N   UNL     1      47.125   3.396   5.815  0.00  0.00    +0.000 N 
ATOM     24  C   UNL     1      47.166   2.622   6.941  0.00  0.00    +0.000 C 
ATOM     25  O   UNL     1      47.996   1.731   7.062  0.00  0.00    +0.000 OA
ATOM     26  H   UNL     1      47.861   3.234   5.138  0.00  0.00    +0.000 HD
ATOM     27  H   UNL     1      46.653   4.288   5.788  0.00  0.00    +0.000 HD
ENDBRANCH  17  24
ENDBRANCH  16  20
ENDBRANCH  15  16
ENDBRANCH   1  15
TORSDOF 6
ENDMDL
MODEL 8
REMARK VINA RESULT:    -6.744      4.816      8.284
REMARK INTER + INTRA:          -9.746
REMARK INTER:                  -9.676
REMARK INTRA:                  -0.071
REMARK UNBOUND:                -0.637
REMARK  Name = 
REMARK  6 active torsions:
REMARK  status: ('A' for Active; 'I' for Inactive)
REMARK    1  A    between atoms: C_2  and  C_4
REMARK    2  A    between atoms: C_7  and  O_8
REMARK    3  A    between atoms: O_8  and  C_9
REMARK    4  A    between atoms: C_9  and  C_10
REMARK    5  A    between atoms: C_10  and  C_11
REMARK    6  A    between atoms: C_15  and  C_16
REMARK                            x       y       z     vdW  Elec       q    Type
REMARK                         _______ _______ _______ _____ _____    ______ ____
ROOT
ATOM      1  C   UNL     1      47.167   3.696  14.545  0.00  0.00    +0.000 C 
ENDROOT
BRANCH   1   2
ATOM      2  C   UNL     1      46.816   4.714  13.493  0.00  0.00    +0.000 A 
ATOM      3  C   UNL     1      47.592   5.866  13.346  0.00  0.00    +0.000 A 
ATOM      4  C   UNL     1      47.256   6.813  12.386  0.00  0.00    +0.000 A 
ATOM      5  C   UNL     1      46.154   6.609  11.554  0.00  0.00    +0.000 A 
ATOM      6  C   UNL     1      45.384   5.441  11.639  0.00  0.00    +0.000 A 
ATOM      7  C   UNL     1      45.705   4.524  12.657  0.00  0.00    +0.000 A 
BRANCH   6   8
ATOM      8  C   UNL     1      44.240   5.116  10.677  0.00  0.00    +0.000 C 
ATOM      9  C   UNL     1      43.060   4.430  11.398  0.00  0.00    +0.000 C 
ATOM     10  C   UNL     1      43.376   2.975  11.742  0.00  0.00    +0.000 C 
ATOM     11  N   UNL     1      43.711   2.190  10.554  0.00  0.00    +0.000 NA
ATOM     12  C   UNL     1      44.817   2.776   9.801  0.00  0.00    +0.000 C 
ATOM     13  C   UNL     1      44.593   4.252   9.449  0.00  0.00    +0.000 C 
ATOM     14  H   UNL     1      42.890   2.130   9.952  0.00  0.00    +0.000 HD
ENDBRANCH   6   8
ENDBRANCH   1   2
BRANCH   1  15
ATOM     15  C   UNL     1      47.017   4.260  15.954  0.00  0.00    +0.000 C 
BRANCH  15  16
ATOM     16  O   UNL     1      47.389   3.241  16.884  0.00  0.00    +0.000 OA
BRANCH  16  20
ATOM     17  C   UNL     1      51.457   3.050  17.775  0.00  0.00    +0.000 A 
ATOM     18  C   UNL     1      50.863   1.957  17.134  0.00  0.00    +0.000 A 
ATOM     19  C   UNL     1      49.502   1.984  16.815  0.00  0.00    +0.000 A 
ATOM     20  C   UNL     1      48.725   3.099  17.135  0.00  0.00    +0.000 A 
ATOM     21  C   UNL     1      49.320   4.188  17.778  0.00  0.00    +0.000 A 
ATOM     22  C   UNL     1      50.679   4.164  18.103  0.00  0.00    +0.000 A 
BRANCH  17  24
ATOM     23  N   UNL     1      53.246   2.318  19.255  0.00  0.00    +0.000 N 
ATOM     24  C   UNL     1      52.892   3.048  18.155  0.00  0.00    +0.000 C 
ATOM     25  O   UNL     1      53.735   3.647  17.501  0.00  0.00    +0.000 OA
ATOM     26  H   UNL     1      54.239   2.248  19.440  0.00  0.00    +0.000 HD
ATOM     27  H   UNL     1      52.645   1.610  19.652  0.00  0.00    +0.000 HD
ENDBRANCH  17  24
ENDBRANCH  16  20
ENDBRANCH  15  16
ENDBRANCH   1  15
TORSDOF 6
ENDMDL
MODEL 9
REMARK VINA RESULT:    -6.640      3.875      6.251
REMARK INTER + INTRA:          -9.606
REMARK INTER:                  -8.496
REMARK INTRA:                  -1.109
REMARK UNBOUND:                -0.637
REMARK  Name = 
REMARK  6 active torsions:
REMARK  status: ('A' for Active; 'I' for Inactive)
REMARK    1  A    between atoms: C_2  and  C_4
REMARK    2  A    between atoms: C_7  and  O_8
REMARK    3  A    between atoms: O_8  and  C_9
REMARK    4  A    between atoms: C_9  and  C_10
REMARK    5  A    between atoms: C_10  and  C_11
REMARK    6  A    between atoms: C_15  and  C_16
REMARK                            x       y       z     vdW  Elec       q    Type
REMARK                         _______ _______ _______ _____ _____    ______ ____
ROOT
ATOM      1  C   UNL     1      48.487   8.043  14.580  0.00  0.00    +0.000 C 
ENDROOT
BRANCH   1   2
ATOM      2  C   UNL     1      49.392   7.246  15.481  0.00  0.00    +0.000 A 
ATOM      3  C   UNL     1      50.724   7.627  15.652  0.00  0.00    +0.000 A 
ATOM      4  C   UNL     1      51.562   6.879  16.472  0.00  0.00    +0.000 A 
ATOM      5  C   UNL     1      51.071   5.757  17.140  0.00  0.00    +0.000 A 
ATOM      6  C   UNL     1      49.727   5.375  17.032  0.00  0.00    +0.000 A 
ATOM      7  C   UNL     1      48.912   6.110  16.151  0.00  0.00    +0.000 A 
BRANCH   6   8
ATOM      8  C   UNL     1      49.112   4.225  17.831  0.00  0.00    +0.000 C 
ATOM      9  C   UNL     1      50.133   3.096  18.092  0.00  0.00    +0.000 C 
ATOM     10  C   UNL     1      50.399   2.272  16.833  0.00  0.00    +0.000 C 
ATOM     11  N   UNL     1      49.175   1.674  16.300  0.00  0.00    +0.000 NA
ATOM     12  C   UNL     1      48.144   2.674  16.033  0.00  0.00    +0.000 C 
ATOM     13  C   UNL     1      47.846   3.571  17.241  0.00  0.00    +0.000 C 
ATOM     14  H   UNL     1      48.816   0.994  16.971  0.00  0.00    +0.000 HD
ENDBRANCH   6   8
ENDBRANCH   1   2
BRANCH   1  15
ATOM     15  C   UNL     1      48.754   7.752  13.106  0.00  0.00    +0.000 C 
BRANCH  15  16
ATOM     16  O   UNL     1      48.542   6.357  12.882  0.00  0.00    +0.000 OA
BRANCH  16  20
ATOM     17  C   UNL     1      44.596   5.309  12.035  0.00  0.00    +0.000 A 
ATOM     18  C   UNL     1      45.242   4.669  13.100  0.00  0.00    +0.000 A 
ATOM     19  C   UNL     1      46.564   4.996  13.417  0.00  0.00    +0.000 A 
ATOM     20  C   UNL     1      47.250   5.959  12.675  0.00  0.00    +0.000 A 
ATOM     21  C   UNL     1      46.604   6.593  11.610  0.00  0.00    +0.000 A 
ATOM     22  C   UNL     1      45.285   6.267  11.286  0.00  0.00    +0.000 A 
BRANCH  17  24
ATOM     23  N   UNL     1      42.275   5.970  11.718  0.00  0.00    +0.000 N 
ATOM     24  C   UNL     1      43.204   4.970  11.649  0.00  0.00    +0.000 C 
ATOM     25  O   UNL     1      42.896   3.852  11.257  0.00  0.00    +0.000 OA
ATOM     26  H   UNL     1      41.355   5.748  11.358  0.00  0.00    +0.000 HD
ATOM     27  H   UNL     1      42.532   6.945  11.773  0.00  0.00    +0.000 HD
ENDBRANCH  17  24
ENDBRANCH  16  20
ENDBRANCH  15  16
ENDBRANCH   1  15
TORSDOF 6
ENDMDL
