MODEL 1
REMARK VINA RESULT:    -8.508      0.000      0.000
REMARK INTER + INTRA:         -12.816
REMARK INTER:                 -11.990
REMARK INTRA:                  -0.826
REMARK UNBOUND:                -0.826
REMARK  Name = 
REMARK  9 active torsions:
REMARK  status: ('A' for Active; 'I' for Inactive)
REMARK    1  A    between atoms: C_1  and  C_2
REMARK    2  A    between atoms: C_10  and  C_11
REMARK    3  A    between atoms: N_13  and  C_14
REMARK    4  A    between atoms: C_14  and  C_15
REMARK    5  A    between atoms: C_18  and  C_19
REMARK    6  A    between atoms: C_19  and  N_20
REMARK    7  A    between atoms: N_20  and  C_21
REMARK    8  A    between atoms: N_20  and  C_22
REMARK    9  A    between atoms: C_22  and  C_23
REMARK                            x       y       z     vdW  Elec       q    Type
REMARK                         _______ _______ _______ _____ _____    ______ ____
ROOT
ATOM      1  C   UNL     1      48.478   6.824  14.745  0.00  0.00    +0.000 C 
ENDROOT
BRANCH   1   2
ATOM      2  C   UNL     1      47.521   6.334  13.697  0.00  0.00    +0.000 A 
ATOM      3  C   UNL     1      46.713   5.216  13.947  0.00  0.00    +0.000 A 
ATOM      4  C   UNL     1      45.790   4.786  12.995  0.00  0.00    +0.000 A 
ATOM      5  C   UNL     1      45.656   5.466  11.776  0.00  0.00    +0.000 A 
ATOM      6  C   UNL     1      46.505   6.547  11.503  0.00  0.00    +0.000 A 
ATOM      7  C   UNL     1      47.431   6.976  12.455  0.00  0.00    +0.000 A 
BRANCH   5   8
ATOM      8  C   UNL     1      44.571   5.069  10.796  0.00  0.00    +0.000 C 
BRANCH   8   9
ATOM      9  N   UNL     1      44.653   3.651  10.388  0.00  0.00    +0.000 NA
ATOM     10  C   UNL     1      43.665   2.834  11.103  0.00  0.00    +0.000 C 
BRANCH   9  11
ATOM     11  C   UNL     1      44.434   3.500   8.938  0.00  0.00    +0.000 C 
BRANCH  11  12
ATOM     12  C   UNL     1      45.593   2.864   8.201  0.00  0.00    +0.000 A 
ATOM     13  C   UNL     1      46.412   3.627   7.356  0.00  0.00    +0.000 A 
ATOM     14  C   UNL     1      47.482   3.035   6.685  0.00  0.00    +0.000 A 
ATOM     15  C   UNL     1      47.743   1.675   6.850  0.00  0.00    +0.000 A 
ATOM     16  C   UNL     1      46.934   0.905   7.684  0.00  0.00    +0.000 A 
ATOM     17  C   UNL     1      45.866   1.497   8.359  0.00  0.00    +0.000 A 
ENDBRANCH  11  12
ENDBRANCH   9  11
ENDBRANCH   8   9
ENDBRANCH   5   8
ENDBRANCH   1   2
BRANCH   1  20
ATOM     18  C   UNL     1      49.374   5.728  16.726  0.00  0.00    +0.000 C 
ATOM     19  O   UNL     1      50.528   5.899  16.342  0.00  0.00    +0.000 OA
ATOM     20  N   UNL     1      48.286   6.133  15.993  0.00  0.00    +0.000 N 
ATOM     21  H   UNL     1      47.395   6.222  16.464  0.00  0.00    +0.000 HD
BRANCH  18  31
ATOM     22  C   UNL     1      49.571   2.626  17.413  0.00  0.00    +0.000 C 
ATOM     23  C   UNL     1      49.132   3.754  18.276  0.00  0.00    +0.000 A 
ATOM     24  N   UNL     1      48.720   3.547  19.570  0.00  0.00    +0.000 N 
ATOM     25  C   UNL     1      48.383   4.732  20.153  0.00  0.00    +0.000 A 
ATOM     26  N   UNL     1      47.929   4.844  21.414  0.00  0.00    +0.000 NA
ATOM     27  C   UNL     1      47.641   6.118  21.760  0.00  0.00    +0.000 A 
ATOM     28  C   UNL     1      47.785   7.228  20.941  0.00  0.00    +0.000 A 
ATOM     29  C   UNL     1      48.260   7.053  19.640  0.00  0.00    +0.000 A 
ATOM     30  C   UNL     1      48.580   5.746  19.222  0.00  0.00    +0.000 A 
ATOM     31  C   UNL     1      49.055   5.121  18.016  0.00  0.00    +0.000 A 
ATOM     32  H   UNL     1      48.654   2.657  20.043  0.00  0.00    +0.000 HD
ENDBRANCH  18  31
ENDBRANCH   1  20
TORSDOF 7
ENDMDL
MODEL 2
REMARK VINA RESULT:    -7.812      3.013      9.294
REMARK INTER + INTRA:         -11.835
REMARK INTER:                 -10.208
REMARK INTRA:                  -1.627
REMARK UNBOUND:                -0.826
REMARK  Name = 
REMARK  9 active torsions:
REMARK  status: ('A' for Active; 'I' for Inactive)
REMARK    1  A    between atoms: C_1  and  C_2
REMARK    2  A    between atoms: C_10  and  C_11
REMARK    3  A    between atoms: N_13  and  C_14
REMARK    4  A    between atoms: C_14  and  C_15
REMARK    5  A    between atoms: C_18  and  C_19
REMARK    6  A    between atoms: C_19  and  N_20
REMARK    7  A    between atoms: N_20  and  C_21
REMARK    8  A    between atoms: N_20  and  C_22
REMARK    9  A    between atoms: C_22  and  C_23
REMARK                            x       y       z     vdW  Elec       q    Type
REMARK                         _______ _______ _______ _____ _____    ______ ____
ROOT
ATOM      1  C   UNL     1      45.573   7.234  12.398  0.00  0.00    +0.000 C 
ENDROOT
BRANCH   1   2
ATOM      2  C   UNL     1      46.883   7.520  13.073  0.00  0.00    +0.000 A 
ATOM      3  C   UNL     1      46.990   8.577  13.988  0.00  0.00    +0.000 A 
ATOM      4  C   UNL     1      48.192   8.816  14.652  0.00  0.00    +0.000 A 
ATOM      5  C   UNL     1      49.310   8.005  14.413  0.00  0.00    +0.000 A 
ATOM      6  C   UNL     1      49.220   6.986  13.455  0.00  0.00    +0.000 A 
ATOM      7  C   UNL     1      48.017   6.747  12.789  0.00  0.00    +0.000 A 
BRANCH   5   8
ATOM      8  C   UNL     1      50.577   8.193  15.223  0.00  0.00    +0.000 C 
BRANCH   8   9
ATOM      9  N   UNL     1      51.017   6.956  15.900  0.00  0.00    +0.000 NA
ATOM     10  C   UNL     1      52.421   7.050  16.319  0.00  0.00    +0.000 C 
BRANCH   9  11
ATOM     11  C   UNL     1      50.186   6.671  17.084  0.00  0.00    +0.000 C 
BRANCH  11  12
ATOM     12  C   UNL     1      49.491   5.327  17.042  0.00  0.00    +0.000 A 
ATOM     13  C   UNL     1      48.190   5.209  16.533  0.00  0.00    +0.000 A 
ATOM     14  C   UNL     1      47.557   3.966  16.491  0.00  0.00    +0.000 A 
ATOM     15  C   UNL     1      48.218   2.831  16.960  0.00  0.00    +0.000 A 
ATOM     16  C   UNL     1      49.509   2.936  17.472  0.00  0.00    +0.000 A 
ATOM     17  C   UNL     1      50.144   4.178  17.509  0.00  0.00    +0.000 A 
ENDBRANCH  11  12
ENDBRANCH   9  11
ENDBRANCH   8   9
ENDBRANCH   5   8
ENDBRANCH   1   2
BRANCH   1  20
ATOM     18  C   UNL     1      44.482   5.513  11.065  0.00  0.00    +0.000 C 
ATOM     19  O   UNL     1      43.456   6.183  10.976  0.00  0.00    +0.000 OA
ATOM     20  N   UNL     1      45.581   5.940  11.769  0.00  0.00    +0.000 N 
ATOM     21  H   UNL     1      46.472   5.496  11.585  0.00  0.00    +0.000 HD
BRANCH  18  31
ATOM     22  C   UNL     1      43.291   2.738  12.074  0.00  0.00    +0.000 C 
ATOM     23  C   UNL     1      44.124   3.024  10.876  0.00  0.00    +0.000 A 
ATOM     24  N   UNL     1      44.506   2.025  10.016  0.00  0.00    +0.000 N 
ATOM     25  C   UNL     1      45.249   2.539   8.995  0.00  0.00    +0.000 A 
ATOM     26  N   UNL     1      45.776   1.798   8.004  0.00  0.00    +0.000 NA
ATOM     27  C   UNL     1      46.491   2.529   7.121  0.00  0.00    +0.000 A 
ATOM     28  C   UNL     1      46.687   3.901   7.182  0.00  0.00    +0.000 A 
ATOM     29  C   UNL     1      46.117   4.621   8.234  0.00  0.00    +0.000 A 
ATOM     30  C   UNL     1      45.357   3.913   9.186  0.00  0.00    +0.000 A 
ATOM     31  C   UNL     1      44.642   4.225  10.395  0.00  0.00    +0.000 A 
ATOM     32  H   UNL     1      44.294   1.042  10.106  0.00  0.00    +0.000 HD
ENDBRANCH  18  31
ENDBRANCH   1  20
TORSDOF 7
ENDMDL
MODEL 3
REMARK VINA RESULT:    -7.407      3.540      9.966
REMARK INTER + INTRA:         -11.264
REMARK INTER:                  -9.271
REMARK INTRA:                  -1.992
REMARK UNBOUND:                -0.826
REMARK  Name = 
REMARK  9 active torsions:
REMARK  status: ('A' for Active; 'I' for Inactive)
REMARK    1  A    between atoms: C_1  and  C_2
REMARK    2  A    between atoms: C_10  and  C_11
REMARK    3  A    between atoms: N_13  and  C_14
REMARK    4  A    between atoms: C_14  and  C_15
REMARK    5  A    between atoms: C_18  and  C_19
REMARK    6  A    between atoms: C_19  and  N_20
REMARK    7  A    between atoms: N_20  and  C_21
REMARK    8  A    between atoms: N_20  and  C_22
REMARK    9  A    between atoms: C_22  and  C_23
REMARK                            x       y       z     vdW  Elec       q    Type
REMARK                         _______ _______ _______ _____ _____    ______ ____
ROOT
ATOM      1  C   UNL     1      47.343   3.892  16.695  0.00  0.00    +0.000 C 
ENDROOT
BRANCH   1   2
ATOM      2  C   UNL     1      48.780   4.153  17.045  0.00  0.00    +0.000 A 
ATOM      3  C   UNL     1      49.331   5.428  16.860  0.00  0.00    +0.000 A 
ATOM      4  C   UNL     1      50.651   5.686  17.228  0.00  0.00    +0.000 A 
ATOM      5  C   UNL     1      51.444   4.674  17.789  0.00  0.00    +0.000 A 
ATOM      6  C   UNL     1      50.910   3.385  17.920  0.00  0.00    +0.000 A 
ATOM      7  C   UNL     1      49.590   3.126  17.549  0.00  0.00    +0.000 A 
BRANCH   5   8
ATOM      8  C   UNL     1      52.836   4.989  18.297  0.00  0.00    +0.000 C 
BRANCH   8   9
ATOM      9  N   UNL     1      52.968   4.819  19.759  0.00  0.00    +0.000 NA
ATOM     10  C   UNL     1      54.364   4.578  20.142  0.00  0.00    +0.000 C 
BRANCH   9  11
ATOM     11  C   UNL     1      52.475   6.006  20.481  0.00  0.00    +0.000 C 
BRANCH  11  12
ATOM     12  C   UNL     1      50.976   6.021  20.693  0.00  0.00    +0.000 A 
ATOM     13  C   UNL     1      50.219   7.158  20.374  0.00  0.00    +0.000 A 
ATOM     14  C   UNL     1      48.837   7.164  20.567  0.00  0.00    +0.000 A 
ATOM     15  C   UNL     1      48.200   6.034  21.081  0.00  0.00    +0.000 A 
ATOM     16  C   UNL     1      48.942   4.901  21.405  0.00  0.00    +0.000 A 
ATOM     17  C   UNL     1      50.323   4.893  21.208  0.00  0.00    +0.000 A 
ENDBRANCH  11  12
ENDBRANCH   9  11
ENDBRANCH   8   9
ENDBRANCH   5   8
ENDBRANCH   1   2
BRANCH   1  20
ATOM     18  C   UNL     1      46.907   4.283  14.332  0.00  0.00    +0.000 C 
ATOM     19  O   UNL     1      47.312   3.162  14.035  0.00  0.00    +0.000 OA
ATOM     20  N   UNL     1      46.903   4.747  15.624  0.00  0.00    +0.000 N 
ATOM     21  H   UNL     1      46.318   5.541  15.848  0.00  0.00    +0.000 HD
BRANCH  18  31
ATOM     22  C   UNL     1      48.502   6.632  12.891  0.00  0.00    +0.000 C 
ATOM     23  C   UNL     1      47.075   6.239  12.749  0.00  0.00    +0.000 A 
ATOM     24  N   UNL     1      46.225   6.921  11.914  0.00  0.00    +0.000 N 
ATOM     25  C   UNL     1      44.981   6.364  11.949  0.00  0.00    +0.000 A 
ATOM     26  N   UNL     1      43.933   6.826  11.244  0.00  0.00    +0.000 NA
ATOM     27  C   UNL     1      42.800   6.122  11.460  0.00  0.00    +0.000 A 
ATOM     28  C   UNL     1      42.679   5.028  12.305  0.00  0.00    +0.000 A 
ATOM     29  C   UNL     1      43.801   4.592  13.013  0.00  0.00    +0.000 A 
ATOM     30  C   UNL     1      45.013   5.285  12.827  0.00  0.00    +0.000 A 
ATOM     31  C   UNL     1      46.352   5.207  13.345  0.00  0.00    +0.000 A 
ATOM     32  H   UNL     1      46.455   7.729  11.353  0.00  0.00    +0.000 HD
ENDBRANCH  18  31
ENDBRANCH   1  20
TORSDOF 7
ENDMDL
MODEL 4
REMARK VINA RESULT:    -7.368      1.835      2.672
REMARK INTER + INTRA:         -11.209
REMARK INTER:                  -9.914
REMARK INTRA:                  -1.295
REMARK UNBOUND:                -0.826
REMARK  Name = 
REMARK  9 active torsions:
REMARK  status: ('A' for Active; 'I' for Inactive)
REMARK    1  A    between atoms: C_1  and  C_2
REMARK    2  A    between atoms: C_10  and  C_11
REMARK    3  A    between atoms: N_13  and  C_14
REMARK    4  A    between atoms: C_14  and  C_15
REMARK    5  A    between atoms: C_18  and  C_19
REMARK    6  A    between atoms: C_19  and  N_20
REMARK    7  A    between atoms: N_20  and  C_21
REMARK    8  A    between atoms: N_20  and  C_22
REMARK    9  A    between atoms: C_22  and  C_23
REMARK                            x       y       z     vdW  Elec       q    Type
REMARK                         _______ _______ _______ _____ _____    ______ ____
ROOT
ATOM      1  C   UNL     1      47.749   3.575  15.981  0.00  0.00    +0.000 C 
ENDROOT
BRANCH   1   2
ATOM      2  C   UNL     1      47.171   4.083  14.691  0.00  0.00    +0.000 A 
ATOM      3  C   UNL     1      46.640   3.185  13.754  0.00  0.00    +0.000 A 
ATOM      4  C   UNL     1      46.060   3.656  12.577  0.00  0.00    +0.000 A 
ATOM      5  C   UNL     1      46.000   5.032  12.314  0.00  0.00    +0.000 A 
ATOM      6  C   UNL     1      46.584   5.925  13.223  0.00  0.00    +0.000 A 
ATOM      7  C   UNL     1      47.166   5.454  14.401  0.00  0.00    +0.000 A 
BRANCH   5   8
ATOM      8  C   UNL     1      45.264   5.544  11.093  0.00  0.00    +0.000 C 
BRANCH   8   9
ATOM      9  N   UNL     1      44.228   4.607  10.609  0.00  0.00    +0.000 NA
ATOM     10  C   UNL     1      42.896   4.994  11.089  0.00  0.00    +0.000 C 
BRANCH   9  11
ATOM     11  C   UNL     1      44.206   4.552   9.136  0.00  0.00    +0.000 C 
BRANCH  11  12
ATOM     12  C   UNL     1      45.184   3.562   8.540  0.00  0.00    +0.000 A 
ATOM     13  C   UNL     1      45.126   2.203   8.882  0.00  0.00    +0.000 A 
ATOM     14  C   UNL     1      46.027   1.295   8.325  0.00  0.00    +0.000 A 
ATOM     15  C   UNL     1      46.994   1.737   7.422  0.00  0.00    +0.000 A 
ATOM     16  C   UNL     1      47.064   3.084   7.078  0.00  0.00    +0.000 A 
ATOM     17  C   UNL     1      46.161   3.993   7.631  0.00  0.00    +0.000 A 
ENDBRANCH  11  12
ENDBRANCH   9  11
ENDBRANCH   8   9
ENDBRANCH   5   8
ENDBRANCH   1   2
BRANCH   1  20
ATOM     18  C   UNL     1      48.850   5.161  17.465  0.00  0.00    +0.000 C 
ATOM     19  O   UNL     1      49.958   4.831  17.053  0.00  0.00    +0.000 OA
ATOM     20  N   UNL     1      47.692   4.579  17.010  0.00  0.00    +0.000 N 
ATOM     21  H   UNL     1      46.817   5.063  17.166  0.00  0.00    +0.000 HD
BRANCH  18  31
ATOM     22  C   UNL     1      48.789   4.792  20.627  0.00  0.00    +0.000 C 
ATOM     23  C   UNL     1      48.616   6.030  19.821  0.00  0.00    +0.000 A 
ATOM     24  N   UNL     1      48.380   7.244  20.416  0.00  0.00    +0.000 N 
ATOM     25  C   UNL     1      48.271   8.220  19.471  0.00  0.00    +0.000 A 
ATOM     26  N   UNL     1      48.025   9.512  19.752  0.00  0.00    +0.000 NA
ATOM     27  C   UNL     1      47.939  10.285  18.648  0.00  0.00    +0.000 A 
ATOM     28  C   UNL     1      48.086   9.845  17.341  0.00  0.00    +0.000 A 
ATOM     29  C   UNL     1      48.339   8.491  17.107  0.00  0.00    +0.000 A 
ATOM     30  C   UNL     1      48.442   7.635  18.220  0.00  0.00    +0.000 A 
ATOM     31  C   UNL     1      48.658   6.230  18.442  0.00  0.00    +0.000 A 
ATOM     32  H   UNL     1      48.283   7.418  21.406  0.00  0.00    +0.000 HD
ENDBRANCH  18  31
ENDBRANCH   1  20
TORSDOF 7
ENDMDL
MODEL 5
REMARK VINA RESULT:    -7.316      3.512      9.359
REMARK INTER + INTRA:         -11.136
REMARK INTER:                  -8.970
REMARK INTRA:                  -2.165
REMARK UNBOUND:                -0.826
REMARK  Name = 
REMARK  9 active torsions:
REMARK  status: ('A' for Active; 'I' for Inactive)
REMARK    1  A    between atoms: C_1  and  C_2
REMARK    2  A    between atoms: C_10  and  C_11
REMARK    3  A    between atoms: N_13  and  C_14
REMARK    4  A    between atoms: C_14  and  C_15
REMARK    5  A    between atoms: C_18  and  C_19
REMARK    6  A    between atoms: C_19  and  N_20
REMARK    7  A    between atoms: N_20  and  C_21
REMARK    8  A    between atoms: N_20  and  C_22
REMARK    9  A    between atoms: C_22  and  C_23
REMARK                            x       y       z     vdW  Elec       q    Type
REMARK                         _______ _______ _______ _____ _____    ______ ____
ROOT
ATOM      1  C   UNL     1      47.314   3.672  16.751  0.00  0.00    +0.000 C 
ENDROOT
BRANCH   1   2
ATOM      2  C   UNL     1      47.707   4.429  17.987  0.00  0.00    +0.000 A 
ATOM      3  C   UNL     1      48.913   4.139  18.638  0.00  0.00    +0.000 A 
ATOM      4  C   UNL     1      49.304   4.872  19.759  0.00  0.00    +0.000 A 
ATOM      5  C   UNL     1      48.496   5.908  20.247  0.00  0.00    +0.000 A 
ATOM      6  C   UNL     1      47.263   6.159  19.630  0.00  0.00    +0.000 A 
ATOM      7  C   UNL     1      46.871   5.425  18.510  0.00  0.00    +0.000 A 
BRANCH   5   8
ATOM      8  C   UNL     1      48.980   6.779  21.389  0.00  0.00    +0.000 C 
BRANCH   8   9
ATOM      9  N   UNL     1      48.951   8.221  21.067  0.00  0.00    +0.000 NA
ATOM     10  C   UNL     1      49.140   9.038  22.271  0.00  0.00    +0.000 C 
BRANCH   9  11
ATOM     11  C   UNL     1      49.997   8.568  20.087  0.00  0.00    +0.000 C 
BRANCH  11  12
ATOM     12  C   UNL     1      49.505   8.638  18.658  0.00  0.00    +0.000 A 
ATOM     13  C   UNL     1      50.118   7.879  17.651  0.00  0.00    +0.000 A 
ATOM     14  C   UNL     1      49.656   7.944  16.335  0.00  0.00    +0.000 A 
ATOM     15  C   UNL     1      48.579   8.770  16.015  0.00  0.00    +0.000 A 
ATOM     16  C   UNL     1      47.964   9.532  17.006  0.00  0.00    +0.000 A 
ATOM     17  C   UNL     1      48.423   9.464  18.322  0.00  0.00    +0.000 A 
ENDBRANCH  11  12
ENDBRANCH   9  11
ENDBRANCH   8   9
ENDBRANCH   5   8
ENDBRANCH   1   2
BRANCH   1  20
ATOM     18  C   UNL     1      46.935   4.161  14.396  0.00  0.00    +0.000 C 
ATOM     19  O   UNL     1      47.383   3.068  14.060  0.00  0.00    +0.000 OA
ATOM     20  N   UNL     1      46.879   4.563  15.708  0.00  0.00    +0.000 N 
ATOM     21  H   UNL     1      46.264   5.329  15.950  0.00  0.00    +0.000 HD
BRANCH  18  31
ATOM     22  C   UNL     1      48.522   6.572  13.052  0.00  0.00    +0.000 C 
ATOM     23  C   UNL     1      47.100   6.172  12.883  0.00  0.00    +0.000 A 
ATOM     24  N   UNL     1      46.252   6.875  12.064  0.00  0.00    +0.000 N 
ATOM     25  C   UNL     1      45.013   6.307  12.068  0.00  0.00    +0.000 A 
ATOM     26  N   UNL     1      43.966   6.784  11.370  0.00  0.00    +0.000 NA
ATOM     27  C   UNL     1      42.839   6.064  11.551  0.00  0.00    +0.000 A 
ATOM     28  C   UNL     1      42.719   4.940  12.356  0.00  0.00    +0.000 A 
ATOM     29  C   UNL     1      43.838   4.489  13.060  0.00  0.00    +0.000 A 
ATOM     30  C   UNL     1      45.046   5.199  12.909  0.00  0.00    +0.000 A 
ATOM     31  C   UNL     1      46.381   5.114  13.437  0.00  0.00    +0.000 A 
ATOM     32  H   UNL     1      46.479   7.704  11.534  0.00  0.00    +0.000 HD
ENDBRANCH  18  31
ENDBRANCH   1  20
TORSDOF 7
ENDMDL
MODEL 6
REMARK VINA RESULT:    -7.235      3.945      9.474
REMARK INTER + INTRA:         -11.022
REMARK INTER:                  -8.931
REMARK INTRA:                  -2.091
REMARK UNBOUND:                -0.826
REMARK  Name = 
REMARK  9 active torsions:
REMARK  status: ('A' for Active; 'I' for Inactive)
REMARK    1  A    between atoms: C_1  and  C_2
REMARK    2  A    between atoms: C_10  and  C_11
REMARK    3  A    between atoms: N_13  and  C_14
REMARK    4  A    between atoms: C_14  and  C_15
REMARK    5  A    between atoms: C_18  and  C_19
REMARK    6  A    between atoms: C_19  and  N_20
REMARK    7  A    between atoms: N_20  and  C_21
REMARK    8  A    between atoms: N_20  and  C_22
REMARK    9  A    between atoms: C_22  and  C_23
REMARK                            x       y       z     vdW  Elec       q    Type
REMARK                         _______ _______ _______ _____ _____    ______ ____
ROOT
ATOM      1  C   UNL     1      45.467   6.680  12.886  0.00  0.00    +0.000 C 
ENDROOT
BRANCH   1   2
ATOM      2  C   UNL     1      46.548   7.613  12.421  0.00  0.00    +0.000 A 
ATOM      3  C   UNL     1      46.380   9.000  12.536  0.00  0.00    +0.000 A 
ATOM      4  C   UNL     1      47.400   9.868  12.148  0.00  0.00    +0.000 A 
ATOM      5  C   UNL     1      48.606   9.366  11.639  0.00  0.00    +0.000 A 
ATOM      6  C   UNL     1      48.750   7.983  11.469  0.00  0.00    +0.000 A 
ATOM      7  C   UNL     1      47.729   7.114  11.855  0.00  0.00    +0.000 A 
BRANCH   5   8
ATOM      8  C   UNL     1      49.755  10.306  11.332  0.00  0.00    +0.000 C 
BRANCH   8   9
ATOM      9  N   UNL     1      50.998   9.949  12.046  0.00  0.00    +0.000 NA
ATOM     10  C   UNL     1      52.175  10.522  11.382  0.00  0.00    +0.000 C 
BRANCH   9  11
ATOM     11  C   UNL     1      50.963  10.418  13.443  0.00  0.00    +0.000 C 
BRANCH  11  12
ATOM     12  C   UNL     1      50.305   9.451  14.403  0.00  0.00    +0.000 A 
ATOM     13  C   UNL     1      50.717   8.111  14.466  0.00  0.00    +0.000 A 
ATOM     14  C   UNL     1      50.109   7.226  15.357  0.00  0.00    +0.000 A 
ATOM     15  C   UNL     1      49.085   7.671  16.193  0.00  0.00    +0.000 A 
ATOM     16  C   UNL     1      48.665   8.998  16.137  0.00  0.00    +0.000 A 
ATOM     17  C   UNL     1      49.275   9.885  15.249  0.00  0.00    +0.000 A 
ENDBRANCH  11  12
ENDBRANCH   9  11
ENDBRANCH   8   9
ENDBRANCH   5   8
ENDBRANCH   1   2
BRANCH   1  20
ATOM     18  C   UNL     1      44.554   5.286  11.112  0.00  0.00    +0.000 C 
ATOM     19  O   UNL     1      43.697   6.124  10.845  0.00  0.00    +0.000 OA
ATOM     20  N   UNL     1      45.466   5.460  12.123  0.00  0.00    +0.000 N 
ATOM     21  H   UNL     1      46.301   4.889  12.121  0.00  0.00    +0.000 HD
BRANCH  18  31
ATOM     22  C   UNL     1      43.308   2.461  11.888  0.00  0.00    +0.000 C 
ATOM     23  C   UNL     1      44.167   2.823  10.731  0.00  0.00    +0.000 A 
ATOM     24  N   UNL     1      44.551   1.886   9.804  0.00  0.00    +0.000 N 
ATOM     25  C   UNL     1      45.320   2.463   8.839  0.00  0.00    +0.000 A 
ATOM     26  N   UNL     1      45.856   1.791   7.804  0.00  0.00    +0.000 NA
ATOM     27  C   UNL     1      46.596   2.575   6.991  0.00  0.00    +0.000 A 
ATOM     28  C   UNL     1      46.810   3.936   7.158  0.00  0.00    +0.000 A 
ATOM     29  C   UNL     1      46.230   4.584   8.251  0.00  0.00    +0.000 A 
ATOM     30  C   UNL     1      45.443   3.818   9.134  0.00  0.00    +0.000 A 
ATOM     31  C   UNL     1      44.710   4.049  10.350  0.00  0.00    +0.000 A 
ATOM     32  H   UNL     1      44.325   0.902   9.817  0.00  0.00    +0.000 HD
ENDBRANCH  18  31
ENDBRANCH   1  20
TORSDOF 7
ENDMDL
MODEL 7
REMARK VINA RESULT:    -7.189      5.435      9.024
REMARK INTER + INTRA:         -10.957
REMARK INTER:                  -9.739
REMARK INTRA:                  -1.218
REMARK UNBOUND:                -0.826
REMARK  Name = 
REMARK  9 active torsions:
REMARK  status: ('A' for Active; 'I' for Inactive)
REMARK    1  A    between atoms: C_1  and  C_2
REMARK    2  A    between atoms: C_10  and  C_11
REMARK    3  A    between atoms: N_13  and  C_14
REMARK    4  A    between atoms: C_14  and  C_15
REMARK    5  A    between atoms: C_18  and  C_19
REMARK    6  A    between atoms: C_19  and  N_20
REMARK    7  A    between atoms: N_20  and  C_21
REMARK    8  A    between atoms: N_20  and  C_22
REMARK    9  A    between atoms: C_22  and  C_23
REMARK                            x       y       z     vdW  Elec       q    Type
REMARK                         _______ _______ _______ _____ _____    ______ ____
ROOT
ATOM      1  C   UNL     1      45.563   7.359  12.306  0.00  0.00    +0.000 C 
ENDROOT
BRANCH   1   2
ATOM      2  C   UNL     1      46.867   8.077  12.110  0.00  0.00    +0.000 A 
ATOM      3  C   UNL     1      46.929   9.473  12.228  0.00  0.00    +0.000 A 
ATOM      4  C   UNL     1      48.147  10.139  12.093  0.00  0.00    +0.000 A 
ATOM      5  C   UNL     1      49.325   9.422  11.838  0.00  0.00    +0.000 A 
ATOM      6  C   UNL     1      49.253   8.033  11.662  0.00  0.00    +0.000 A 
ATOM      7  C   UNL     1      48.034   7.367  11.795  0.00  0.00    +0.000 A 
BRANCH   5   8
ATOM      8  C   UNL     1      50.661  10.136  11.812  0.00  0.00    +0.000 C 
BRANCH   8   9
ATOM      9  N   UNL     1      51.262  10.183  10.462  0.00  0.00    +0.000 NA
ATOM     10  C   UNL     1      51.229  11.545   9.914  0.00  0.00    +0.000 C 
BRANCH   9  11
ATOM     11  C   UNL     1      52.660   9.713  10.484  0.00  0.00    +0.000 C 
BRANCH  11  12
ATOM     12  C   UNL     1      52.897   8.446   9.692  0.00  0.00    +0.000 A 
ATOM     13  C   UNL     1      53.033   7.210  10.340  0.00  0.00    +0.000 A 
ATOM     14  C   UNL     1      53.247   6.044   9.602  0.00  0.00    +0.000 A 
ATOM     15  C   UNL     1      53.328   6.105   8.211  0.00  0.00    +0.000 A 
ATOM     16  C   UNL     1      53.198   7.327   7.556  0.00  0.00    +0.000 A 
ATOM     17  C   UNL     1      52.980   8.492   8.293  0.00  0.00    +0.000 A 
ENDBRANCH  11  12
ENDBRANCH   9  11
ENDBRANCH   8   9
ENDBRANCH   5   8
ENDBRANCH   1   2
BRANCH   1  20
ATOM     18  C   UNL     1      44.468   5.542  11.112  0.00  0.00    +0.000 C 
ATOM     19  O   UNL     1      43.402   6.152  11.089  0.00  0.00    +0.000 OA
ATOM     20  N   UNL     1      45.594   6.049  11.713  0.00  0.00    +0.000 N 
ATOM     21  H   UNL     1      46.491   5.648  11.468  0.00  0.00    +0.000 HD
BRANCH  18  31
ATOM     22  C   UNL     1      43.348   2.764  12.191  0.00  0.00    +0.000 C 
ATOM     23  C   UNL     1      44.160   3.043  10.977  0.00  0.00    +0.000 A 
ATOM     24  N   UNL     1      44.551   2.035  10.132  0.00  0.00    +0.000 N 
ATOM     25  C   UNL     1      45.271   2.544   9.092  0.00  0.00    +0.000 A 
ATOM     26  N   UNL     1      45.801   1.794   8.108  0.00  0.00    +0.000 NA
ATOM     27  C   UNL     1      46.489   2.522   7.202  0.00  0.00    +0.000 A 
ATOM     28  C   UNL     1      46.657   3.899   7.233  0.00  0.00    +0.000 A 
ATOM     29  C   UNL     1      46.086   4.628   8.279  0.00  0.00    +0.000 A 
ATOM     30  C   UNL     1      45.353   3.923   9.254  0.00  0.00    +0.000 A 
ATOM     31  C   UNL     1      44.647   4.244  10.465  0.00  0.00    +0.000 A 
ATOM     32  H   UNL     1      44.361   1.049  10.244  0.00  0.00    +0.000 HD
ENDBRANCH  18  31
ENDBRANCH   1  20
TORSDOF 7
ENDMDL
MODEL 8
REMARK VINA RESULT:    -7.076      3.647      9.753
REMARK INTER + INTRA:         -10.798
REMARK INTER:                  -8.726
REMARK INTRA:                  -2.072
REMARK UNBOUND:                -0.826
REMARK  Name = 
REMARK  9 active torsions:
REMARK  status: ('A' for Active; 'I' for Inactive)
REMARK    1  A    between atoms: C_1  and  C_2
REMARK    2  A    between atoms: C_10  and  C_11
REMARK    3  A    between atoms: N_13  and  C_14
REMARK    4  A    between atoms: C_14  and  C_15
REMARK    5  A    between atoms: C_18  and  C_19
REMARK    6  A    between atoms: C_19  and  N_20
REMARK    7  A    between atoms: N_20  and  C_21
REMARK    8  A    between atoms: N_20  and  C_22
REMARK    9  A    between atoms: C_22  and  C_23
REMARK                            x       y       z     vdW  Elec       q    Type
REMARK                         _______ _______ _______ _____ _____    ______ ____
ROOT
ATOM      1  C   UNL     1      47.344   3.544  16.393  0.00  0.00    +0.000 C 
ENDROOT
BRANCH   1   2
ATOM      2  C   UNL     1      48.698   4.009  16.849  0.00  0.00    +0.000 A 
ATOM      3  C   UNL     1      49.069   5.353  16.700  0.00  0.00    +0.000 A 
ATOM      4  C   UNL     1      50.306   5.798  17.164  0.00  0.00    +0.000 A 
ATOM      5  C   UNL     1      51.194   4.909  17.786  0.00  0.00    +0.000 A 
ATOM      6  C   UNL     1      50.846   3.554  17.881  0.00  0.00    +0.000 A 
ATOM      7  C   UNL     1      49.609   3.108  17.415  0.00  0.00    +0.000 A 
BRANCH   5   8
ATOM      8  C   UNL     1      52.484   5.420  18.395  0.00  0.00    +0.000 C 
BRANCH   8   9
ATOM      9  N   UNL     1      52.625   5.068  19.824  0.00  0.00    +0.000 NA
ATOM     10  C   UNL     1      54.036   4.900  20.192  0.00  0.00    +0.000 C 
BRANCH   9  11
ATOM     11  C   UNL     1      52.028   6.103  20.688  0.00  0.00    +0.000 C 
BRANCH  11  12
ATOM     12  C   UNL     1      50.517   6.049  20.761  0.00  0.00    +0.000 A 
ATOM     13  C   UNL     1      49.742   7.161  20.402  0.00  0.00    +0.000 A 
ATOM     14  C   UNL     1      48.349   7.103  20.466  0.00  0.00    +0.000 A 
ATOM     15  C   UNL     1      47.719   5.934  20.893  0.00  0.00    +0.000 A 
ATOM     16  C   UNL     1      48.479   4.824  21.256  0.00  0.00    +0.000 A 
ATOM     17  C   UNL     1      49.871   4.880  21.188  0.00  0.00    +0.000 A 
ENDBRANCH  11  12
ENDBRANCH   9  11
ENDBRANCH   8   9
ENDBRANCH   5   8
ENDBRANCH   1   2
BRANCH   1  20
ATOM     18  C   UNL     1      46.536   4.287  14.220  0.00  0.00    +0.000 C 
ATOM     19  O   UNL     1      46.945   3.263  13.678  0.00  0.00    +0.000 OA
ATOM     20  N   UNL     1      46.706   4.529  15.561  0.00  0.00    +0.000 N 
ATOM     21  H   UNL     1      46.124   5.232  16.000  0.00  0.00    +0.000 HD
BRANCH  18  31
ATOM     22  C   UNL     1      43.590   3.976  13.054  0.00  0.00    +0.000 C 
ATOM     23  C   UNL     1      44.512   5.140  12.982  0.00  0.00    +0.000 A 
ATOM     24  N   UNL     1      44.153   6.297  12.336  0.00  0.00    +0.000 N 
ATOM     25  C   UNL     1      45.157   7.215  12.419  0.00  0.00    +0.000 A 
ATOM     26  N   UNL     1      45.100   8.441  11.868  0.00  0.00    +0.000 NA
ATOM     27  C   UNL     1      46.225   9.161  12.067  0.00  0.00    +0.000 A 
ATOM     28  C   UNL     1      47.346   8.732  12.763  0.00  0.00    +0.000 A 
ATOM     29  C   UNL     1      47.351   7.449  13.313  0.00  0.00    +0.000 A 
ATOM     30  C   UNL     1      46.203   6.650  13.141  0.00  0.00    +0.000 A 
ATOM     31  C   UNL     1      45.794   5.318  13.497  0.00  0.00    +0.000 A 
ATOM     32  H   UNL     1      43.285   6.468  11.850  0.00  0.00    +0.000 HD
ENDBRANCH  18  31
ENDBRANCH   1  20
TORSDOF 7
ENDMDL
MODEL 9
REMARK VINA RESULT:    -6.856      2.121      3.130
REMARK INTER + INTRA:         -10.488
REMARK INTER:                  -9.585
REMARK INTRA:                  -0.902
REMARK UNBOUND:                -0.826
REMARK  Name = 
REMARK  9 active torsions:
REMARK  status: ('A' for Active; 'I' for Inactive)
REMARK    1  A    between atoms: C_1  and  C_2
REMARK    2  A    between atoms: C_10  and  C_11
REMARK    3  A    between atoms: N_13  and  C_14
REMARK    4  A    between atoms: C_14  and  C_15
REMARK    5  A    between atoms: C_18  and  C_19
REMARK    6  A    between atoms: C_19  and  N_20
REMARK    7  A    between atoms: N_20  and  C_21
REMARK    8  A    between atoms: N_20  and  C_22
REMARK    9  A    between atoms: C_22  and  C_23
REMARK                            x       y       z     vdW  Elec       q    Type
REMARK                         _______ _______ _______ _____ _____    ______ ____
ROOT
ATOM      1  C   UNL     1      48.058   5.068  15.902  0.00  0.00    +0.000 C 
ENDROOT
BRANCH   1   2
ATOM      2  C   UNL     1      47.356   5.194  14.580  0.00  0.00    +0.000 A 
ATOM      3  C   UNL     1      47.450   6.381  13.841  0.00  0.00    +0.000 A 
ATOM      4  C   UNL     1      46.839   6.485  12.592  0.00  0.00    +0.000 A 
ATOM      5  C   UNL     1      46.123   5.404  12.059  0.00  0.00    +0.000 A 
ATOM      6  C   UNL     1      45.980   4.238  12.824  0.00  0.00    +0.000 A 
ATOM      7  C   UNL     1      46.590   4.135  14.075  0.00  0.00    +0.000 A 
BRANCH   5   8
ATOM      8  C   UNL     1      45.563   5.479  10.653  0.00  0.00    +0.000 C 
BRANCH   8   9
ATOM      9  N   UNL     1      44.359   4.642  10.467  0.00  0.00    +0.000 NA
ATOM     10  C   UNL     1      43.161   5.310  10.993  0.00  0.00    +0.000 C 
BRANCH   9  11
ATOM     11  C   UNL     1      44.142   4.329   9.043  0.00  0.00    +0.000 C 
BRANCH  11  12
ATOM     12  C   UNL     1      45.187   3.411   8.447  0.00  0.00    +0.000 A 
ATOM     13  C   UNL     1      45.222   2.050   8.785  0.00  0.00    +0.000 A 
ATOM     14  C   UNL     1      46.184   1.207   8.228  0.00  0.00    +0.000 A 
ATOM     15  C   UNL     1      47.121   1.717   7.329  0.00  0.00    +0.000 A 
ATOM     16  C   UNL     1      47.099   3.067   6.988  0.00  0.00    +0.000 A 
ATOM     17  C   UNL     1      46.134   3.910   7.541  0.00  0.00    +0.000 A 
ENDBRANCH  11  12
ENDBRANCH   9  11
ENDBRANCH   8   9
ENDBRANCH   5   8
ENDBRANCH   1   2
BRANCH   1  20
ATOM     18  C   UNL     1      49.255   6.577  17.391  0.00  0.00    +0.000 C 
ATOM     19  O   UNL     1      50.080   5.709  17.665  0.00  0.00    +0.000 OA
ATOM     20  N   UNL     1      48.200   6.349  16.542  0.00  0.00    +0.000 N 
ATOM     21  H   UNL     1      47.726   7.147  16.139  0.00  0.00    +0.000 HD
BRANCH  18  31
ATOM     22  C   UNL     1      51.201   8.847  16.297  0.00  0.00    +0.000 C 
ATOM     23  C   UNL     1      50.225   8.905  17.417  0.00  0.00    +0.000 A 
ATOM     24  N   UNL     1      50.061  10.044  18.164  0.00  0.00    +0.000 N 
ATOM     25  C   UNL     1      49.105   9.851  19.117  0.00  0.00    +0.000 A 
ATOM     26  N   UNL     1      48.736  10.787  20.010  0.00  0.00    +0.000 NA
ATOM     27  C   UNL     1      47.785  10.353  20.866  0.00  0.00    +0.000 A 
ATOM     28  C   UNL     1      47.214   9.089  20.864  0.00  0.00    +0.000 A 
ATOM     29  C   UNL     1      47.636   8.156  19.915  0.00  0.00    +0.000 A 
ATOM     30  C   UNL     1      48.624   8.551  18.992  0.00  0.00    +0.000 A 
ATOM     31  C   UNL     1      49.345   7.941  17.907  0.00  0.00    +0.000 A 
ATOM     32  H   UNL     1      50.569  10.911  18.057  0.00  0.00    +0.000 HD
ENDBRANCH  18  31
ENDBRANCH   1  20
TORSDOF 7
ENDMDL
