MODEL 1
REMARK VINA RESULT:    -8.150      0.000      0.000
REMARK INTER + INTRA:         -12.073
REMARK INTER:                 -11.008
REMARK INTRA:                  -1.065
REMARK UNBOUND:                -1.065
REMARK  Name = 
REMARK  7 active torsions:
REMARK  status: ('A' for Active; 'I' for Inactive)
REMARK    1  A    between atoms: C_1  and  N_2
REMARK    2  A    between atoms: N_2  and  C_3
REMARK    3  A    between atoms: C_3  and  C_4
REMARK    4  A    between atoms: C_7  and  C_8
REMARK    5  A    between atoms: C_8  and  N_9
REMARK    6  A    between atoms: C_10  and  C_12
REMARK    7  A    between atoms: C_24  and  C_26
REMARK                            x       y       z     vdW  Elec       q    Type
REMARK                         _______ _______ _______ _____ _____    ______ ____
ROOT
ATOM      1  C   UNL     1      46.404   4.601  13.403  0.00  0.00    +0.000 A 
ATOM      2  C   UNL     1      46.672   4.233  14.732  0.00  0.00    +0.000 A 
ATOM      3  C   UNL     1      47.556   4.980  15.511  0.00  0.00    +0.000 A 
ATOM      4  C   UNL     1      48.177   6.117  14.979  0.00  0.00    +0.000 A 
ATOM      5  C   UNL     1      47.921   6.474  13.649  0.00  0.00    +0.000 A 
ATOM      6  C   UNL     1      47.033   5.730  12.870  0.00  0.00    +0.000 A 
ENDROOT
BRANCH   1   7
ATOM      7  C   UNL     1      45.490   3.758  12.554  0.00  0.00    +0.000 C 
BRANCH   7   9
ATOM      8  C   UNL     1      43.365   5.086  12.955  0.00  0.00    +0.000 C 
ATOM      9  N   UNL     1      44.242   4.345  12.054  0.00  0.00    +0.000 N 
ATOM     10  C   UNL     1      43.945   4.484  10.685  0.00  0.00    +0.000 C 
ATOM     11  O   UNL     1      42.998   5.173  10.296  0.00  0.00    +0.000 OA
BRANCH  10  12
ATOM     12  C   UNL     1      44.779   3.850   9.629  0.00  0.00    +0.000 A 
ATOM     13  C   UNL     1      44.862   2.480   9.387  0.00  0.00    +0.000 A 
ATOM     14  C   UNL     1      45.724   1.995   8.404  0.00  0.00    +0.000 A 
ATOM     15  C   UNL     1      46.426   2.908   7.637  0.00  0.00    +0.000 A 
ATOM     16  N   UNL     1      46.318   4.243   7.787  0.00  0.00    +0.000 NA
ATOM     17  C   UNL     1      45.492   4.684   8.773  0.00  0.00    +0.000 A 
ENDBRANCH  10  12
ENDBRANCH   7   9
ENDBRANCH   1   7
BRANCH   4  18
ATOM     18  C   UNL     1      49.170   6.900  15.796  0.00  0.00    +0.000 C 
BRANCH  18  19
ATOM     19  N   UNL     1      50.191   6.024  16.305  0.00  0.00    +0.000 N 
ATOM     20  C   UNL     1      50.291   5.725  17.637  0.00  0.00    +0.000 C 
ATOM     21  O   UNL     1      49.481   6.138  18.462  0.00  0.00    +0.000 OA
ATOM     22  H   UNL     1      50.983   5.848  15.695  0.00  0.00    +0.000 HD
BRANCH  20  23
ATOM     23  C   UNL     1      51.381   4.814  18.013  0.00  0.00    +0.000 A 
ATOM     24  C   UNL     1      52.501   5.318  18.663  0.00  0.00    +0.000 A 
ATOM     25  S   UNL     1      53.634   4.122  19.101  0.00  0.00    +0.000 S 
ATOM     26  C   UNL     1      52.694   2.893  18.393  0.00  0.00    +0.000 A 
ATOM     27  N   UNL     1      53.110   1.599  18.411  0.00  0.00    +0.000 NA
ATOM     28  C   UNL     1      52.315   0.774  17.812  0.00  0.00    +0.000 A 
ATOM     29  N   UNL     1      51.143   1.129  17.197  0.00  0.00    +0.000 N 
ATOM     30  C   UNL     1      50.670   2.419  17.174  0.00  0.00    +0.000 A 
ATOM     31  O   UNL     1      49.601   2.695  16.644  0.00  0.00    +0.000 OA
ATOM     32  C   UNL     1      51.526   3.386  17.836  0.00  0.00    +0.000 A 
ATOM     33  H   UNL     1      50.566   0.435  16.742  0.00  0.00    +0.000 HD
ENDBRANCH  20  23
ENDBRANCH  18  19
ENDBRANCH   4  18
TORSDOF 6
ENDMDL
MODEL 2
REMARK VINA RESULT:    -7.627      2.557      3.079
REMARK INTER + INTRA:         -11.367
REMARK INTER:                 -10.648
REMARK INTRA:                  -0.719
REMARK UNBOUND:                -1.065
REMARK  Name = 
REMARK  7 active torsions:
REMARK  status: ('A' for Active; 'I' for Inactive)
REMARK    1  A    between atoms: C_1  and  N_2
REMARK    2  A    between atoms: N_2  and  C_3
REMARK    3  A    between atoms: C_3  and  C_4
REMARK    4  A    between atoms: C_7  and  C_8
REMARK    5  A    between atoms: C_8  and  N_9
REMARK    6  A    between atoms: C_10  and  C_12
REMARK    7  A    between atoms: C_24  and  C_26
REMARK                            x       y       z     vdW  Elec       q    Type
REMARK                         _______ _______ _______ _____ _____    ______ ____
ROOT
ATOM      1  C   UNL     1      45.449   6.750  11.509  0.00  0.00    +0.000 A 
ATOM      2  C   UNL     1      45.044   7.968  12.080  0.00  0.00    +0.000 A 
ATOM      3  C   UNL     1      45.886   8.659  12.952  0.00  0.00    +0.000 A 
ATOM      4  C   UNL     1      47.154   8.150  13.258  0.00  0.00    +0.000 A 
ATOM      5  C   UNL     1      47.551   6.928  12.701  0.00  0.00    +0.000 A 
ATOM      6  C   UNL     1      46.711   6.238  11.825  0.00  0.00    +0.000 A 
ENDROOT
BRANCH   1   7
ATOM      7  C   UNL     1      44.512   5.986  10.612  0.00  0.00    +0.000 C 
BRANCH   7   9
ATOM      8  C   UNL     1      42.857   4.842  12.160  0.00  0.00    +0.000 C 
ATOM      9  N   UNL     1      43.880   4.764  11.121  0.00  0.00    +0.000 N 
ATOM     10  C   UNL     1      43.989   3.512  10.486  0.00  0.00    +0.000 C 
ATOM     11  O   UNL     1      43.275   2.559  10.809  0.00  0.00    +0.000 OA
BRANCH  10  12
ATOM     12  C   UNL     1      44.934   3.279   9.361  0.00  0.00    +0.000 A 
ATOM     13  C   UNL     1      45.465   4.274   8.541  0.00  0.00    +0.000 A 
ATOM     14  C   UNL     1      46.300   3.930   7.479  0.00  0.00    +0.000 A 
ATOM     15  C   UNL     1      46.640   2.599   7.312  0.00  0.00    +0.000 A 
ATOM     16  N   UNL     1      46.209   1.616   8.128  0.00  0.00    +0.000 NA
ATOM     17  C   UNL     1      45.374   1.978   9.137  0.00  0.00    +0.000 A 
ENDBRANCH  10  12
ENDBRANCH   7   9
ENDBRANCH   1   7
BRANCH   4  18
ATOM     18  C   UNL     1      48.049   8.863  14.236  0.00  0.00    +0.000 C 
BRANCH  18  19
ATOM     19  N   UNL     1      48.297   8.026  15.380  0.00  0.00    +0.000 N 
ATOM     20  C   UNL     1      49.527   7.480  15.627  0.00  0.00    +0.000 C 
ATOM     21  O   UNL     1      50.502   7.720  14.920  0.00  0.00    +0.000 OA
ATOM     22  H   UNL     1      47.480   7.644  15.847  0.00  0.00    +0.000 HD
BRANCH  20  23
ATOM     23  C   UNL     1      49.634   6.649  16.833  0.00  0.00    +0.000 A 
ATOM     24  C   UNL     1      50.469   7.048  17.868  0.00  0.00    +0.000 A 
ATOM     25  S   UNL     1      50.419   6.018  19.226  0.00  0.00    +0.000 S 
ATOM     26  C   UNL     1      49.316   4.972  18.460  0.00  0.00    +0.000 A 
ATOM     27  N   UNL     1      48.860   3.858  19.090  0.00  0.00    +0.000 NA
ATOM     28  C   UNL     1      48.051   3.138  18.385  0.00  0.00    +0.000 A 
ATOM     29  N   UNL     1      47.659   3.434  17.106  0.00  0.00    +0.000 N 
ATOM     30  C   UNL     1      48.073   4.562  16.437  0.00  0.00    +0.000 A 
ATOM     31  O   UNL     1      47.676   4.814  15.306  0.00  0.00    +0.000 OA
ATOM     32  C   UNL     1      48.983   5.407  17.188  0.00  0.00    +0.000 A 
ATOM     33  H   UNL     1      47.025   2.828  16.604  0.00  0.00    +0.000 HD
ENDBRANCH  20  23
ENDBRANCH  18  19
ENDBRANCH   4  18
TORSDOF 6
ENDMDL
MODEL 3
REMARK VINA RESULT:    -7.410      3.431      8.687
REMARK INTER + INTRA:         -11.074
REMARK INTER:                  -9.440
REMARK INTRA:                  -1.634
REMARK UNBOUND:                -1.065
REMARK  Name = 
REMARK  7 active torsions:
REMARK  status: ('A' for Active; 'I' for Inactive)
REMARK    1  A    between atoms: C_1  and  N_2
REMARK    2  A    between atoms: N_2  and  C_3
REMARK    3  A    between atoms: C_3  and  C_4
REMARK    4  A    between atoms: C_7  and  C_8
REMARK    5  A    between atoms: C_8  and  N_9
REMARK    6  A    between atoms: C_10  and  C_12
REMARK    7  A    between atoms: C_24  and  C_26
REMARK                            x       y       z     vdW  Elec       q    Type
REMARK                         _______ _______ _______ _____ _____    ______ ____
ROOT
ATOM      1  C   UNL     1      49.155   7.738  16.134  0.00  0.00    +0.000 A 
ATOM      2  C   UNL     1      49.524   6.783  15.172  0.00  0.00    +0.000 A 
ATOM      3  C   UNL     1      48.999   6.836  13.881  0.00  0.00    +0.000 A 
ATOM      4  C   UNL     1      48.106   7.853  13.524  0.00  0.00    +0.000 A 
ATOM      5  C   UNL     1      47.726   8.796  14.488  0.00  0.00    +0.000 A 
ATOM      6  C   UNL     1      48.254   8.747  15.780  0.00  0.00    +0.000 A 
ENDROOT
BRANCH   1   7
ATOM      7  C   UNL     1      49.686   7.641  17.540  0.00  0.00    +0.000 C 
BRANCH   7   9
ATOM      8  C   UNL     1      48.309   8.701  19.390  0.00  0.00    +0.000 C 
ATOM      9  N   UNL     1      48.735   7.517  18.650  0.00  0.00    +0.000 N 
ATOM     10  C   UNL     1      47.976   6.356  18.895  0.00  0.00    +0.000 C 
ATOM     11  O   UNL     1      47.035   6.357  19.692  0.00  0.00    +0.000 OA
BRANCH  10  12
ATOM     12  C   UNL     1      48.233   5.081  18.175  0.00  0.00    +0.000 A 
ATOM     13  C   UNL     1      49.361   4.278  18.342  0.00  0.00    +0.000 A 
ATOM     14  C   UNL     1      49.521   3.130  17.569  0.00  0.00    +0.000 A 
ATOM     15  C   UNL     1      48.506   2.775  16.698  0.00  0.00    +0.000 A 
ATOM     16  N   UNL     1      47.365   3.482  16.561  0.00  0.00    +0.000 NA
ATOM     17  C   UNL     1      47.251   4.612  17.307  0.00  0.00    +0.000 A 
ENDBRANCH  10  12
ENDBRANCH   7   9
ENDBRANCH   1   7
BRANCH   4  18
ATOM     18  C   UNL     1      47.496   7.890  12.148  0.00  0.00    +0.000 C 
BRANCH  18  19
ATOM     19  N   UNL     1      46.830   6.645  11.870  0.00  0.00    +0.000 N 
ATOM     20  C   UNL     1      45.490   6.475  12.084  0.00  0.00    +0.000 C 
ATOM     21  O   UNL     1      44.769   7.391  12.471  0.00  0.00    +0.000 OA
ATOM     22  H   UNL     1      47.424   5.828  11.760  0.00  0.00    +0.000 HD
BRANCH  20  23
ATOM     23  C   UNL     1      44.945   5.152  11.752  0.00  0.00    +0.000 A 
ATOM     24  C   UNL     1      44.275   4.423  12.726  0.00  0.00    +0.000 A 
ATOM     25  S   UNL     1      43.637   2.947  12.159  0.00  0.00    +0.000 S 
ATOM     26  C   UNL     1      44.276   3.205  10.603  0.00  0.00    +0.000 A 
ATOM     27  N   UNL     1      44.093   2.291   9.614  0.00  0.00    +0.000 NA
ATOM     28  C   UNL     1      44.655   2.598   8.491  0.00  0.00    +0.000 A 
ATOM     29  N   UNL     1      45.384   3.737   8.272  0.00  0.00    +0.000 N 
ATOM     30  C   UNL     1      45.576   4.701   9.233  0.00  0.00    +0.000 A 
ATOM     31  O   UNL     1      46.204   5.724   8.992  0.00  0.00    +0.000 OA
ATOM     32  C   UNL     1      44.961   4.405  10.514  0.00  0.00    +0.000 A 
ATOM     33  H   UNL     1      45.803   3.919   7.370  0.00  0.00    +0.000 HD
ENDBRANCH  20  23
ENDBRANCH  18  19
ENDBRANCH   4  18
TORSDOF 6
ENDMDL
MODEL 4
REMARK VINA RESULT:    -7.388      3.105      3.752
REMARK INTER + INTRA:         -11.044
REMARK INTER:                  -9.887
REMARK INTRA:                  -1.157
REMARK UNBOUND:                -1.065
REMARK  Name = 
REMARK  7 active torsions:
REMARK  status: ('A' for Active; 'I' for Inactive)
REMARK    1  A    between atoms: C_1  and  N_2
REMARK    2  A    between atoms: N_2  and  C_3
REMARK    3  A    between atoms: C_3  and  C_4
REMARK    4  A    between atoms: C_7  and  C_8
REMARK    5  A    between atoms: C_8  and  N_9
REMARK    6  A    between atoms: C_10  and  C_12
REMARK    7  A    between atoms: C_24  and  C_26
REMARK                            x       y       z     vdW  Elec       q    Type
REMARK                         _______ _______ _______ _____ _____    ______ ____
ROOT
ATOM      1  C   UNL     1      46.386   4.545  13.251  0.00  0.00    +0.000 A 
ATOM      2  C   UNL     1      46.788   5.748  12.645  0.00  0.00    +0.000 A 
ATOM      3  C   UNL     1      47.633   6.632  13.316  0.00  0.00    +0.000 A 
ATOM      4  C   UNL     1      48.102   6.323  14.598  0.00  0.00    +0.000 A 
ATOM      5  C   UNL     1      47.688   5.132  15.207  0.00  0.00    +0.000 A 
ATOM      6  C   UNL     1      46.845   4.244  14.536  0.00  0.00    +0.000 A 
ENDROOT
BRANCH   1   7
ATOM      7  C   UNL     1      45.430   3.623  12.541  0.00  0.00    +0.000 C 
BRANCH   7   9
ATOM      8  C   UNL     1      43.234   4.831  12.945  0.00  0.00    +0.000 C 
ATOM      9  N   UNL     1      44.163   4.164  12.037  0.00  0.00    +0.000 N 
ATOM     10  C   UNL     1      43.882   4.335  10.668  0.00  0.00    +0.000 C 
ATOM     11  O   UNL     1      42.909   4.988  10.284  0.00  0.00    +0.000 OA
BRANCH  10  12
ATOM     12  C   UNL     1      44.765   3.778   9.608  0.00  0.00    +0.000 A 
ATOM     13  C   UNL     1      44.929   2.422   9.330  0.00  0.00    +0.000 A 
ATOM     14  C   UNL     1      45.829   2.014   8.347  0.00  0.00    +0.000 A 
ATOM     15  C   UNL     1      46.490   2.985   7.616  0.00  0.00    +0.000 A 
ATOM     16  N   UNL     1      46.304   4.308   7.801  0.00  0.00    +0.000 NA
ATOM     17  C   UNL     1      45.442   4.674   8.786  0.00  0.00    +0.000 A 
ENDBRANCH  10  12
ENDBRANCH   7   9
ENDBRANCH   1   7
BRANCH   4  18
ATOM     18  C   UNL     1      48.975   7.294  15.349  0.00  0.00    +0.000 C 
BRANCH  18  19
ATOM     19  N   UNL     1      48.539   7.394  16.717  0.00  0.00    +0.000 N 
ATOM     20  C   UNL     1      49.325   7.948  17.689  0.00  0.00    +0.000 C 
ATOM     21  O   UNL     1      50.421   8.446  17.440  0.00  0.00    +0.000 OA
ATOM     22  H   UNL     1      47.752   6.810  16.986  0.00  0.00    +0.000 HD
BRANCH  20  23
ATOM     23  C   UNL     1      48.750   7.986  19.041  0.00  0.00    +0.000 A 
ATOM     24  C   UNL     1      48.468   9.212  19.631  0.00  0.00    +0.000 A 
ATOM     25  S   UNL     1      47.732   9.081  21.163  0.00  0.00    +0.000 S 
ATOM     26  C   UNL     1      47.810   7.381  21.116  0.00  0.00    +0.000 A 
ATOM     27  N   UNL     1      47.344   6.633  22.151  0.00  0.00    +0.000 NA
ATOM     28  C   UNL     1      47.491   5.358  21.998  0.00  0.00    +0.000 A 
ATOM     29  N   UNL     1      48.064   4.766  20.903  0.00  0.00    +0.000 N 
ATOM     30  C   UNL     1      48.527   5.479  19.822  0.00  0.00    +0.000 A 
ATOM     31  O   UNL     1      49.003   4.916  18.844  0.00  0.00    +0.000 OA
ATOM     32  C   UNL     1      48.383   6.918  19.943  0.00  0.00    +0.000 A 
ATOM     33  H   UNL     1      48.154   3.762  20.844  0.00  0.00    +0.000 HD
ENDBRANCH  20  23
ENDBRANCH  18  19
ENDBRANCH   4  18
TORSDOF 6
ENDMDL
MODEL 5
REMARK VINA RESULT:    -7.085      2.748      4.018
REMARK INTER + INTRA:         -10.634
REMARK INTER:                 -10.098
REMARK INTRA:                  -0.536
REMARK UNBOUND:                -1.065
REMARK  Name = 
REMARK  7 active torsions:
REMARK  status: ('A' for Active; 'I' for Inactive)
REMARK    1  A    between atoms: C_1  and  N_2
REMARK    2  A    between atoms: N_2  and  C_3
REMARK    3  A    between atoms: C_3  and  C_4
REMARK    4  A    between atoms: C_7  and  C_8
REMARK    5  A    between atoms: C_8  and  N_9
REMARK    6  A    between atoms: C_10  and  C_12
REMARK    7  A    between atoms: C_24  and  C_26
REMARK                            x       y       z     vdW  Elec       q    Type
REMARK                         _______ _______ _______ _____ _____    ______ ____
ROOT
ATOM      1  C   UNL     1      46.357   6.213  11.946  0.00  0.00    +0.000 A 
ATOM      2  C   UNL     1      47.164   7.344  11.741  0.00  0.00    +0.000 A 
ATOM      3  C   UNL     1      48.198   7.649  12.627  0.00  0.00    +0.000 A 
ATOM      4  C   UNL     1      48.451   6.820  13.727  0.00  0.00    +0.000 A 
ATOM      5  C   UNL     1      47.635   5.701  13.939  0.00  0.00    +0.000 A 
ATOM      6  C   UNL     1      46.604   5.393  13.051  0.00  0.00    +0.000 A 
ENDROOT
BRANCH   1   7
ATOM      7  C   UNL     1      45.210   5.922  11.014  0.00  0.00    +0.000 C 
BRANCH   7   9
ATOM      8  C   UNL     1      43.253   5.110  12.412  0.00  0.00    +0.000 C 
ATOM      9  N   UNL     1      44.252   4.871  11.373  0.00  0.00    +0.000 N 
ATOM     10  C   UNL     1      44.038   3.718  10.595  0.00  0.00    +0.000 C 
ATOM     11  O   UNL     1      43.081   2.968  10.801  0.00  0.00    +0.000 OA
BRANCH  10  12
ATOM     12  C   UNL     1      44.923   3.364   9.453  0.00  0.00    +0.000 A 
ATOM     13  C   UNL     1      45.456   4.272   8.539  0.00  0.00    +0.000 A 
ATOM     14  C   UNL     1      46.229   3.816   7.473  0.00  0.00    +0.000 A 
ATOM     15  C   UNL     1      46.510   2.464   7.394  0.00  0.00    +0.000 A 
ATOM     16  N   UNL     1      46.078   1.562   8.298  0.00  0.00    +0.000 NA
ATOM     17  C   UNL     1      45.302   2.032   9.310  0.00  0.00    +0.000 A 
ENDBRANCH  10  12
ENDBRANCH   7   9
ENDBRANCH   1   7
BRANCH   4  18
ATOM     18  C   UNL     1      49.531   7.168  14.715  0.00  0.00    +0.000 C 
BRANCH  18  19
ATOM     19  N   UNL     1      49.101   6.850  16.051  0.00  0.00    +0.000 N 
ATOM     20  C   UNL     1      49.873   6.112  16.906  0.00  0.00    +0.000 C 
ATOM     21  O   UNL     1      51.001   5.730  16.603  0.00  0.00    +0.000 OA
ATOM     22  H   UNL     1      48.110   6.962  16.247  0.00  0.00    +0.000 HD
BRANCH  20  23
ATOM     23  C   UNL     1      49.307   5.867  18.239  0.00  0.00    +0.000 A 
ATOM     24  C   UNL     1      49.370   4.591  18.785  0.00  0.00    +0.000 A 
ATOM     25  S   UNL     1      48.742   4.492  20.367  0.00  0.00    +0.000 S 
ATOM     26  C   UNL     1      48.317   6.140  20.361  0.00  0.00    +0.000 A 
ATOM     27  N   UNL     1      47.715   6.709  21.438  0.00  0.00    +0.000 NA
ATOM     28  C   UNL     1      47.421   7.959  21.289  0.00  0.00    +0.000 A 
ATOM     29  N   UNL     1      47.674   8.688  20.157  0.00  0.00    +0.000 N 
ATOM     30  C   UNL     1      48.302   8.163  19.052  0.00  0.00    +0.000 A 
ATOM     31  O   UNL     1      48.544   8.853  18.070  0.00  0.00    +0.000 OA
ATOM     32  C   UNL     1      48.657   6.761  19.171  0.00  0.00    +0.000 A 
ATOM     33  H   UNL     1      47.416   9.663  20.100  0.00  0.00    +0.000 HD
ENDBRANCH  20  23
ENDBRANCH  18  19
ENDBRANCH   4  18
TORSDOF 6
ENDMDL
MODEL 6
REMARK VINA RESULT:    -6.947      3.424      8.527
REMARK INTER + INTRA:         -10.448
REMARK INTER:                  -9.327
REMARK INTRA:                  -1.122
REMARK UNBOUND:                -1.065
REMARK  Name = 
REMARK  7 active torsions:
REMARK  status: ('A' for Active; 'I' for Inactive)
REMARK    1  A    between atoms: C_1  and  N_2
REMARK    2  A    between atoms: N_2  and  C_3
REMARK    3  A    between atoms: C_3  and  C_4
REMARK    4  A    between atoms: C_7  and  C_8
REMARK    5  A    between atoms: C_8  and  N_9
REMARK    6  A    between atoms: C_10  and  C_12
REMARK    7  A    between atoms: C_24  and  C_26
REMARK                            x       y       z     vdW  Elec       q    Type
REMARK                         _______ _______ _______ _____ _____    ______ ____
ROOT
ATOM      1  C   UNL     1      49.043   7.615  16.146  0.00  0.00    +0.000 A 
ATOM      2  C   UNL     1      48.906   8.920  15.644  0.00  0.00    +0.000 A 
ATOM      3  C   UNL     1      48.594   9.136  14.302  0.00  0.00    +0.000 A 
ATOM      4  C   UNL     1      48.399   8.050  13.440  0.00  0.00    +0.000 A 
ATOM      5  C   UNL     1      48.551   6.749  13.937  0.00  0.00    +0.000 A 
ATOM      6  C   UNL     1      48.860   6.532  15.281  0.00  0.00    +0.000 A 
ENDROOT
BRANCH   1   7
ATOM      7  C   UNL     1      49.433   7.393  17.583  0.00  0.00    +0.000 C 
BRANCH   7   9
ATOM      8  C   UNL     1      47.698   8.238  19.232  0.00  0.00    +0.000 C 
ATOM      9  N   UNL     1      48.382   7.130  18.572  0.00  0.00    +0.000 N 
ATOM     10  C   UNL     1      47.778   5.870  18.745  0.00  0.00    +0.000 C 
ATOM     11  O   UNL     1      46.757   5.731  19.422  0.00  0.00    +0.000 OA
BRANCH  10  12
ATOM     12  C   UNL     1      48.308   4.646  18.086  0.00  0.00    +0.000 A 
ATOM     13  C   UNL     1      47.594   3.837  17.203  0.00  0.00    +0.000 A 
ATOM     14  C   UNL     1      48.177   2.680  16.689  0.00  0.00    +0.000 A 
ATOM     15  C   UNL     1      49.493   2.405  17.018  0.00  0.00    +0.000 A 
ATOM     16  N   UNL     1      50.243   3.200  17.807  0.00  0.00    +0.000 NA
ATOM     17  C   UNL     1      49.638   4.305  18.316  0.00  0.00    +0.000 A 
ENDBRANCH  10  12
ENDBRANCH   7   9
ENDBRANCH   1   7
BRANCH   4  18
ATOM     18  C   UNL     1      48.111   8.274  11.979  0.00  0.00    +0.000 C 
BRANCH  18  19
ATOM     19  N   UNL     1      47.445   7.125  11.426  0.00  0.00    +0.000 N 
ATOM     20  C   UNL     1      46.081   7.031  11.376  0.00  0.00    +0.000 C 
ATOM     21  O   UNL     1      45.349   7.945  11.747  0.00  0.00    +0.000 OA
ATOM     22  H   UNL     1      48.006   6.285  11.316  0.00  0.00    +0.000 HD
BRANCH  20  23
ATOM     23  C   UNL     1      45.540   5.801  10.781  0.00  0.00    +0.000 A 
ATOM     24  C   UNL     1      45.772   5.531   9.439  0.00  0.00    +0.000 A 
ATOM     25  S   UNL     1      45.147   4.030   8.925  0.00  0.00    +0.000 S 
ATOM     26  C   UNL     1      44.499   3.710  10.465  0.00  0.00    +0.000 A 
ATOM     27  N   UNL     1      43.813   2.562  10.708  0.00  0.00    +0.000 NA
ATOM     28  C   UNL     1      43.351   2.459  11.911  0.00  0.00    +0.000 A 
ATOM     29  N   UNL     1      43.514   3.403  12.891  0.00  0.00    +0.000 N 
ATOM     30  C   UNL     1      44.220   4.567  12.700  0.00  0.00    +0.000 A 
ATOM     31  O   UNL     1      44.375   5.374  13.608  0.00  0.00    +0.000 OA
ATOM     32  C   UNL     1      44.763   4.730  11.364  0.00  0.00    +0.000 A 
ATOM     33  H   UNL     1      43.125   3.265  13.813  0.00  0.00    +0.000 HD
ENDBRANCH  20  23
ENDBRANCH  18  19
ENDBRANCH   4  18
TORSDOF 6
ENDMDL
MODEL 7
REMARK VINA RESULT:    -6.862      1.866      2.699
REMARK INTER + INTRA:         -10.334
REMARK INTER:                  -9.054
REMARK INTRA:                  -1.280
REMARK UNBOUND:                -1.065
REMARK  Name = 
REMARK  7 active torsions:
REMARK  status: ('A' for Active; 'I' for Inactive)
REMARK    1  A    between atoms: C_1  and  N_2
REMARK    2  A    between atoms: N_2  and  C_3
REMARK    3  A    between atoms: C_3  and  C_4
REMARK    4  A    between atoms: C_7  and  C_8
REMARK    5  A    between atoms: C_8  and  N_9
REMARK    6  A    between atoms: C_10  and  C_12
REMARK    7  A    between atoms: C_24  and  C_26
REMARK                            x       y       z     vdW  Elec       q    Type
REMARK                         _______ _______ _______ _____ _____    ______ ____
ROOT
ATOM      1  C   UNL     1      47.551   6.051  13.594  0.00  0.00    +0.000 A 
ATOM      2  C   UNL     1      48.440   6.858  14.323  0.00  0.00    +0.000 A 
ATOM      3  C   UNL     1      48.812   6.511  15.622  0.00  0.00    +0.000 A 
ATOM      4  C   UNL     1      48.312   5.344  16.211  0.00  0.00    +0.000 A 
ATOM      5  C   UNL     1      47.413   4.548  15.489  0.00  0.00    +0.000 A 
ATOM      6  C   UNL     1      47.043   4.891  14.187  0.00  0.00    +0.000 A 
ENDROOT
BRANCH   1   7
ATOM      7  C   UNL     1      47.114   6.462  12.213  0.00  0.00    +0.000 C 
BRANCH   7   9
ATOM      8  C   UNL     1      46.326   8.865  11.993  0.00  0.00    +0.000 C 
ATOM      9  N   UNL     1      46.028   7.437  12.073  0.00  0.00    +0.000 N 
ATOM     10  C   UNL     1      44.708   7.085  11.731  0.00  0.00    +0.000 C 
ATOM     11  O   UNL     1      43.875   7.935  11.408  0.00  0.00    +0.000 OA
BRANCH  10  12
ATOM     12  C   UNL     1      44.256   5.669  11.695  0.00  0.00    +0.000 A 
ATOM     13  C   UNL     1      43.773   4.952  12.789  0.00  0.00    +0.000 A 
ATOM     14  C   UNL     1      43.430   3.608  12.647  0.00  0.00    +0.000 A 
ATOM     15  C   UNL     1      43.511   3.038  11.389  0.00  0.00    +0.000 A 
ATOM     16  N   UNL     1      43.900   3.715  10.290  0.00  0.00    +0.000 NA
ATOM     17  C   UNL     1      44.255   5.015  10.466  0.00  0.00    +0.000 A 
ENDBRANCH  10  12
ENDBRANCH   7   9
ENDBRANCH   1   7
BRANCH   4  18
ATOM     18  C   UNL     1      48.668   4.987  17.629  0.00  0.00    +0.000 C 
BRANCH  18  19
ATOM     19  N   UNL     1      49.989   4.420  17.679  0.00  0.00    +0.000 N 
ATOM     20  C   UNL     1      50.741   4.431  18.822  0.00  0.00    +0.000 C 
ATOM     21  O   UNL     1      50.308   4.873  19.884  0.00  0.00    +0.000 OA
ATOM     22  H   UNL     1      50.444   4.250  16.787  0.00  0.00    +0.000 HD
BRANCH  20  23
ATOM     23  C   UNL     1      52.070   3.814  18.727  0.00  0.00    +0.000 A 
ATOM     24  C   UNL     1      53.176   4.487  19.231  0.00  0.00    +0.000 A 
ATOM     25  S   UNL     1      54.628   3.602  19.115  0.00  0.00    +0.000 S 
ATOM     26  C   UNL     1      53.841   2.306  18.342  0.00  0.00    +0.000 A 
ATOM     27  N   UNL     1      54.532   1.202  17.956  0.00  0.00    +0.000 NA
ATOM     28  C   UNL     1      53.818   0.307  17.354  0.00  0.00    +0.000 A 
ATOM     29  N   UNL     1      52.476   0.421  17.105  0.00  0.00    +0.000 N 
ATOM     30  C   UNL     1      51.730   1.508  17.497  0.00  0.00    +0.000 A 
ATOM     31  O   UNL     1      50.525   1.562  17.288  0.00  0.00    +0.000 OA
ATOM     32  C   UNL     1      52.486   2.541  18.180  0.00  0.00    +0.000 A 
ATOM     33  H   UNL     1      51.973  -0.313  16.626  0.00  0.00    +0.000 HD
ENDBRANCH  20  23
ENDBRANCH  18  19
ENDBRANCH   4  18
TORSDOF 6
ENDMDL
MODEL 8
REMARK VINA RESULT:    -6.499      5.682      8.905
REMARK INTER + INTRA:          -9.843
REMARK INTER:                  -9.118
REMARK INTRA:                  -0.725
REMARK UNBOUND:                -1.065
REMARK  Name = 
REMARK  7 active torsions:
REMARK  status: ('A' for Active; 'I' for Inactive)
REMARK    1  A    between atoms: C_1  and  N_2
REMARK    2  A    between atoms: N_2  and  C_3
REMARK    3  A    between atoms: C_3  and  C_4
REMARK    4  A    between atoms: C_7  and  C_8
REMARK    5  A    between atoms: C_8  and  N_9
REMARK    6  A    between atoms: C_10  and  C_12
REMARK    7  A    between atoms: C_24  and  C_26
REMARK                            x       y       z     vdW  Elec       q    Type
REMARK                         _______ _______ _______ _____ _____    ______ ____
ROOT
ATOM      1  C   UNL     1      50.394   8.921  11.458  0.00  0.00    +0.000 A 
ATOM      2  C   UNL     1      49.635  10.015  11.906  0.00  0.00    +0.000 A 
ATOM      3  C   UNL     1      48.360   9.824  12.438  0.00  0.00    +0.000 A 
ATOM      4  C   UNL     1      47.826   8.534  12.545  0.00  0.00    +0.000 A 
ATOM      5  C   UNL     1      48.577   7.445  12.083  0.00  0.00    +0.000 A 
ATOM      6  C   UNL     1      49.855   7.634  11.554  0.00  0.00    +0.000 A 
ENDROOT
BRANCH   1   7
ATOM      7  C   UNL     1      51.747   9.142  10.835  0.00  0.00    +0.000 C 
BRANCH   7   9
ATOM      8  C   UNL     1      53.215   8.853  12.885  0.00  0.00    +0.000 C 
ATOM      9  N   UNL     1      52.930   8.565  11.482  0.00  0.00    +0.000 N 
ATOM     10  C   UNL     1      53.686   7.517  10.924  0.00  0.00    +0.000 C 
ATOM     11  O   UNL     1      54.534   6.910  11.583  0.00  0.00    +0.000 OA
BRANCH  10  12
ATOM     12  C   UNL     1      53.475   7.051   9.528  0.00  0.00    +0.000 A 
ATOM     13  C   UNL     1      53.110   7.865   8.456  0.00  0.00    +0.000 A 
ATOM     14  C   UNL     1      52.885   7.306   7.200  0.00  0.00    +0.000 A 
ATOM     15  C   UNL     1      53.105   5.950   7.034  0.00  0.00    +0.000 A 
ATOM     16  N   UNL     1      53.531   5.140   8.024  0.00  0.00    +0.000 NA
ATOM     17  C   UNL     1      53.714   5.709   9.245  0.00  0.00    +0.000 A 
ENDBRANCH  10  12
ENDBRANCH   7   9
ENDBRANCH   1   7
BRANCH   4  18
ATOM     18  C   UNL     1      46.432   8.323  13.072  0.00  0.00    +0.000 C 
BRANCH  18  19
ATOM     19  N   UNL     1      45.983   6.992  12.763  0.00  0.00    +0.000 N 
ATOM     20  C   UNL     1      44.997   6.754  11.845  0.00  0.00    +0.000 C 
ATOM     21  O   UNL     1      44.481   7.657  11.191  0.00  0.00    +0.000 OA
ATOM     22  H   UNL     1      46.230   6.264  13.427  0.00  0.00    +0.000 HD
BRANCH  20  23
ATOM     23  C   UNL     1      44.642   5.345  11.629  0.00  0.00    +0.000 A 
ATOM     24  C   UNL     1      43.967   4.648  12.623  0.00  0.00    +0.000 A 
ATOM     25  S   UNL     1      43.560   3.052  12.185  0.00  0.00    +0.000 S 
ATOM     26  C   UNL     1      44.316   3.217  10.669  0.00  0.00    +0.000 A 
ATOM     27  N   UNL     1      44.337   2.185   9.785  0.00  0.00    +0.000 NA
ATOM     28  C   UNL     1      44.968   2.435   8.685  0.00  0.00    +0.000 A 
ATOM     29  N   UNL     1      45.581   3.626   8.393  0.00  0.00    +0.000 N 
ATOM     30  C   UNL     1      45.565   4.705   9.244  0.00  0.00    +0.000 A 
ATOM     31  O   UNL     1      46.093   5.766   8.937  0.00  0.00    +0.000 OA
ATOM     32  C   UNL     1      44.865   4.476  10.495  0.00  0.00    +0.000 A 
ATOM     33  H   UNL     1      46.062   3.759   7.515  0.00  0.00    +0.000 HD
ENDBRANCH  20  23
ENDBRANCH  18  19
ENDBRANCH   4  18
TORSDOF 6
ENDMDL
MODEL 9
REMARK VINA RESULT:    -6.346      4.906      6.733
REMARK INTER + INTRA:          -9.636
REMARK INTER:                  -8.295
REMARK INTRA:                  -1.341
REMARK UNBOUND:                -1.065
REMARK  Name = 
REMARK  7 active torsions:
REMARK  status: ('A' for Active; 'I' for Inactive)
REMARK    1  A    between atoms: C_1  and  N_2
REMARK    2  A    between atoms: N_2  and  C_3
REMARK    3  A    between atoms: C_3  and  C_4
REMARK    4  A    between atoms: C_7  and  C_8
REMARK    5  A    between atoms: C_8  and  N_9
REMARK    6  A    between atoms: C_10  and  C_12
REMARK    7  A    between atoms: C_24  and  C_26
REMARK                            x       y       z     vdW  Elec       q    Type
REMARK                         _______ _______ _______ _____ _____    ______ ____
ROOT
ATOM      1  C   UNL     1      44.741   9.690  11.721  0.00  0.00    +0.000 A 
ATOM      2  C   UNL     1      45.778   9.411  12.628  0.00  0.00    +0.000 A 
ATOM      3  C   UNL     1      46.124   8.093  12.928  0.00  0.00    +0.000 A 
ATOM      4  C   UNL     1      45.448   7.030  12.316  0.00  0.00    +0.000 A 
ATOM      5  C   UNL     1      44.404   7.309  11.424  0.00  0.00    +0.000 A 
ATOM      6  C   UNL     1      44.060   8.627  11.120  0.00  0.00    +0.000 A 
ENDROOT
BRANCH   1   7
ATOM      7  C   UNL     1      44.339  11.115  11.446  0.00  0.00    +0.000 C 
BRANCH   7   9
ATOM      8  C   UNL     1      45.131  11.593   9.082  0.00  0.00    +0.000 C 
ATOM      9  N   UNL     1      44.054  11.517  10.065  0.00  0.00    +0.000 N 
ATOM     10  C   UNL     1      42.753  11.580   9.528  0.00  0.00    +0.000 C 
ATOM     11  O   UNL     1      42.560  11.706   8.316  0.00  0.00    +0.000 OA
BRANCH  10  12
ATOM     12  C   UNL     1      41.542  11.450  10.382  0.00  0.00    +0.000 A 
ATOM     13  C   UNL     1      40.907  10.249  10.696  0.00  0.00    +0.000 A 
ATOM     14  C   UNL     1      39.743  10.255  11.462  0.00  0.00    +0.000 A 
ATOM     15  C   UNL     1      39.286  11.465  11.956  0.00  0.00    +0.000 A 
ATOM     16  N   UNL     1      39.913  12.639  11.740  0.00  0.00    +0.000 NA
ATOM     17  C   UNL     1      41.029  12.605  10.965  0.00  0.00    +0.000 A 
ENDBRANCH  10  12
ENDBRANCH   7   9
ENDBRANCH   1   7
BRANCH   4  18
ATOM     18  C   UNL     1      45.781   5.606  12.670  0.00  0.00    +0.000 C 
BRANCH  18  19
ATOM     19  N   UNL     1      46.382   5.549  13.976  0.00  0.00    +0.000 N 
ATOM     20  C   UNL     1      47.086   4.457  14.404  0.00  0.00    +0.000 C 
ATOM     21  O   UNL     1      47.295   3.488  13.678  0.00  0.00    +0.000 OA
ATOM     22  H   UNL     1      46.051   6.225  14.658  0.00  0.00    +0.000 HD
BRANCH  20  23
ATOM     23  C   UNL     1      47.647   4.540  15.759  0.00  0.00    +0.000 A 
ATOM     24  C   UNL     1      47.320   3.568  16.696  0.00  0.00    +0.000 A 
ATOM     25  S   UNL     1      48.115   3.764  18.192  0.00  0.00    +0.000 S 
ATOM     26  C   UNL     1      48.886   5.184  17.658  0.00  0.00    +0.000 A 
ATOM     27  N   UNL     1      49.723   5.873  18.478  0.00  0.00    +0.000 NA
ATOM     28  C   UNL     1      50.218   6.947  17.957  0.00  0.00    +0.000 A 
ATOM     29  N   UNL     1      49.949   7.393  16.689  0.00  0.00    +0.000 N 
ATOM     30  C   UNL     1      49.130   6.718  15.816  0.00  0.00    +0.000 A 
ATOM     31  O   UNL     1      48.938   7.127  14.678  0.00  0.00    +0.000 OA
ATOM     32  C   UNL     1      48.549   5.501  16.353  0.00  0.00    +0.000 A 
ATOM     33  H   UNL     1      50.366   8.244  16.340  0.00  0.00    +0.000 HD
ENDBRANCH  20  23
ENDBRANCH  18  19
ENDBRANCH   4  18
TORSDOF 6
ENDMDL
