MODEL 1
REMARK VINA RESULT:    -7.049      0.000      0.000
REMARK INTER + INTRA:         -10.104
REMARK INTER:                  -9.110
REMARK INTRA:                  -0.994
REMARK UNBOUND:                -0.994
REMARK  Name = 
REMARK  6 active torsions:
REMARK  status: ('A' for Active; 'I' for Inactive)
REMARK    1  A    between atoms: C_1  and  C_2
REMARK    2  A    between atoms: C_2  and  N_3
REMARK    3  A    between atoms: C_2  and  C_24
REMARK    4  A    between atoms: C_7  and  C_8
REMARK    5  A    between atoms: C_8  and  N_9
REMARK    6  A    between atoms: C_10  and  C_12
REMARK                            x       y       z     vdW  Elec       q    Type
REMARK                         _______ _______ _______ _____ _____    ______ ____
ROOT
ATOM      1  N   UNL     1      45.387   5.342  12.018  0.00  0.00    +0.000 N 
ATOM      2  C   UNL     1      46.184   5.252  13.156  0.00  0.00    +0.000 A 
ATOM      3  C   UNL     1      47.226   6.171  13.320  0.00  0.00    +0.000 A 
ATOM      4  N   UNL     1      48.067   6.201  14.385  0.00  0.00    +0.000 NA
ATOM      5  C   UNL     1      47.840   5.256  15.328  0.00  0.00    +0.000 A 
ATOM      6  C   UNL     1      46.819   4.322  15.166  0.00  0.00    +0.000 A 
ATOM      7  N   UNL     1      45.981   4.302  14.089  0.00  0.00    +0.000 NA
ATOM      8  H   UNL     1      44.899   6.229  11.970  0.00  0.00    +0.000 HD
ENDROOT
BRANCH   1  10
ATOM      9  C   UNL     1      43.106   4.485  11.598  0.00  0.00    +0.000 C 
ATOM     10  C   UNL     1      44.607   4.189  11.584  0.00  0.00    +0.000 C 
BRANCH  10  11
ATOM     11  C   UNL     1      45.080   3.841  10.183  0.00  0.00    +0.000 A 
ATOM     12  C   UNL     1      45.086   2.527   9.689  0.00  0.00    +0.000 A 
ATOM     13  C   UNL     1      45.463   2.277   8.373  0.00  0.00    +0.000 A 
ATOM     14  C   UNL     1      45.840   3.352   7.587  0.00  0.00    +0.000 A 
ATOM     15  N   UNL     1      45.868   4.628   8.025  0.00  0.00    +0.000 NA
ATOM     16  C   UNL     1      45.483   4.844   9.304  0.00  0.00    +0.000 A 
ENDBRANCH  10  11
ENDBRANCH   1  10
BRANCH   5  17
ATOM     17  C   UNL     1      48.717   5.263  16.555  0.00  0.00    +0.000 C 
BRANCH  17  18
ATOM     18  N   UNL     1      48.562   6.455  17.366  0.00  0.00    +0.000 N 
ATOM     19  C   UNL     1      47.691   6.501  18.418  0.00  0.00    +0.000 C 
ATOM     20  O   UNL     1      47.006   5.530  18.729  0.00  0.00    +0.000 OA
ATOM     21  H   UNL     1      49.085   7.280  17.086  0.00  0.00    +0.000 HD
BRANCH  19  22
ATOM     22  C   UNL     1      47.649   7.747  19.193  0.00  0.00    +0.000 A 
ATOM     23  C   UNL     1      47.521   7.682  20.575  0.00  0.00    +0.000 A 
ATOM     24  S   UNL     1      47.487   9.207  21.333  0.00  0.00    +0.000 S 
ATOM     25  C   UNL     1      47.590  10.011  19.840  0.00  0.00    +0.000 A 
ATOM     26  N   UNL     1      47.573  11.371  19.779  0.00  0.00    +0.000 NA
ATOM     27  C   UNL     1      47.625  11.851  18.581  0.00  0.00    +0.000 A 
ATOM     28  N   UNL     1      47.710  11.097  17.440  0.00  0.00    +0.000 N 
ATOM     29  C   UNL     1      47.789   9.719  17.456  0.00  0.00    +0.000 A 
ATOM     30  O   UNL     1      47.955   9.077  16.426  0.00  0.00    +0.000 OA
ATOM     31  C   UNL     1      47.690   9.128  18.778  0.00  0.00    +0.000 A 
ATOM     32  H   UNL     1      47.774  11.537  16.535  0.00  0.00    +0.000 HD
ENDBRANCH  19  22
ENDBRANCH  17  18
ENDBRANCH   5  17
TORSDOF 5
ENDMDL
MODEL 2
REMARK VINA RESULT:    -7.036      2.198      3.381
REMARK INTER + INTRA:         -10.087
REMARK INTER:                  -9.452
REMARK INTRA:                  -0.635
REMARK UNBOUND:                -0.994
REMARK  Name = 
REMARK  6 active torsions:
REMARK  status: ('A' for Active; 'I' for Inactive)
REMARK    1  A    between atoms: C_1  and  C_2
REMARK    2  A    between atoms: C_2  and  N_3
REMARK    3  A    between atoms: C_2  and  C_24
REMARK    4  A    between atoms: C_7  and  C_8
REMARK    5  A    between atoms: C_8  and  N_9
REMARK    6  A    between atoms: C_10  and  C_12
REMARK                            x       y       z     vdW  Elec       q    Type
REMARK                         _______ _______ _______ _____ _____    ______ ____
ROOT
ATOM      1  N   UNL     1      44.441   4.944  11.781  0.00  0.00    +0.000 N 
ATOM      2  C   UNL     1      45.481   5.626  12.407  0.00  0.00    +0.000 A 
ATOM      3  C   UNL     1      45.512   7.022  12.327  0.00  0.00    +0.000 A 
ATOM      4  N   UNL     1      46.460   7.806  12.900  0.00  0.00    +0.000 NA
ATOM      5  C   UNL     1      47.419   7.143  13.589  0.00  0.00    +0.000 A 
ATOM      6  C   UNL     1      47.410   5.752  13.659  0.00  0.00    +0.000 A 
ATOM      7  N   UNL     1      46.452   4.975  13.076  0.00  0.00    +0.000 NA
ATOM      8  H   UNL     1      43.538   5.201  12.163  0.00  0.00    +0.000 HD
ENDROOT
BRANCH   1  10
ATOM      9  C   UNL     1      43.268   2.773  11.612  0.00  0.00    +0.000 C 
ATOM     10  C   UNL     1      44.590   3.529  11.458  0.00  0.00    +0.000 C 
BRANCH  10  11
ATOM     11  C   UNL     1      45.094   3.457  10.027  0.00  0.00    +0.000 A 
ATOM     12  C   UNL     1      45.286   2.241   9.352  0.00  0.00    +0.000 A 
ATOM     13  C   UNL     1      45.682   2.238   8.018  0.00  0.00    +0.000 A 
ATOM     14  C   UNL     1      45.890   3.456   7.396  0.00  0.00    +0.000 A 
ATOM     15  N   UNL     1      45.736   4.648   8.010  0.00  0.00    +0.000 NA
ATOM     16  C   UNL     1      45.337   4.622   9.303  0.00  0.00    +0.000 A 
ENDBRANCH  10  11
ENDBRANCH   1  10
BRANCH   5  17
ATOM     17  C   UNL     1      48.479   7.962  14.282  0.00  0.00    +0.000 C 
BRANCH  17  18
ATOM     18  N   UNL     1      48.437   7.852  15.727  0.00  0.00    +0.000 N 
ATOM     19  C   UNL     1      49.327   7.076  16.416  0.00  0.00    +0.000 C 
ATOM     20  O   UNL     1      50.208   6.444  15.840  0.00  0.00    +0.000 OA
ATOM     21  H   UNL     1      47.681   8.330  16.209  0.00  0.00    +0.000 HD
BRANCH  19  22
ATOM     22  C   UNL     1      49.215   7.074  17.879  0.00  0.00    +0.000 A 
ATOM     23  C   UNL     1      49.400   8.263  18.575  0.00  0.00    +0.000 A 
ATOM     24  S   UNL     1      49.239   8.102  20.263  0.00  0.00    +0.000 S 
ATOM     25  C   UNL     1      48.967   6.430  20.131  0.00  0.00    +0.000 A 
ATOM     26  N   UNL     1      48.785   5.665  21.242  0.00  0.00    +0.000 NA
ATOM     27  C   UNL     1      48.621   4.407  21.002  0.00  0.00    +0.000 A 
ATOM     28  N   UNL     1      48.606   3.846  19.751  0.00  0.00    +0.000 N 
ATOM     29  C   UNL     1      48.729   4.589  18.594  0.00  0.00    +0.000 A 
ATOM     30  O   UNL     1      48.622   4.072  17.489  0.00  0.00    +0.000 OA
ATOM     31  C   UNL     1      48.960   6.005  18.814  0.00  0.00    +0.000 A 
ATOM     32  H   UNL     1      48.447   2.857  19.631  0.00  0.00    +0.000 HD
ENDBRANCH  19  22
ENDBRANCH  17  18
ENDBRANCH   5  17
TORSDOF 5
ENDMDL
MODEL 3
REMARK VINA RESULT:    -6.991      3.366      5.204
REMARK INTER + INTRA:         -10.029
REMARK INTER:                  -9.060
REMARK INTRA:                  -0.969
REMARK UNBOUND:                -0.994
REMARK  Name = 
REMARK  6 active torsions:
REMARK  status: ('A' for Active; 'I' for Inactive)
REMARK    1  A    between atoms: C_1  and  C_2
REMARK    2  A    between atoms: C_2  and  N_3
REMARK    3  A    between atoms: C_2  and  C_24
REMARK    4  A    between atoms: C_7  and  C_8
REMARK    5  A    between atoms: C_8  and  N_9
REMARK    6  A    between atoms: C_10  and  C_12
REMARK                            x       y       z     vdW  Elec       q    Type
REMARK                         _______ _______ _______ _____ _____    ______ ____
ROOT
ATOM      1  N   UNL     1      45.328   5.393  12.325  0.00  0.00    +0.000 N 
ATOM      2  C   UNL     1      46.322   5.761  13.229  0.00  0.00    +0.000 A 
ATOM      3  C   UNL     1      46.879   7.040  13.128  0.00  0.00    +0.000 A 
ATOM      4  N   UNL     1      47.843   7.528  13.950  0.00  0.00    +0.000 NA
ATOM      5  C   UNL     1      48.259   6.680  14.920  0.00  0.00    +0.000 A 
ATOM      6  C   UNL     1      47.725   5.397  15.017  0.00  0.00    +0.000 A 
ATOM      7  N   UNL     1      46.758   4.918  14.183  0.00  0.00    +0.000 NA
ATOM      8  H   UNL     1      44.512   5.989  12.399  0.00  0.00    +0.000 HD
ENDROOT
BRANCH   1  10
ATOM      9  C   UNL     1      43.678   3.586  12.676  0.00  0.00    +0.000 C 
ATOM     10  C   UNL     1      45.039   3.982  12.099  0.00  0.00    +0.000 C 
BRANCH  10  11
ATOM     11  C   UNL     1      45.077   3.760  10.597  0.00  0.00    +0.000 A 
ATOM     12  C   UNL     1      44.709   2.544  10.000  0.00  0.00    +0.000 A 
ATOM     13  C   UNL     1      44.697   2.421   8.615  0.00  0.00    +0.000 A 
ATOM     14  C   UNL     1      45.068   3.519   7.859  0.00  0.00    +0.000 A 
ATOM     15  N   UNL     1      45.448   4.701   8.389  0.00  0.00    +0.000 NA
ATOM     16  C   UNL     1      45.437   4.797   9.739  0.00  0.00    +0.000 A 
ENDBRANCH  10  11
ENDBRANCH   1  10
BRANCH   5  17
ATOM     17  C   UNL     1      49.301   7.179  15.890  0.00  0.00    +0.000 C 
BRANCH  17  18
ATOM     18  N   UNL     1      50.274   6.169  16.258  0.00  0.00    +0.000 N 
ATOM     19  C   UNL     1      50.814   6.114  17.513  0.00  0.00    +0.000 C 
ATOM     20  O   UNL     1      50.491   6.914  18.387  0.00  0.00    +0.000 OA
ATOM     21  H   UNL     1      50.585   5.535  15.529  0.00  0.00    +0.000 HD
BRANCH  19  22
ATOM     22  C   UNL     1      51.757   5.023  17.783  0.00  0.00    +0.000 A 
ATOM     23  C   UNL     1      53.048   5.329  18.197  0.00  0.00    +0.000 A 
ATOM     24  S   UNL     1      54.024   3.960  18.470  0.00  0.00    +0.000 S 
ATOM     25  C   UNL     1      52.774   2.909  17.997  0.00  0.00    +0.000 A 
ATOM     26  N   UNL     1      52.971   1.562  17.970  0.00  0.00    +0.000 NA
ATOM     27  C   UNL     1      51.952   0.883  17.561  0.00  0.00    +0.000 A 
ATOM     28  N   UNL     1      50.748   1.426  17.194  0.00  0.00    +0.000 N 
ATOM     29  C   UNL     1      50.484   2.780  17.261  0.00  0.00    +0.000 A 
ATOM     30  O   UNL     1      49.370   3.226  17.012  0.00  0.00    +0.000 OA
ATOM     31  C   UNL     1      51.615   3.591  17.673  0.00  0.00    +0.000 A 
ATOM     32  H   UNL     1      49.982   0.836  16.908  0.00  0.00    +0.000 HD
ENDBRANCH  19  22
ENDBRANCH  17  18
ENDBRANCH   5  17
TORSDOF 5
ENDMDL
MODEL 4
REMARK VINA RESULT:    -6.897      1.927      2.505
REMARK INTER + INTRA:          -9.907
REMARK INTER:                  -9.134
REMARK INTRA:                  -0.773
REMARK UNBOUND:                -0.994
REMARK  Name = 
REMARK  6 active torsions:
REMARK  status: ('A' for Active; 'I' for Inactive)
REMARK    1  A    between atoms: C_1  and  C_2
REMARK    2  A    between atoms: C_2  and  N_3
REMARK    3  A    between atoms: C_2  and  C_24
REMARK    4  A    between atoms: C_7  and  C_8
REMARK    5  A    between atoms: C_8  and  N_9
REMARK    6  A    between atoms: C_10  and  C_12
REMARK                            x       y       z     vdW  Elec       q    Type
REMARK                         _______ _______ _______ _____ _____    ______ ____
ROOT
ATOM      1  N   UNL     1      44.692   4.921  11.692  0.00  0.00    +0.000 N 
ATOM      2  C   UNL     1      45.708   5.388  12.522  0.00  0.00    +0.000 A 
ATOM      3  C   UNL     1      45.991   6.758  12.532  0.00  0.00    +0.000 A 
ATOM      4  N   UNL     1      46.944   7.343  13.301  0.00  0.00    +0.000 NA
ATOM      5  C   UNL     1      47.641   6.500  14.098  0.00  0.00    +0.000 A 
ATOM      6  C   UNL     1      47.383   5.131  14.082  0.00  0.00    +0.000 A 
ATOM      7  N   UNL     1      46.423   4.555  13.302  0.00  0.00    +0.000 NA
ATOM      8  H   UNL     1      43.794   5.323  11.933  0.00  0.00    +0.000 HD
ENDROOT
BRANCH   1  10
ATOM      9  C   UNL     1      43.236   2.942  11.416  0.00  0.00    +0.000 C 
ATOM     10  C   UNL     1      44.652   3.513  11.313  0.00  0.00    +0.000 C 
BRANCH  10  11
ATOM     11  C   UNL     1      45.171   3.427   9.889  0.00  0.00    +0.000 A 
ATOM     12  C   UNL     1      45.342   2.206   9.217  0.00  0.00    +0.000 A 
ATOM     13  C   UNL     1      45.754   2.191   7.888  0.00  0.00    +0.000 A 
ATOM     14  C   UNL     1      45.998   3.403   7.267  0.00  0.00    +0.000 A 
ATOM     15  N   UNL     1      45.867   4.599   7.879  0.00  0.00    +0.000 NA
ATOM     16  C   UNL     1      45.452   4.585   9.167  0.00  0.00    +0.000 A 
ENDBRANCH  10  11
ENDBRANCH   1  10
BRANCH   5  17
ATOM     17  C   UNL     1      48.688   7.096  15.006  0.00  0.00    +0.000 C 
BRANCH  17  18
ATOM     18  N   UNL     1      48.444   6.839  16.412  0.00  0.00    +0.000 N 
ATOM     19  C   UNL     1      49.266   6.034  17.149  0.00  0.00    +0.000 C 
ATOM     20  O   UNL     1      50.254   5.499  16.655  0.00  0.00    +0.000 OA
ATOM     21  H   UNL     1      47.601   7.235  16.818  0.00  0.00    +0.000 HD
BRANCH  19  22
ATOM     22  C   UNL     1      48.944   5.881  18.573  0.00  0.00    +0.000 A 
ATOM     23  C   UNL     1      49.157   4.653  19.189  0.00  0.00    +0.000 A 
ATOM     24  S   UNL     1      48.735   4.631  20.839  0.00  0.00    +0.000 S 
ATOM     25  C   UNL     1      48.205   6.245  20.780  0.00  0.00    +0.000 A 
ATOM     26  N   UNL     1      47.679   6.845  21.883  0.00  0.00    +0.000 NA
ATOM     27  C   UNL     1      47.286   8.060  21.692  0.00  0.00    +0.000 A 
ATOM     28  N   UNL     1      47.387   8.736  20.504  0.00  0.00    +0.000 N 
ATOM     29  C   UNL     1      47.966   8.188  19.376  0.00  0.00    +0.000 A 
ATOM     30  O   UNL     1      48.123   8.847  18.356  0.00  0.00    +0.000 OA
ATOM     31  C   UNL     1      48.384   6.807  19.528  0.00  0.00    +0.000 A 
ATOM     32  H   UNL     1      47.084   9.695  20.429  0.00  0.00    +0.000 HD
ENDBRANCH  19  22
ENDBRANCH  17  18
ENDBRANCH   5  17
TORSDOF 5
ENDMDL
MODEL 5
REMARK VINA RESULT:    -6.832      4.262      5.873
REMARK INTER + INTRA:          -9.823
REMARK INTER:                  -9.050
REMARK INTRA:                  -0.773
REMARK UNBOUND:                -0.994
REMARK  Name = 
REMARK  6 active torsions:
REMARK  status: ('A' for Active; 'I' for Inactive)
REMARK    1  A    between atoms: C_1  and  C_2
REMARK    2  A    between atoms: C_2  and  N_3
REMARK    3  A    between atoms: C_2  and  C_24
REMARK    4  A    between atoms: C_7  and  C_8
REMARK    5  A    between atoms: C_8  and  N_9
REMARK    6  A    between atoms: C_10  and  C_12
REMARK                            x       y       z     vdW  Elec       q    Type
REMARK                         _______ _______ _______ _____ _____    ______ ____
ROOT
ATOM      1  N   UNL     1      42.817   8.395  10.645  0.00  0.00    +0.000 N 
ATOM      2  C   UNL     1      43.615   7.484  11.331  0.00  0.00    +0.000 A 
ATOM      3  C   UNL     1      43.174   6.162  11.451  0.00  0.00    +0.000 A 
ATOM      4  N   UNL     1      43.859   5.174  12.082  0.00  0.00    +0.000 NA
ATOM      5  C   UNL     1      45.048   5.545  12.614  0.00  0.00    +0.000 A 
ATOM      6  C   UNL     1      45.488   6.863  12.520  0.00  0.00    +0.000 A 
ATOM      7  N   UNL     1      44.788   7.847  11.885  0.00  0.00    +0.000 NA
ATOM      8  H   UNL     1      42.684   8.126   9.678  0.00  0.00    +0.000 HD
ENDROOT
BRANCH   1  10
ATOM      9  C   UNL     1      44.023  10.421   9.902  0.00  0.00    +0.000 C 
ATOM     10  C   UNL     1      42.994   9.826  10.865  0.00  0.00    +0.000 C 
BRANCH  10  11
ATOM     11  C   UNL     1      41.633  10.472  10.673  0.00  0.00    +0.000 A 
ATOM     12  C   UNL     1      41.424  11.559   9.810  0.00  0.00    +0.000 A 
ATOM     13  C   UNL     1      40.142  12.065   9.621  0.00  0.00    +0.000 A 
ATOM     14  C   UNL     1      39.099  11.475  10.312  0.00  0.00    +0.000 A 
ATOM     15  N   UNL     1      39.255  10.441  11.166  0.00  0.00    +0.000 NA
ATOM     16  C   UNL     1      40.510   9.961  11.321  0.00  0.00    +0.000 A 
ENDBRANCH  10  11
ENDBRANCH   1  10
BRANCH   5  17
ATOM     17  C   UNL     1      45.875   4.482  13.294  0.00  0.00    +0.000 C 
BRANCH  17  18
ATOM     18  N   UNL     1      46.471   4.926  14.539  0.00  0.00    +0.000 N 
ATOM     19  C   UNL     1      47.308   4.123  15.262  0.00  0.00    +0.000 C 
ATOM     20  O   UNL     1      47.599   2.992  14.884  0.00  0.00    +0.000 OA
ATOM     21  H   UNL     1      46.197   5.840  14.886  0.00  0.00    +0.000 HD
BRANCH  19  22
ATOM     22  C   UNL     1      47.885   4.695  16.484  0.00  0.00    +0.000 A 
ATOM     23  C   UNL     1      47.575   4.124  17.713  0.00  0.00    +0.000 A 
ATOM     24  S   UNL     1      48.318   4.896  19.036  0.00  0.00    +0.000 S 
ATOM     25  C   UNL     1      49.042   6.053  18.023  0.00  0.00    +0.000 A 
ATOM     26  N   UNL     1      49.806   7.053  18.543  0.00  0.00    +0.000 NA
ATOM     27  C   UNL     1      50.268   7.880  17.666  0.00  0.00    +0.000 A 
ATOM     28  N   UNL     1      50.050   7.791  16.316  0.00  0.00    +0.000 N 
ATOM     29  C   UNL     1      49.331   6.764  15.739  0.00  0.00    +0.000 A 
ATOM     30  O   UNL     1      49.228   6.661  14.522  0.00  0.00    +0.000 OA
ATOM     31  C   UNL     1      48.752   5.830  16.688  0.00  0.00    +0.000 A 
ATOM     32  H   UNL     1      50.463   8.458  15.682  0.00  0.00    +0.000 HD
ENDBRANCH  19  22
ENDBRANCH  17  18
ENDBRANCH   5  17
TORSDOF 5
ENDMDL
MODEL 6
REMARK VINA RESULT:    -6.802      4.443      8.773
REMARK INTER + INTRA:          -9.784
REMARK INTER:                  -8.864
REMARK INTRA:                  -0.921
REMARK UNBOUND:                -0.994
REMARK  Name = 
REMARK  6 active torsions:
REMARK  status: ('A' for Active; 'I' for Inactive)
REMARK    1  A    between atoms: C_1  and  C_2
REMARK    2  A    between atoms: C_2  and  N_3
REMARK    3  A    between atoms: C_2  and  C_24
REMARK    4  A    between atoms: C_7  and  C_8
REMARK    5  A    between atoms: C_8  and  N_9
REMARK    6  A    between atoms: C_10  and  C_12
REMARK                            x       y       z     vdW  Elec       q    Type
REMARK                         _______ _______ _______ _____ _____    ______ ____
ROOT
ATOM      1  N   UNL     1      52.646   3.844  18.518  0.00  0.00    +0.000 N 
ATOM      2  C   UNL     1      51.311   3.808  18.126  0.00  0.00    +0.000 A 
ATOM      3  C   UNL     1      50.856   2.705  17.395  0.00  0.00    +0.000 A 
ATOM      4  N   UNL     1      49.580   2.540  16.963  0.00  0.00    +0.000 NA
ATOM      5  C   UNL     1      48.726   3.539  17.288  0.00  0.00    +0.000 A 
ATOM      6  C   UNL     1      49.172   4.652  17.997  0.00  0.00    +0.000 A 
ATOM      7  N   UNL     1      50.458   4.807  18.424  0.00  0.00    +0.000 NA
ATOM      8  H   UNL     1      52.880   3.071  19.131  0.00  0.00    +0.000 HD
ENDROOT
BRANCH   1  10
ATOM      9  C   UNL     1      54.414   4.926  19.866  0.00  0.00    +0.000 C 
ATOM     10  C   UNL     1      53.265   5.116  18.873  0.00  0.00    +0.000 C 
BRANCH  10  11
ATOM     11  C   UNL     1      53.761   5.740  17.580  0.00  0.00    +0.000 A 
ATOM     12  C   UNL     1      54.752   5.145  16.783  0.00  0.00    +0.000 A 
ATOM     13  C   UNL     1      55.116   5.727  15.573  0.00  0.00    +0.000 A 
ATOM     14  C   UNL     1      54.486   6.900  15.196  0.00  0.00    +0.000 A 
ATOM     15  N   UNL     1      53.543   7.516  15.939  0.00  0.00    +0.000 NA
ATOM     16  C   UNL     1      53.198   6.922  17.105  0.00  0.00    +0.000 A 
ENDBRANCH  10  11
ENDBRANCH   1  10
BRANCH   5  17
ATOM     17  C   UNL     1      47.284   3.394  16.869  0.00  0.00    +0.000 C 
BRANCH  17  18
ATOM     18  N   UNL     1      46.866   4.383  15.895  0.00  0.00    +0.000 N 
ATOM     19  C   UNL     1      46.907   4.133  14.552  0.00  0.00    +0.000 C 
ATOM     20  O   UNL     1      47.293   3.053  14.111  0.00  0.00    +0.000 OA
ATOM     21  H   UNL     1      46.594   5.296  16.247  0.00  0.00    +0.000 HD
BRANCH  19  22
ATOM     22  C   UNL     1      46.420   5.193  13.663  0.00  0.00    +0.000 A 
ATOM     23  C   UNL     1      47.185   6.341  13.492  0.00  0.00    +0.000 A 
ATOM     24  S   UNL     1      46.489   7.479  12.433  0.00  0.00    +0.000 S 
ATOM     25  C   UNL     1      45.116   6.504  12.203  0.00  0.00    +0.000 A 
ATOM     26  N   UNL     1      44.090   6.923  11.412  0.00  0.00    +0.000 NA
ATOM     27  C   UNL     1      43.096   6.102  11.350  0.00  0.00    +0.000 A 
ATOM     28  N   UNL     1      43.040   4.892  11.992  0.00  0.00    +0.000 N 
ATOM     29  C   UNL     1      44.080   4.401  12.757  0.00  0.00    +0.000 A 
ATOM     30  O   UNL     1      44.038   3.277  13.244  0.00  0.00    +0.000 OA
ATOM     31  C   UNL     1      45.204   5.308  12.893  0.00  0.00    +0.000 A 
ATOM     32  H   UNL     1      42.243   4.285  11.880  0.00  0.00    +0.000 HD
ENDBRANCH  19  22
ENDBRANCH  17  18
ENDBRANCH   5  17
TORSDOF 5
ENDMDL
MODEL 7
REMARK VINA RESULT:    -6.790      4.345      9.158
REMARK INTER + INTRA:          -9.768
REMARK INTER:                  -8.800
REMARK INTRA:                  -0.969
REMARK UNBOUND:                -0.994
REMARK  Name = 
REMARK  6 active torsions:
REMARK  status: ('A' for Active; 'I' for Inactive)
REMARK    1  A    between atoms: C_1  and  C_2
REMARK    2  A    between atoms: C_2  and  N_3
REMARK    3  A    between atoms: C_2  and  C_24
REMARK    4  A    between atoms: C_7  and  C_8
REMARK    5  A    between atoms: C_8  and  N_9
REMARK    6  A    between atoms: C_10  and  C_12
REMARK                            x       y       z     vdW  Elec       q    Type
REMARK                         _______ _______ _______ _____ _____    ______ ____
ROOT
ATOM      1  N   UNL     1      50.730   4.174  18.570  0.00  0.00    +0.000 N 
ATOM      2  C   UNL     1      50.243   5.007  17.566  0.00  0.00    +0.000 A 
ATOM      3  C   UNL     1      49.027   4.681  16.956  0.00  0.00    +0.000 A 
ATOM      4  N   UNL     1      48.436   5.411  15.976  0.00  0.00    +0.000 NA
ATOM      5  C   UNL     1      49.109   6.524  15.599  0.00  0.00    +0.000 A 
ATOM      6  C   UNL     1      50.331   6.848  16.185  0.00  0.00    +0.000 A 
ATOM      7  N   UNL     1      50.915   6.104  17.168  0.00  0.00    +0.000 NA
ATOM      8  H   UNL     1      50.099   4.130  19.362  0.00  0.00    +0.000 HD
ENDROOT
BRANCH   1  10
ATOM      9  C   UNL     1      52.360   4.599  20.381  0.00  0.00    +0.000 C 
ATOM     10  C   UNL     1      52.147   4.206  18.917  0.00  0.00    +0.000 C 
BRANCH  10  11
ATOM     11  C   UNL     1      52.698   2.818  18.641  0.00  0.00    +0.000 A 
ATOM     12  C   UNL     1      52.113   1.941  17.714  0.00  0.00    +0.000 A 
ATOM     13  C   UNL     1      52.702   0.708  17.451  0.00  0.00    +0.000 A 
ATOM     14  C   UNL     1      53.860   0.379  18.135  0.00  0.00    +0.000 A 
ATOM     15  N   UNL     1      54.446   1.182  19.047  0.00  0.00    +0.000 NA
ATOM     16  C   UNL     1      53.859   2.381  19.274  0.00  0.00    +0.000 A 
ENDBRANCH  10  11
ENDBRANCH   1  10
BRANCH   5  17
ATOM     17  C   UNL     1      48.483   7.399  14.541  0.00  0.00    +0.000 C 
BRANCH  17  18
ATOM     18  N   UNL     1      47.254   6.854  14.000  0.00  0.00    +0.000 N 
ATOM     19  C   UNL     1      46.857   7.111  12.717  0.00  0.00    +0.000 C 
ATOM     20  O   UNL     1      47.530   7.808  11.963  0.00  0.00    +0.000 OA
ATOM     21  H   UNL     1      46.664   6.319  14.630  0.00  0.00    +0.000 HD
BRANCH  19  22
ATOM     22  C   UNL     1      45.615   6.472  12.265  0.00  0.00    +0.000 A 
ATOM     23  C   UNL     1      44.617   7.255  11.697  0.00  0.00    +0.000 A 
ATOM     24  S   UNL     1      43.240   6.372  11.223  0.00  0.00    +0.000 S 
ATOM     25  C   UNL     1      43.904   4.920  11.805  0.00  0.00    +0.000 A 
ATOM     26  N   UNL     1      43.201   3.756  11.735  0.00  0.00    +0.000 NA
ATOM     27  C   UNL     1      43.809   2.736  12.241  0.00  0.00    +0.000 A 
ATOM     28  N   UNL     1      45.062   2.769  12.796  0.00  0.00    +0.000 N 
ATOM     29  C   UNL     1      45.834   3.912  12.837  0.00  0.00    +0.000 A 
ATOM     30  O   UNL     1      46.985   3.891  13.256  0.00  0.00    +0.000 OA
ATOM     31  C   UNL     1      45.177   5.098  12.318  0.00  0.00    +0.000 A 
ATOM     32  H   UNL     1      45.491   1.928  13.151  0.00  0.00    +0.000 HD
ENDBRANCH  19  22
ENDBRANCH  17  18
ENDBRANCH   5  17
TORSDOF 5
ENDMDL
MODEL 8
REMARK VINA RESULT:    -6.778      4.644      6.396
REMARK INTER + INTRA:          -9.753
REMARK INTER:                  -8.844
REMARK INTRA:                  -0.909
REMARK UNBOUND:                -0.994
REMARK  Name = 
REMARK  6 active torsions:
REMARK  status: ('A' for Active; 'I' for Inactive)
REMARK    1  A    between atoms: C_1  and  C_2
REMARK    2  A    between atoms: C_2  and  N_3
REMARK    3  A    between atoms: C_2  and  C_24
REMARK    4  A    between atoms: C_7  and  C_8
REMARK    5  A    between atoms: C_8  and  N_9
REMARK    6  A    between atoms: C_10  and  C_12
REMARK                            x       y       z     vdW  Elec       q    Type
REMARK                         _______ _______ _______ _____ _____    ______ ____
ROOT
ATOM      1  N   UNL     1      47.237   6.374  12.723  0.00  0.00    +0.000 N 
ATOM      2  C   UNL     1      47.412   5.675  13.914  0.00  0.00    +0.000 A 
ATOM      3  C   UNL     1      46.769   4.443  14.070  0.00  0.00    +0.000 A 
ATOM      4  N   UNL     1      46.865   3.657  15.172  0.00  0.00    +0.000 NA
ATOM      5  C   UNL     1      47.652   4.143  16.162  0.00  0.00    +0.000 A 
ATOM      6  C   UNL     1      48.281   5.378  16.027  0.00  0.00    +0.000 A 
ATOM      7  N   UNL     1      48.174   6.160  14.914  0.00  0.00    +0.000 NA
ATOM      8  H   UNL     1      47.580   5.852  11.925  0.00  0.00    +0.000 HD
ENDROOT
BRANCH   1  10
ATOM      9  C   UNL     1      48.688   8.133  11.767  0.00  0.00    +0.000 C 
ATOM     10  C   UNL     1      47.500   7.808  12.676  0.00  0.00    +0.000 C 
BRANCH  10  11
ATOM     11  C   UNL     1      46.231   8.472  12.171  0.00  0.00    +0.000 A 
ATOM     12  C   UNL     1      46.062   9.865  12.147  0.00  0.00    +0.000 A 
ATOM     13  C   UNL     1      44.906  10.419  11.608  0.00  0.00    +0.000 A 
ATOM     14  C   UNL     1      43.939   9.561  11.116  0.00  0.00    +0.000 A 
ATOM     15  N   UNL     1      44.050   8.216  11.135  0.00  0.00    +0.000 NA
ATOM     16  C   UNL     1      45.191   7.704  11.653  0.00  0.00    +0.000 A 
ENDBRANCH  10  11
ENDBRANCH   1  10
BRANCH   5  17
ATOM     17  C   UNL     1      47.830   3.296  17.397  0.00  0.00    +0.000 C 
BRANCH  17  18
ATOM     18  N   UNL     1      49.219   3.078  17.750  0.00  0.00    +0.000 N 
ATOM     19  C   UNL     1      50.026   2.253  17.018  0.00  0.00    +0.000 C 
ATOM     20  O   UNL     1      49.612   1.664  16.024  0.00  0.00    +0.000 OA
ATOM     21  H   UNL     1      49.558   3.520  18.599  0.00  0.00    +0.000 HD
BRANCH  19  22
ATOM     22  C   UNL     1      51.426   2.143  17.445  0.00  0.00    +0.000 A 
ATOM     23  C   UNL     1      51.985   0.882  17.622  0.00  0.00    +0.000 A 
ATOM     24  S   UNL     1      53.614   0.917  18.118  0.00  0.00    +0.000 S 
ATOM     25  C   UNL     1      53.619   2.616  18.165  0.00  0.00    +0.000 A 
ATOM     26  N   UNL     1      54.730   3.298  18.557  0.00  0.00    +0.000 NA
ATOM     27  C   UNL     1      54.587   4.581  18.579  0.00  0.00    +0.000 A 
ATOM     28  N   UNL     1      53.441   5.246  18.228  0.00  0.00    +0.000 N 
ATOM     29  C   UNL     1      52.310   4.600  17.770  0.00  0.00    +0.000 A 
ATOM     30  O   UNL     1      51.332   5.226  17.378  0.00  0.00    +0.000 OA
ATOM     31  C   UNL     1      52.405   3.152  17.769  0.00  0.00    +0.000 A 
ATOM     32  H   UNL     1      53.405   6.253  18.242  0.00  0.00    +0.000 HD
ENDBRANCH  19  22
ENDBRANCH  17  18
ENDBRANCH   5  17
TORSDOF 5
ENDMDL
MODEL 9
REMARK VINA RESULT:    -6.634      4.006      6.031
REMARK INTER + INTRA:          -9.567
REMARK INTER:                  -9.500
REMARK INTRA:                  -0.067
REMARK UNBOUND:                -0.994
REMARK  Name = 
REMARK  6 active torsions:
REMARK  status: ('A' for Active; 'I' for Inactive)
REMARK    1  A    between atoms: C_1  and  C_2
REMARK    2  A    between atoms: C_2  and  N_3
REMARK    3  A    between atoms: C_2  and  C_24
REMARK    4  A    between atoms: C_7  and  C_8
REMARK    5  A    between atoms: C_8  and  N_9
REMARK    6  A    between atoms: C_10  and  C_12
REMARK                            x       y       z     vdW  Elec       q    Type
REMARK                         _______ _______ _______ _____ _____    ______ ____
ROOT
ATOM      1  N   UNL     1      46.314   4.624  13.043  0.00  0.00    +0.000 N 
ATOM      2  C   UNL     1      47.104   5.128  14.073  0.00  0.00    +0.000 A 
ATOM      3  C   UNL     1      47.264   4.361  15.232  0.00  0.00    +0.000 A 
ATOM      4  N   UNL     1      48.014   4.729  16.303  0.00  0.00    +0.000 NA
ATOM      5  C   UNL     1      48.630   5.929  16.191  0.00  0.00    +0.000 A 
ATOM      6  C   UNL     1      48.461   6.711  15.050  0.00  0.00    +0.000 A 
ATOM      7  N   UNL     1      47.703   6.331  13.982  0.00  0.00    +0.000 NA
ATOM      8  H   UNL     1      46.685   3.755  12.675  0.00  0.00    +0.000 HD
ENDROOT
BRANCH   1  10
ATOM      9  C   UNL     1      46.817   6.512  11.527  0.00  0.00    +0.000 C 
ATOM     10  C   UNL     1      45.763   5.529  12.041  0.00  0.00    +0.000 C 
BRANCH  10  11
ATOM     11  C   UNL     1      45.232   4.663  10.912  0.00  0.00    +0.000 A 
ATOM     12  C   UNL     1      45.483   4.942   9.559  0.00  0.00    +0.000 A 
ATOM     13  C   UNL     1      45.030   4.074   8.571  0.00  0.00    +0.000 A 
ATOM     14  C   UNL     1      44.323   2.951   8.962  0.00  0.00    +0.000 A 
ATOM     15  N   UNL     1      44.042   2.653  10.248  0.00  0.00    +0.000 NA
ATOM     16  C   UNL     1      44.506   3.507  11.189  0.00  0.00    +0.000 A 
ENDBRANCH  10  11
ENDBRANCH   1  10
BRANCH   5  17
ATOM     17  C   UNL     1      49.510   6.375  17.332  0.00  0.00    +0.000 C 
BRANCH  17  18
ATOM     18  N   UNL     1      50.446   5.358  17.768  0.00  0.00    +0.000 N 
ATOM     19  C   UNL     1      51.738   5.331  17.323  0.00  0.00    +0.000 C 
ATOM     20  O   UNL     1      52.166   6.174  16.539  0.00  0.00    +0.000 OA
ATOM     21  H   UNL     1      50.089   4.627  18.375  0.00  0.00    +0.000 HD
BRANCH  19  22
ATOM     22  C   UNL     1      52.606   4.279  17.865  0.00  0.00    +0.000 A 
ATOM     23  C   UNL     1      53.808   4.634  18.467  0.00  0.00    +0.000 A 
ATOM     24  S   UNL     1      54.704   3.306  19.046  0.00  0.00    +0.000 S 
ATOM     25  C   UNL     1      53.545   2.205  18.469  0.00  0.00    +0.000 A 
ATOM     26  N   UNL     1      53.728   0.863  18.614  0.00  0.00    +0.000 NA
ATOM     27  C   UNL     1      52.788   0.140  18.103  0.00  0.00    +0.000 A 
ATOM     28  N   UNL     1      51.674   0.635  17.476  0.00  0.00    +0.000 N 
ATOM     29  C   UNL     1      51.419   1.986  17.357  0.00  0.00    +0.000 A 
ATOM     30  O   UNL     1      50.372   2.398  16.871  0.00  0.00    +0.000 OA
ATOM     31  C   UNL     1      52.469   2.843  17.877  0.00  0.00    +0.000 A 
ATOM     32  H   UNL     1      50.964   0.014  17.121  0.00  0.00    +0.000 HD
ENDBRANCH  19  22
ENDBRANCH  17  18
ENDBRANCH   5  17
TORSDOF 5
ENDMDL
