MODEL 1
REMARK VINA RESULT:    -7.079      0.000      0.000
REMARK INTER + INTRA:         -12.628
REMARK INTER:                 -11.631
REMARK INTRA:                  -0.997
REMARK UNBOUND:                -0.997
REMARK  Name = 
REMARK  12 active torsions:
REMARK  status: ('A' for Active; 'I' for Inactive)
REMARK    1  A    between atoms: N_1  and  C_2
REMARK    2  A    between atoms: C_2  and  C_3
REMARK    3  A    between atoms: C_3  and  N_4
REMARK    4  A    between atoms: C_3  and  C_22
REMARK    5  A    between atoms: N_4  and  C_5
REMARK    6  A    between atoms: C_8  and  C_9
REMARK    7  A    between atoms: C_9  and  N_10
REMARK    8  A    between atoms: N_10  and  C_11
REMARK    9  A    between atoms: N_15  and  C_16
REMARK   10  A    between atoms: C_16  and  C_17
REMARK   11  A    between atoms: C_17  and  O_18
REMARK   12  A    between atoms: C_22  and  C_24
REMARK                            x       y       z     vdW  Elec       q    Type
REMARK                         _______ _______ _______ _____ _____    ______ ____
ROOT
ATOM      1  N   UNL     1      47.334   5.285  14.974  0.00  0.00    +0.000 N 
ATOM      2  H   UNL     1      47.369   6.278  15.203  0.00  0.00    +0.000 HD
ENDROOT
BRANCH   1   3
ATOM      3  C   UNL     1      46.441   4.905  13.993  0.00  0.00    +0.000 A 
ATOM      4  C   UNL     1      45.449   5.739  13.485  0.00  0.00    +0.000 A 
ATOM      5  C   UNL     1      44.528   5.263  12.550  0.00  0.00    +0.000 A 
ATOM      6  C   UNL     1      44.595   3.934  12.148  0.00  0.00    +0.000 A 
ATOM      7  N   UNL     1      45.529   3.082  12.633  0.00  0.00    +0.000 NA
ATOM      8  C   UNL     1      46.415   3.586  13.528  0.00  0.00    +0.000 A 
BRANCH   6   9
ATOM      9  C   UNL     1      43.572   3.380  11.174  0.00  0.00    +0.000 C 
BRANCH   9  10
ATOM     10  N   UNL     1      44.070   2.276  10.335  0.00  0.00    +0.000 NA
ATOM     11  H   UNL     1      43.253   1.692  10.133  0.00  0.00    +0.000 HD
BRANCH  10  12
ATOM     12  C   UNL     1      44.647   2.707   9.048  0.00  0.00    +0.000 C 
ATOM     13  C   UNL     1      45.249   4.117   9.102  0.00  0.00    +0.000 C 
ATOM     14  C   UNL     1      45.913   4.458   7.772  0.00  0.00    +0.000 C 
ATOM     15  C   UNL     1      46.935   3.398   7.366  0.00  0.00    +0.000 C 
ATOM     16  N   UNL     1      46.332   2.053   7.301  0.00  0.00    +0.000 NA
ATOM     17  C   UNL     1      45.745   1.699   8.611  0.00  0.00    +0.000 C 
BRANCH  16  18
ATOM     18  C   UNL     1      47.364   1.077   6.876  0.00  0.00    +0.000 C 
BRANCH  18  19
ATOM     19  C   UNL     1      47.409   0.836   5.358  0.00  0.00    +0.000 C 
BRANCH  19  20
ATOM     20  O   UNL     1      48.169   1.851   4.711  0.00  0.00    +0.000 OA
ATOM     21  H   UNL     1      49.103   1.587   4.825  0.00  0.00    +0.000 HD
ENDBRANCH  19  20
ENDBRANCH  18  19
ENDBRANCH  16  18
ENDBRANCH  10  12
ENDBRANCH   9  10
ENDBRANCH   6   9
ENDBRANCH   1   3
BRANCH   1  22
ATOM     22  C   UNL     1      47.974   4.377  15.955  0.00  0.00    +0.000 C 
BRANCH  22  23
ATOM     23  C   UNL     1      49.154   5.106  16.640  0.00  0.00    +0.000 C 
ATOM     24  O   UNL     1      50.133   4.482  17.045  0.00  0.00    +0.000 OA
BRANCH  23  25
ATOM     25  C   UNL     1      49.042   6.555  16.872  0.00  0.00    +0.000 A 
ATOM     26  C   UNL     1      49.408   7.507  15.928  0.00  0.00    +0.000 A 
ATOM     27  S   UNL     1      49.061   9.109  16.413  0.00  0.00    +0.000 S 
ATOM     28  C   UNL     1      48.415   8.576  17.895  0.00  0.00    +0.000 A 
ATOM     29  N   UNL     1      47.889   9.461  18.790  0.00  0.00    +0.000 NA
ATOM     30  C   UNL     1      47.421   8.914  19.858  0.00  0.00    +0.000 A 
ATOM     31  N   UNL     1      47.453   7.568  20.130  0.00  0.00    +0.000 N 
ATOM     32  C   UNL     1      48.085   6.656  19.311  0.00  0.00    +0.000 A 
ATOM     33  O   UNL     1      48.324   5.516  19.698  0.00  0.00    +0.000 OA
ATOM     34  C   UNL     1      48.514   7.208  18.040  0.00  0.00    +0.000 A 
ATOM     35  H   UNL     1      47.142   7.216  21.026  0.00  0.00    +0.000 HD
ENDBRANCH  23  25
ENDBRANCH  22  23
BRANCH  22  36
ATOM     36  C   UNL     1      46.942   3.947  17.018  0.00  0.00    +0.000 C 
BRANCH  36  37
ATOM     37  N   UNL     1      47.536   3.089  18.061  0.00  0.00    +0.000 NA
ATOM     38  H   UNL     1      47.335   2.114  17.840  0.00  0.00    +0.000 HD
ATOM     39  H   UNL     1      48.554   3.184  18.018  0.00  0.00    +0.000 HD
ENDBRANCH  36  37
ENDBRANCH  22  36
ENDBRANCH   1  22
TORSDOF 12
ENDMDL
MODEL 2
REMARK VINA RESULT:    -7.007      1.555      2.471
REMARK INTER + INTRA:         -12.509
REMARK INTER:                 -11.292
REMARK INTRA:                  -1.217
REMARK UNBOUND:                -0.997
REMARK  Name = 
REMARK  12 active torsions:
REMARK  status: ('A' for Active; 'I' for Inactive)
REMARK    1  A    between atoms: N_1  and  C_2
REMARK    2  A    between atoms: C_2  and  C_3
REMARK    3  A    between atoms: C_3  and  N_4
REMARK    4  A    between atoms: C_3  and  C_22
REMARK    5  A    between atoms: N_4  and  C_5
REMARK    6  A    between atoms: C_8  and  C_9
REMARK    7  A    between atoms: C_9  and  N_10
REMARK    8  A    between atoms: N_10  and  C_11
REMARK    9  A    between atoms: N_15  and  C_16
REMARK   10  A    between atoms: C_16  and  C_17
REMARK   11  A    between atoms: C_17  and  O_18
REMARK   12  A    between atoms: C_22  and  C_24
REMARK                            x       y       z     vdW  Elec       q    Type
REMARK                         _______ _______ _______ _____ _____    ______ ____
ROOT
ATOM      1  N   UNL     1      47.282   5.388  14.898  0.00  0.00    +0.000 N 
ATOM      2  H   UNL     1      47.291   6.402  15.010  0.00  0.00    +0.000 HD
ENDROOT
BRANCH   1   3
ATOM      3  C   UNL     1      46.369   4.872  14.000  0.00  0.00    +0.000 A 
ATOM      4  C   UNL     1      46.431   3.577  13.493  0.00  0.00    +0.000 A 
ATOM      5  C   UNL     1      45.521   3.147  12.525  0.00  0.00    +0.000 A 
ATOM      6  C   UNL     1      44.563   4.036  12.052  0.00  0.00    +0.000 A 
ATOM      7  N   UNL     1      44.481   5.311  12.501  0.00  0.00    +0.000 NA
ATOM      8  C   UNL     1      45.374   5.687  13.451  0.00  0.00    +0.000 A 
BRANCH   6   9
ATOM      9  C   UNL     1      43.597   3.608  10.963  0.00  0.00    +0.000 C 
BRANCH   9  10
ATOM     10  N   UNL     1      44.058   2.461  10.160  0.00  0.00    +0.000 NA
ATOM     11  H   UNL     1      43.214   1.926   9.933  0.00  0.00    +0.000 HD
BRANCH  10  12
ATOM     12  C   UNL     1      44.712   2.834   8.892  0.00  0.00    +0.000 C 
ATOM     13  C   UNL     1      45.411   4.198   8.955  0.00  0.00    +0.000 C 
ATOM     14  C   UNL     1      46.148   4.474   7.649  0.00  0.00    +0.000 C 
ATOM     15  C   UNL     1      47.106   3.339   7.294  0.00  0.00    +0.000 C 
ATOM     16  N   UNL     1      46.411   2.039   7.219  0.00  0.00    +0.000 NA
ATOM     17  C   UNL     1      45.750   1.745   8.508  0.00  0.00    +0.000 C 
BRANCH  16  18
ATOM     18  C   UNL     1      47.385   0.987   6.843  0.00  0.00    +0.000 C 
BRANCH  18  19
ATOM     19  C   UNL     1      47.424   0.680   5.337  0.00  0.00    +0.000 C 
BRANCH  19  20
ATOM     20  O   UNL     1      48.169   1.673   4.641  0.00  0.00    +0.000 OA
ATOM     21  H   UNL     1      48.237   2.427   5.259  0.00  0.00    +0.000 HD
ENDBRANCH  19  20
ENDBRANCH  18  19
ENDBRANCH  16  18
ENDBRANCH  10  12
ENDBRANCH   9  10
ENDBRANCH   6   9
ENDBRANCH   1   3
BRANCH   1  22
ATOM     22  C   UNL     1      47.985   4.618  15.951  0.00  0.00    +0.000 C 
BRANCH  22  23
ATOM     23  C   UNL     1      49.125   5.479  16.546  0.00  0.00    +0.000 C 
ATOM     24  O   UNL     1      50.184   4.965  16.901  0.00  0.00    +0.000 OA
BRANCH  23  25
ATOM     25  C   UNL     1      48.881   6.915  16.755  0.00  0.00    +0.000 A 
ATOM     26  C   UNL     1      48.389   7.438  17.945  0.00  0.00    +0.000 A 
ATOM     27  S   UNL     1      48.315   9.146  17.954  0.00  0.00    +0.000 S 
ATOM     28  C   UNL     1      48.935   9.233  16.370  0.00  0.00    +0.000 A 
ATOM     29  N   UNL     1      49.164  10.437  15.772  0.00  0.00    +0.000 NA
ATOM     30  C   UNL     1      49.652  10.350  14.583  0.00  0.00    +0.000 A 
ATOM     31  N   UNL     1      49.906   9.172  13.923  0.00  0.00    +0.000 N 
ATOM     32  C   UNL     1      49.573   7.939  14.443  0.00  0.00    +0.000 A 
ATOM     33  O   UNL     1      49.571   6.935  13.737  0.00  0.00    +0.000 OA
ATOM     34  C   UNL     1      49.141   7.983  15.826  0.00  0.00    +0.000 A 
ATOM     35  H   UNL     1      50.211   9.178  12.959  0.00  0.00    +0.000 HD
ENDBRANCH  23  25
ENDBRANCH  22  23
BRANCH  22  36
ATOM     36  C   UNL     1      46.990   4.231  17.065  0.00  0.00    +0.000 C 
BRANCH  36  37
ATOM     37  N   UNL     1      47.663   3.632  18.233  0.00  0.00    +0.000 NA
ATOM     38  H   UNL     1      47.751   2.627  18.083  0.00  0.00    +0.000 HD
ATOM     39  H   UNL     1      48.618   3.994  18.279  0.00  0.00    +0.000 HD
ENDBRANCH  36  37
ENDBRANCH  22  36
ENDBRANCH   1  22
TORSDOF 12
ENDMDL
MODEL 3
REMARK VINA RESULT:    -6.983      4.328      9.177
REMARK INTER + INTRA:         -12.471
REMARK INTER:                 -10.861
REMARK INTRA:                  -1.610
REMARK UNBOUND:                -0.997
REMARK  Name = 
REMARK  12 active torsions:
REMARK  status: ('A' for Active; 'I' for Inactive)
REMARK    1  A    between atoms: N_1  and  C_2
REMARK    2  A    between atoms: C_2  and  C_3
REMARK    3  A    between atoms: C_3  and  N_4
REMARK    4  A    between atoms: C_3  and  C_22
REMARK    5  A    between atoms: N_4  and  C_5
REMARK    6  A    between atoms: C_8  and  C_9
REMARK    7  A    between atoms: C_9  and  N_10
REMARK    8  A    between atoms: N_10  and  C_11
REMARK    9  A    between atoms: N_15  and  C_16
REMARK   10  A    between atoms: C_16  and  C_17
REMARK   11  A    between atoms: C_17  and  O_18
REMARK   12  A    between atoms: C_22  and  C_24
REMARK                            x       y       z     vdW  Elec       q    Type
REMARK                         _______ _______ _______ _____ _____    ______ ____
ROOT
ATOM      1  N   UNL     1      46.569   6.176  14.022  0.00  0.00    +0.000 N 
ATOM      2  H   UNL     1      45.837   6.739  14.453  0.00  0.00    +0.000 HD
ENDROOT
BRANCH   1   3
ATOM      3  C   UNL     1      47.161   5.214  14.815  0.00  0.00    +0.000 A 
ATOM      4  C   UNL     1      47.889   5.502  15.966  0.00  0.00    +0.000 A 
ATOM      5  C   UNL     1      48.529   4.485  16.676  0.00  0.00    +0.000 A 
ATOM      6  C   UNL     1      48.453   3.178  16.208  0.00  0.00    +0.000 A 
ATOM      7  N   UNL     1      47.775   2.857  15.081  0.00  0.00    +0.000 NA
ATOM      8  C   UNL     1      47.155   3.870  14.426  0.00  0.00    +0.000 A 
BRANCH   6   9
ATOM      9  C   UNL     1      49.185   2.064  16.933  0.00  0.00    +0.000 C 
BRANCH   9  10
ATOM     10  N   UNL     1      50.116   2.528  17.976  0.00  0.00    +0.000 NA
ATOM     11  H   UNL     1      50.053   1.837  18.730  0.00  0.00    +0.000 HD
BRANCH  10  12
ATOM     12  C   UNL     1      51.523   2.599  17.543  0.00  0.00    +0.000 C 
ATOM     13  C   UNL     1      52.350   3.607  18.352  0.00  0.00    +0.000 C 
ATOM     14  C   UNL     1      53.812   3.557  17.920  0.00  0.00    +0.000 C 
ATOM     15  C   UNL     1      54.373   2.139  17.999  0.00  0.00    +0.000 C 
ATOM     16  N   UNL     1      53.575   1.189  17.198  0.00  0.00    +0.000 NA
ATOM     17  C   UNL     1      52.172   1.193  17.662  0.00  0.00    +0.000 C 
BRANCH  16  18
ATOM     18  C   UNL     1      54.185  -0.158  17.292  0.00  0.00    +0.000 C 
BRANCH  18  19
ATOM     19  C   UNL     1      54.255  -0.714  18.724  0.00  0.00    +0.000 C 
BRANCH  19  20
ATOM     20  O   UNL     1      53.199  -1.642  18.955  0.00  0.00    +0.000 OA
ATOM     21  H   UNL     1      53.639  -2.485  19.179  0.00  0.00    +0.000 HD
ENDBRANCH  19  20
ENDBRANCH  18  19
ENDBRANCH  16  18
ENDBRANCH  10  12
ENDBRANCH   9  10
ENDBRANCH   6   9
ENDBRANCH   1   3
BRANCH   1  22
ATOM     22  C   UNL     1      47.119   6.702  12.750  0.00  0.00    +0.000 C 
BRANCH  22  23
ATOM     23  C   UNL     1      45.965   6.942  11.748  0.00  0.00    +0.000 C 
ATOM     24  O   UNL     1      45.405   8.035  11.678  0.00  0.00    +0.000 OA
BRANCH  23  25
ATOM     25  C   UNL     1      45.496   5.807  10.938  0.00  0.00    +0.000 A 
ATOM     26  C   UNL     1      45.852   5.624   9.607  0.00  0.00    +0.000 A 
ATOM     27  S   UNL     1      45.262   4.163   8.943  0.00  0.00    +0.000 S 
ATOM     28  C   UNL     1      44.515   3.736  10.413  0.00  0.00    +0.000 A 
ATOM     29  N   UNL     1      43.854   2.551  10.545  0.00  0.00    +0.000 NA
ATOM     30  C   UNL     1      43.355   2.355  11.717  0.00  0.00    +0.000 A 
ATOM     31  N   UNL     1      43.431   3.243  12.762  0.00  0.00    +0.000 N 
ATOM     32  C   UNL     1      43.981   4.501  12.633  0.00  0.00    +0.000 A 
ATOM     33  O   UNL     1      43.807   5.359  13.493  0.00  0.00    +0.000 OA
ATOM     34  C   UNL     1      44.665   4.716  11.372  0.00  0.00    +0.000 A 
ATOM     35  H   UNL     1      42.945   3.059  13.630  0.00  0.00    +0.000 HD
ENDBRANCH  23  25
ENDBRANCH  22  23
BRANCH  22  36
ATOM     36  C   UNL     1      47.862   8.029  13.013  0.00  0.00    +0.000 C 
BRANCH  36  37
ATOM     37  N   UNL     1      47.184   8.861  14.026  0.00  0.00    +0.000 NA
ATOM     38  H   UNL     1      47.863   9.501  14.435  0.00  0.00    +0.000 HD
ATOM     39  H   UNL     1      46.493   9.448  13.553  0.00  0.00    +0.000 HD
ENDBRANCH  36  37
ENDBRANCH  22  36
ENDBRANCH   1  22
TORSDOF 12
ENDMDL
MODEL 4
REMARK VINA RESULT:    -6.977      2.398      3.940
REMARK INTER + INTRA:         -12.462
REMARK INTER:                 -11.275
REMARK INTRA:                  -1.186
REMARK UNBOUND:                -0.997
REMARK  Name = 
REMARK  12 active torsions:
REMARK  status: ('A' for Active; 'I' for Inactive)
REMARK    1  A    between atoms: N_1  and  C_2
REMARK    2  A    between atoms: C_2  and  C_3
REMARK    3  A    between atoms: C_3  and  N_4
REMARK    4  A    between atoms: C_3  and  C_22
REMARK    5  A    between atoms: N_4  and  C_5
REMARK    6  A    between atoms: C_8  and  C_9
REMARK    7  A    between atoms: C_9  and  N_10
REMARK    8  A    between atoms: N_10  and  C_11
REMARK    9  A    between atoms: N_15  and  C_16
REMARK   10  A    between atoms: C_16  and  C_17
REMARK   11  A    between atoms: C_17  and  O_18
REMARK   12  A    between atoms: C_22  and  C_24
REMARK                            x       y       z     vdW  Elec       q    Type
REMARK                         _______ _______ _______ _____ _____    ______ ____
ROOT
ATOM      1  N   UNL     1      48.348   5.335  15.365  0.00  0.00    +0.000 N 
ATOM      2  H   UNL     1      49.172   4.770  15.161  0.00  0.00    +0.000 HD
ENDROOT
BRANCH   1   3
ATOM      3  C   UNL     1      47.381   5.399  14.383  0.00  0.00    +0.000 A 
ATOM      4  C   UNL     1      47.199   6.498  13.548  0.00  0.00    +0.000 A 
ATOM      5  C   UNL     1      46.147   6.527  12.629  0.00  0.00    +0.000 A 
ATOM      6  C   UNL     1      45.266   5.455  12.573  0.00  0.00    +0.000 A 
ATOM      7  N   UNL     1      45.392   4.376  13.382  0.00  0.00    +0.000 NA
ATOM      8  C   UNL     1      46.434   4.378  14.251  0.00  0.00    +0.000 A 
BRANCH   6   9
ATOM      9  C   UNL     1      44.085   5.487  11.620  0.00  0.00    +0.000 C 
BRANCH   9  10
ATOM     10  N   UNL     1      44.456   5.501  10.195  0.00  0.00    +0.000 NA
ATOM     11  H   UNL     1      45.094   6.295  10.083  0.00  0.00    +0.000 HD
BRANCH  10  12
ATOM     12  C   UNL     1      45.160   4.287   9.741  0.00  0.00    +0.000 C 
ATOM     13  C   UNL     1      44.278   3.033   9.777  0.00  0.00    +0.000 C 
ATOM     14  C   UNL     1      45.034   1.839   9.203  0.00  0.00    +0.000 C 
ATOM     15  C   UNL     1      45.577   2.136   7.806  0.00  0.00    +0.000 C 
ATOM     16  N   UNL     1      46.438   3.335   7.798  0.00  0.00    +0.000 NA
ATOM     17  C   UNL     1      45.682   4.504   8.294  0.00  0.00    +0.000 C 
BRANCH  16  18
ATOM     18  C   UNL     1      46.954   3.553   6.425  0.00  0.00    +0.000 C 
BRANCH  18  19
ATOM     19  C   UNL     1      47.083   2.265   5.594  0.00  0.00    +0.000 C 
BRANCH  19  20
ATOM     20  O   UNL     1      48.444   1.849   5.520  0.00  0.00    +0.000 OA
ATOM     21  H   UNL     1      48.892   2.527   4.977  0.00  0.00    +0.000 HD
ENDBRANCH  19  20
ENDBRANCH  18  19
ENDBRANCH  16  18
ENDBRANCH  10  12
ENDBRANCH   9  10
ENDBRANCH   6   9
ENDBRANCH   1   3
BRANCH   1  22
ATOM     22  C   UNL     1      48.475   6.265  16.512  0.00  0.00    +0.000 C 
BRANCH  22  23
ATOM     23  C   UNL     1      48.783   5.461  17.798  0.00  0.00    +0.000 C 
ATOM     24  O   UNL     1      47.936   5.332  18.680  0.00  0.00    +0.000 OA
BRANCH  23  25
ATOM     25  C   UNL     1      50.141   4.924  17.979  0.00  0.00    +0.000 A 
ATOM     26  C   UNL     1      51.180   5.657  18.540  0.00  0.00    +0.000 A 
ATOM     27  S   UNL     1      52.616   4.750  18.739  0.00  0.00    +0.000 S 
ATOM     28  C   UNL     1      51.891   3.358  18.080  0.00  0.00    +0.000 A 
ATOM     29  N   UNL     1      52.577   2.183  17.996  0.00  0.00    +0.000 NA
ATOM     30  C   UNL     1      51.896   1.210  17.494  0.00  0.00    +0.000 A 
ATOM     31  N   UNL     1      50.603   1.308  17.043  0.00  0.00    +0.000 N 
ATOM     32  C   UNL     1      49.918   2.504  16.996  0.00  0.00    +0.000 A 
ATOM     33  O   UNL     1      48.874   2.611  16.357  0.00  0.00    +0.000 OA
ATOM     34  C   UNL     1      50.597   3.596  17.666  0.00  0.00    +0.000 A 
ATOM     35  H   UNL     1      50.157   0.525  16.584  0.00  0.00    +0.000 HD
ENDBRANCH  23  25
ENDBRANCH  22  23
BRANCH  22  36
ATOM     36  C   UNL     1      49.614   7.271  16.244  0.00  0.00    +0.000 C 
BRANCH  36  37
ATOM     37  N   UNL     1      50.465   6.867  15.108  0.00  0.00    +0.000 NA
ATOM     38  H   UNL     1      49.971   7.066  14.239  0.00  0.00    +0.000 HD
ATOM     39  H   UNL     1      51.299   7.459  15.101  0.00  0.00    +0.000 HD
ENDBRANCH  36  37
ENDBRANCH  22  36
ENDBRANCH   1  22
TORSDOF 12
ENDMDL
MODEL 5
REMARK VINA RESULT:    -6.880      3.728      9.846
REMARK INTER + INTRA:         -12.301
REMARK INTER:                 -11.174
REMARK INTRA:                  -1.128
REMARK UNBOUND:                -0.997
REMARK  Name = 
REMARK  12 active torsions:
REMARK  status: ('A' for Active; 'I' for Inactive)
REMARK    1  A    between atoms: N_1  and  C_2
REMARK    2  A    between atoms: C_2  and  C_3
REMARK    3  A    between atoms: C_3  and  N_4
REMARK    4  A    between atoms: C_3  and  C_22
REMARK    5  A    between atoms: N_4  and  C_5
REMARK    6  A    between atoms: C_8  and  C_9
REMARK    7  A    between atoms: C_9  and  N_10
REMARK    8  A    between atoms: N_10  and  C_11
REMARK    9  A    between atoms: N_15  and  C_16
REMARK   10  A    between atoms: C_16  and  C_17
REMARK   11  A    between atoms: C_17  and  O_18
REMARK   12  A    between atoms: C_22  and  C_24
REMARK                            x       y       z     vdW  Elec       q    Type
REMARK                         _______ _______ _______ _____ _____    ______ ____
ROOT
ATOM      1  N   UNL     1      46.676   6.195  11.916  0.00  0.00    +0.000 N 
ATOM      2  H   UNL     1      46.796   5.538  11.146  0.00  0.00    +0.000 HD
ENDROOT
BRANCH   1   3
ATOM      3  C   UNL     1      47.158   5.803  13.149  0.00  0.00    +0.000 A 
ATOM      4  C   UNL     1      46.597   4.780  13.908  0.00  0.00    +0.000 A 
ATOM      5  C   UNL     1      47.086   4.489  15.183  0.00  0.00    +0.000 A 
ATOM      6  C   UNL     1      48.128   5.250  15.700  0.00  0.00    +0.000 A 
ATOM      7  N   UNL     1      48.688   6.269  15.005  0.00  0.00    +0.000 NA
ATOM      8  C   UNL     1      48.195   6.511  13.765  0.00  0.00    +0.000 A 
BRANCH   6   9
ATOM      9  C   UNL     1      48.641   4.987  17.103  0.00  0.00    +0.000 C 
BRANCH   9  10
ATOM     10  N   UNL     1      48.508   3.589  17.546  0.00  0.00    +0.000 NA
ATOM     11  H   UNL     1      48.186   3.068  16.724  0.00  0.00    +0.000 HD
BRANCH  10  12
ATOM     12  C   UNL     1      49.770   2.976  18.003  0.00  0.00    +0.000 C 
ATOM     13  C   UNL     1      50.357   1.984  16.992  0.00  0.00    +0.000 C 
ATOM     14  C   UNL     1      51.705   1.466  17.482  0.00  0.00    +0.000 C 
ATOM     15  C   UNL     1      52.663   2.611  17.806  0.00  0.00    +0.000 C 
ATOM     16  N   UNL     1      52.087   3.543  18.795  0.00  0.00    +0.000 NA
ATOM     17  C   UNL     1      50.811   4.092  18.289  0.00  0.00    +0.000 C 
BRANCH  16  18
ATOM     18  C   UNL     1      53.072   4.611  19.087  0.00  0.00    +0.000 C 
BRANCH  18  19
ATOM     19  C   UNL     1      53.068   5.082  20.551  0.00  0.00    +0.000 C 
BRANCH  19  20
ATOM     20  O   UNL     1      52.538   4.071  21.402  0.00  0.00    +0.000 OA
ATOM     21  H   UNL     1      52.600   4.436  22.307  0.00  0.00    +0.000 HD
ENDBRANCH  19  20
ENDBRANCH  18  19
ENDBRANCH  16  18
ENDBRANCH  10  12
ENDBRANCH   9  10
ENDBRANCH   6   9
ENDBRANCH   1   3
BRANCH   1  22
ATOM     22  C   UNL     1      45.710   7.293  11.679  0.00  0.00    +0.000 C 
BRANCH  22  23
ATOM     23  C   UNL     1      44.343   6.698  11.263  0.00  0.00    +0.000 C 
ATOM     24  O   UNL     1      43.377   7.427  11.045  0.00  0.00    +0.000 OA
BRANCH  23  25
ATOM     25  C   UNL     1      44.204   5.234  11.215  0.00  0.00    +0.000 A 
ATOM     26  C   UNL     1      43.529   4.502  12.185  0.00  0.00    +0.000 A 
ATOM     27  S   UNL     1      43.418   2.835  11.819  0.00  0.00    +0.000 S 
ATOM     28  C   UNL     1      44.268   3.046  10.359  0.00  0.00    +0.000 A 
ATOM     29  N   UNL     1      44.489   1.995   9.519  0.00  0.00    +0.000 NA
ATOM     30  C   UNL     1      45.129   2.305   8.444  0.00  0.00    +0.000 A 
ATOM     31  N   UNL     1      45.591   3.563   8.142  0.00  0.00    +0.000 N 
ATOM     32  C   UNL     1      45.498   4.623   9.018  0.00  0.00    +0.000 A 
ATOM     33  O   UNL     1      46.140   5.653   8.836  0.00  0.00    +0.000 OA
ATOM     34  C   UNL     1      44.677   4.351  10.182  0.00  0.00    +0.000 A 
ATOM     35  H   UNL     1      46.159   3.718   7.318  0.00  0.00    +0.000 HD
ENDBRANCH  23  25
ENDBRANCH  22  23
BRANCH  22  36
ATOM     36  C   UNL     1      45.542   8.128  12.966  0.00  0.00    +0.000 C 
BRANCH  36  37
ATOM     37  N   UNL     1      44.931   9.445  12.705  0.00  0.00    +0.000 NA
ATOM     38  H   UNL     1      45.526  10.170  13.105  0.00  0.00    +0.000 HD
ATOM     39  H   UNL     1      44.930   9.607  11.694  0.00  0.00    +0.000 HD
ENDBRANCH  36  37
ENDBRANCH  22  36
ENDBRANCH   1  22
TORSDOF 12
ENDMDL
MODEL 6
REMARK VINA RESULT:    -6.773      2.403      3.220
REMARK INTER + INTRA:         -12.126
REMARK INTER:                 -11.366
REMARK INTRA:                  -0.760
REMARK UNBOUND:                -0.997
REMARK  Name = 
REMARK  12 active torsions:
REMARK  status: ('A' for Active; 'I' for Inactive)
REMARK    1  A    between atoms: N_1  and  C_2
REMARK    2  A    between atoms: C_2  and  C_3
REMARK    3  A    between atoms: C_3  and  N_4
REMARK    4  A    between atoms: C_3  and  C_22
REMARK    5  A    between atoms: N_4  and  C_5
REMARK    6  A    between atoms: C_8  and  C_9
REMARK    7  A    between atoms: C_9  and  N_10
REMARK    8  A    between atoms: N_10  and  C_11
REMARK    9  A    between atoms: N_15  and  C_16
REMARK   10  A    between atoms: C_16  and  C_17
REMARK   11  A    between atoms: C_17  and  O_18
REMARK   12  A    between atoms: C_22  and  C_24
REMARK                            x       y       z     vdW  Elec       q    Type
REMARK                         _______ _______ _______ _____ _____    ______ ____
ROOT
ATOM      1  N   UNL     1      47.548   5.397  14.960  0.00  0.00    +0.000 N 
ATOM      2  H   UNL     1      47.722   6.399  14.892  0.00  0.00    +0.000 HD
ENDROOT
BRANCH   1   3
ATOM      3  C   UNL     1      46.571   4.879  14.134  0.00  0.00    +0.000 A 
ATOM      4  C   UNL     1      46.599   3.586  13.619  0.00  0.00    +0.000 A 
ATOM      5  C   UNL     1      45.618   3.155  12.724  0.00  0.00    +0.000 A 
ATOM      6  C   UNL     1      44.621   4.040  12.331  0.00  0.00    +0.000 A 
ATOM      7  N   UNL     1      44.568   5.314  12.790  0.00  0.00    +0.000 NA
ATOM      8  C   UNL     1      45.531   5.691  13.668  0.00  0.00    +0.000 A 
BRANCH   6   9
ATOM      9  C   UNL     1      43.575   3.612  11.319  0.00  0.00    +0.000 C 
BRANCH   9  10
ATOM     10  N   UNL     1      43.975   2.467  10.482  0.00  0.00    +0.000 NA
ATOM     11  H   UNL     1      43.113   1.941  10.303  0.00  0.00    +0.000 HD
BRANCH  10  12
ATOM     12  C   UNL     1      44.554   2.843   9.179  0.00  0.00    +0.000 C 
ATOM     13  C   UNL     1      45.186   4.241   9.184  0.00  0.00    +0.000 C 
ATOM     14  C   UNL     1      45.851   4.524   7.841  0.00  0.00    +0.000 C 
ATOM     15  C   UNL     1      46.848   3.429   7.466  0.00  0.00    +0.000 C 
ATOM     16  N   UNL     1      46.216   2.096   7.448  0.00  0.00    +0.000 NA
ATOM     17  C   UNL     1      45.628   1.798   8.771  0.00  0.00    +0.000 C 
BRANCH  16  18
ATOM     18  C   UNL     1      47.225   1.085   7.050  0.00  0.00    +0.000 C 
BRANCH  18  19
ATOM     19  C   UNL     1      47.365   0.906   5.530  0.00  0.00    +0.000 C 
BRANCH  19  20
ATOM     20  O   UNL     1      48.473   1.653   5.036  0.00  0.00    +0.000 OA
ATOM     21  H   UNL     1      48.167   2.044   4.195  0.00  0.00    +0.000 HD
ENDBRANCH  19  20
ENDBRANCH  18  19
ENDBRANCH  16  18
ENDBRANCH  10  12
ENDBRANCH   9  10
ENDBRANCH   6   9
ENDBRANCH   1   3
BRANCH   1  22
ATOM     22  C   UNL     1      48.107   4.728  16.158  0.00  0.00    +0.000 C 
BRANCH  22  23
ATOM     23  C   UNL     1      48.808   5.776  17.055  0.00  0.00    +0.000 C 
ATOM     24  O   UNL     1      48.198   6.759  17.474  0.00  0.00    +0.000 OA
BRANCH  23  25
ATOM     25  C   UNL     1      50.244   5.614  17.328  0.00  0.00    +0.000 A 
ATOM     26  C   UNL     1      50.741   4.760  18.305  0.00  0.00    +0.000 A 
ATOM     27  S   UNL     1      52.449   4.677  18.327  0.00  0.00    +0.000 S 
ATOM     28  C   UNL     1      52.571   5.780  17.035  0.00  0.00    +0.000 A 
ATOM     29  N   UNL     1      53.785   6.123  16.518  0.00  0.00    +0.000 NA
ATOM     30  C   UNL     1      53.723   6.951  15.533  0.00  0.00    +0.000 A 
ATOM     31  N   UNL     1      52.563   7.489  15.032  0.00  0.00    +0.000 N 
ATOM     32  C   UNL     1      51.329   7.265  15.604  0.00  0.00    +0.000 A 
ATOM     33  O   UNL     1      50.357   7.953  15.303  0.00  0.00    +0.000 OA
ATOM     34  C   UNL     1      51.336   6.243  16.633  0.00  0.00    +0.000 A 
ATOM     35  H   UNL     1      52.594   8.198  14.310  0.00  0.00    +0.000 HD
ENDBRANCH  23  25
ENDBRANCH  22  23
BRANCH  22  36
ATOM     36  C   UNL     1      46.973   4.043  16.950  0.00  0.00    +0.000 C 
BRANCH  36  37
ATOM     37  N   UNL     1      47.485   3.166  18.019  0.00  0.00    +0.000 NA
ATOM     38  H   UNL     1      47.340   3.623  18.919  0.00  0.00    +0.000 HD
ATOM     39  H   UNL     1      46.918   2.315  18.041  0.00  0.00    +0.000 HD
ENDBRANCH  36  37
ENDBRANCH  22  36
ENDBRANCH   1  22
TORSDOF 12
ENDMDL
MODEL 7
REMARK VINA RESULT:    -6.607      1.947      2.880
REMARK INTER + INTRA:         -11.854
REMARK INTER:                 -10.547
REMARK INTRA:                  -1.307
REMARK UNBOUND:                -0.997
REMARK  Name = 
REMARK  12 active torsions:
REMARK  status: ('A' for Active; 'I' for Inactive)
REMARK    1  A    between atoms: N_1  and  C_2
REMARK    2  A    between atoms: C_2  and  C_3
REMARK    3  A    between atoms: C_3  and  N_4
REMARK    4  A    between atoms: C_3  and  C_22
REMARK    5  A    between atoms: N_4  and  C_5
REMARK    6  A    between atoms: C_8  and  C_9
REMARK    7  A    between atoms: C_9  and  N_10
REMARK    8  A    between atoms: N_10  and  C_11
REMARK    9  A    between atoms: N_15  and  C_16
REMARK   10  A    between atoms: C_16  and  C_17
REMARK   11  A    between atoms: C_17  and  O_18
REMARK   12  A    between atoms: C_22  and  C_24
REMARK                            x       y       z     vdW  Elec       q    Type
REMARK                         _______ _______ _______ _____ _____    ______ ____
ROOT
ATOM      1  N   UNL     1      48.243   6.407  13.794  0.00  0.00    +0.000 N 
ATOM      2  H   UNL     1      49.153   6.059  13.492  0.00  0.00    +0.000 HD
ENDROOT
BRANCH   1   3
ATOM      3  C   UNL     1      47.158   6.072  13.009  0.00  0.00    +0.000 A 
ATOM      4  C   UNL     1      46.792   6.766  11.860  0.00  0.00    +0.000 A 
ATOM      5  C   UNL     1      45.635   6.421  11.158  0.00  0.00    +0.000 A 
ATOM      6  C   UNL     1      44.835   5.389  11.634  0.00  0.00    +0.000 A 
ATOM      7  N   UNL     1      45.142   4.702  12.760  0.00  0.00    +0.000 NA
ATOM      8  C   UNL     1      46.281   5.058  13.406  0.00  0.00    +0.000 A 
BRANCH   6   9
ATOM      9  C   UNL     1      43.545   5.031  10.919  0.00  0.00    +0.000 C 
BRANCH   9  10
ATOM     10  N   UNL     1      43.715   4.692   9.495  0.00  0.00    +0.000 NA
ATOM     11  H   UNL     1      43.928   5.577   9.024  0.00  0.00    +0.000 HD
BRANCH  10  12
ATOM     12  C   UNL     1      44.822   3.757   9.224  0.00  0.00    +0.000 C 
ATOM     13  C   UNL     1      44.388   2.286   9.260  0.00  0.00    +0.000 C 
ATOM     14  C   UNL     1      45.553   1.382   8.875  0.00  0.00    +0.000 C 
ATOM     15  C   UNL     1      46.156   1.784   7.529  0.00  0.00    +0.000 C 
ATOM     16  N   UNL     1      46.585   3.196   7.522  0.00  0.00    +0.000 NA
ATOM     17  C   UNL     1      45.437   4.074   7.834  0.00  0.00    +0.000 C 
BRANCH  16  18
ATOM     18  C   UNL     1      47.184   3.516   6.205  0.00  0.00    +0.000 C 
BRANCH  18  19
ATOM     19  C   UNL     1      47.151   2.349   5.204  0.00  0.00    +0.000 C 
BRANCH  19  20
ATOM     20  O   UNL     1      48.445   1.770   5.065  0.00  0.00    +0.000 OA
ATOM     21  H   UNL     1      48.357   0.855   5.396  0.00  0.00    +0.000 HD
ENDBRANCH  19  20
ENDBRANCH  18  19
ENDBRANCH  16  18
ENDBRANCH  10  12
ENDBRANCH   9  10
ENDBRANCH   6   9
ENDBRANCH   1   3
BRANCH   1  22
ATOM     22  C   UNL     1      48.274   7.490  14.804  0.00  0.00    +0.000 C 
BRANCH  22  23
ATOM     23  C   UNL     1      49.317   7.150  15.895  0.00  0.00    +0.000 C 
ATOM     24  O   UNL     1      50.493   7.491  15.773  0.00  0.00    +0.000 OA
BRANCH  23  25
ATOM     25  C   UNL     1      48.888   6.336  17.043  0.00  0.00    +0.000 A 
ATOM     26  C   UNL     1      49.003   4.952  17.080  0.00  0.00    +0.000 A 
ATOM     27  S   UNL     1      48.539   4.273  18.579  0.00  0.00    +0.000 S 
ATOM     28  C   UNL     1      48.171   5.807  19.219  0.00  0.00    +0.000 A 
ATOM     29  N   UNL     1      47.748   5.947  20.508  0.00  0.00    +0.000 NA
ATOM     30  C   UNL     1      47.526   7.166  20.860  0.00  0.00    +0.000 A 
ATOM     31  N   UNL     1      47.660   8.258  20.037  0.00  0.00    +0.000 N 
ATOM     32  C   UNL     1      47.964   8.149  18.697  0.00  0.00    +0.000 A 
ATOM     33  O   UNL     1      47.825   9.103  17.936  0.00  0.00    +0.000 OA
ATOM     34  C   UNL     1      48.346   6.811  18.289  0.00  0.00    +0.000 A 
ATOM     35  H   UNL     1      47.388   9.179  20.356  0.00  0.00    +0.000 HD
ENDBRANCH  23  25
ENDBRANCH  22  23
BRANCH  22  36
ATOM     36  C   UNL     1      48.648   8.825  14.127  0.00  0.00    +0.000 C 
BRANCH  36  37
ATOM     37  N   UNL     1      48.443   9.983  15.018  0.00  0.00    +0.000 NA
ATOM     38  H   UNL     1      47.476  10.297  14.934  0.00  0.00    +0.000 HD
ATOM     39  H   UNL     1      48.554   9.671  15.986  0.00  0.00    +0.000 HD
ENDBRANCH  36  37
ENDBRANCH  22  36
ENDBRANCH   1  22
TORSDOF 12
ENDMDL
MODEL 8
REMARK VINA RESULT:    -6.570      2.464      4.954
REMARK INTER + INTRA:         -11.792
REMARK INTER:                  -9.917
REMARK INTRA:                  -1.875
REMARK UNBOUND:                -0.997
REMARK  Name = 
REMARK  12 active torsions:
REMARK  status: ('A' for Active; 'I' for Inactive)
REMARK    1  A    between atoms: N_1  and  C_2
REMARK    2  A    between atoms: C_2  and  C_3
REMARK    3  A    between atoms: C_3  and  N_4
REMARK    4  A    between atoms: C_3  and  C_22
REMARK    5  A    between atoms: N_4  and  C_5
REMARK    6  A    between atoms: C_8  and  C_9
REMARK    7  A    between atoms: C_9  and  N_10
REMARK    8  A    between atoms: N_10  and  C_11
REMARK    9  A    between atoms: N_15  and  C_16
REMARK   10  A    between atoms: C_16  and  C_17
REMARK   11  A    between atoms: C_17  and  O_18
REMARK   12  A    between atoms: C_22  and  C_24
REMARK                            x       y       z     vdW  Elec       q    Type
REMARK                         _______ _______ _______ _____ _____    ______ ____
ROOT
ATOM      1  N   UNL     1      49.088   7.619  17.765  0.00  0.00    +0.000 N 
ATOM      2  H   UNL     1      50.043   7.746  18.099  0.00  0.00    +0.000 HD
ENDROOT
BRANCH   1   3
ATOM      3  C   UNL     1      48.890   7.720  16.403  0.00  0.00    +0.000 A 
ATOM      4  C   UNL     1      48.135   8.725  15.804  0.00  0.00    +0.000 A 
ATOM      5  C   UNL     1      47.908   8.720  14.426  0.00  0.00    +0.000 A 
ATOM      6  C   UNL     1      48.425   7.684  13.657  0.00  0.00    +0.000 A 
ATOM      7  N   UNL     1      49.145   6.674  14.202  0.00  0.00    +0.000 NA
ATOM      8  C   UNL     1      49.356   6.722  15.541  0.00  0.00    +0.000 A 
BRANCH   6   9
ATOM      9  C   UNL     1      48.147   7.627  12.166  0.00  0.00    +0.000 C 
BRANCH   9  10
ATOM     10  N   UNL     1      46.718   7.546  11.819  0.00  0.00    +0.000 NA
ATOM     11  H   UNL     1      46.649   7.879  10.852  0.00  0.00    +0.000 HD
BRANCH  10  12
ATOM     12  C   UNL     1      46.160   6.181  11.868  0.00  0.00    +0.000 C 
ATOM     13  C   UNL     1      45.060   6.020  12.925  0.00  0.00    +0.000 C 
ATOM     14  C   UNL     1      44.461   4.619  12.854  0.00  0.00    +0.000 C 
ATOM     15  C   UNL     1      43.976   4.286  11.444  0.00  0.00    +0.000 C 
ATOM     16  N   UNL     1      45.054   4.429  10.447  0.00  0.00    +0.000 NA
ATOM     17  C   UNL     1      45.589   5.806  10.474  0.00  0.00    +0.000 C 
BRANCH  16  18
ATOM     18  C   UNL     1      44.529   4.065   9.109  0.00  0.00    +0.000 C 
BRANCH  18  19
ATOM     19  C   UNL     1      45.575   3.426   8.180  0.00  0.00    +0.000 C 
BRANCH  19  20
ATOM     20  O   UNL     1      46.300   4.428   7.475  0.00  0.00    +0.000 OA
ATOM     21  H   UNL     1      45.945   4.412   6.564  0.00  0.00    +0.000 HD
ENDBRANCH  19  20
ENDBRANCH  18  19
ENDBRANCH  16  18
ENDBRANCH  10  12
ENDBRANCH   9  10
ENDBRANCH   6   9
ENDBRANCH   1   3
BRANCH   1  22
ATOM     22  C   UNL     1      48.030   7.699  18.798  0.00  0.00    +0.000 C 
BRANCH  22  23
ATOM     23  C   UNL     1      47.752   6.286  19.364  0.00  0.00    +0.000 C 
ATOM     24  O   UNL     1      47.352   6.134  20.517  0.00  0.00    +0.000 OA
BRANCH  23  25
ATOM     25  C   UNL     1      48.056   5.122  18.517  0.00  0.00    +0.000 A 
ATOM     26  C   UNL     1      47.148   4.579  17.617  0.00  0.00    +0.000 A 
ATOM     27  S   UNL     1      47.803   3.307  16.679  0.00  0.00    +0.000 S 
ATOM     28  C   UNL     1      49.314   3.447  17.451  0.00  0.00    +0.000 A 
ATOM     29  N   UNL     1      50.365   2.659  17.083  0.00  0.00    +0.000 NA
ATOM     30  C   UNL     1      51.449   2.888  17.740  0.00  0.00    +0.000 A 
ATOM     31  N   UNL     1      51.577   3.811  18.749  0.00  0.00    +0.000 N 
ATOM     32  C   UNL     1      50.510   4.538  19.234  0.00  0.00    +0.000 A 
ATOM     33  O   UNL     1      50.593   5.156  20.291  0.00  0.00    +0.000 OA
ATOM     34  C   UNL     1      49.302   4.406  18.442  0.00  0.00    +0.000 A 
ATOM     35  H   UNL     1      52.436   3.880  19.278  0.00  0.00    +0.000 HD
ENDBRANCH  23  25
ENDBRANCH  22  23
BRANCH  22  36
ATOM     36  C   UNL     1      48.483   8.635  19.939  0.00  0.00    +0.000 C 
BRANCH  36  37
ATOM     37  N   UNL     1      49.637   8.094  20.682  0.00  0.00    +0.000 NA
ATOM     38  H   UNL     1      49.327   7.302  21.242  0.00  0.00    +0.000 HD
ATOM     39  H   UNL     1      50.309   7.717  20.008  0.00  0.00    +0.000 HD
ENDBRANCH  36  37
ENDBRANCH  22  36
ENDBRANCH   1  22
TORSDOF 12
ENDMDL
MODEL 9
REMARK VINA RESULT:    -6.546      2.781      5.481
REMARK INTER + INTRA:         -11.753
REMARK INTER:                  -9.861
REMARK INTRA:                  -1.892
REMARK UNBOUND:                -0.997
REMARK  Name = 
REMARK  12 active torsions:
REMARK  status: ('A' for Active; 'I' for Inactive)
REMARK    1  A    between atoms: N_1  and  C_2
REMARK    2  A    between atoms: C_2  and  C_3
REMARK    3  A    between atoms: C_3  and  N_4
REMARK    4  A    between atoms: C_3  and  C_22
REMARK    5  A    between atoms: N_4  and  C_5
REMARK    6  A    between atoms: C_8  and  C_9
REMARK    7  A    between atoms: C_9  and  N_10
REMARK    8  A    between atoms: N_10  and  C_11
REMARK    9  A    between atoms: N_15  and  C_16
REMARK   10  A    between atoms: C_16  and  C_17
REMARK   11  A    between atoms: C_17  and  O_18
REMARK   12  A    between atoms: C_22  and  C_24
REMARK                            x       y       z     vdW  Elec       q    Type
REMARK                         _______ _______ _______ _____ _____    ______ ____
ROOT
ATOM      1  N   UNL     1      50.263   7.342  18.474  0.00  0.00    +0.000 N 
ATOM      2  H   UNL     1      51.237   7.613  18.610  0.00  0.00    +0.000 HD
ENDROOT
BRANCH   1   3
ATOM      3  C   UNL     1      49.717   7.594  17.231  0.00  0.00    +0.000 A 
ATOM      4  C   UNL     1      48.749   8.566  16.995  0.00  0.00    +0.000 A 
ATOM      5  C   UNL     1      48.181   8.712  15.728  0.00  0.00    +0.000 A 
ATOM      6  C   UNL     1      48.576   7.858  14.705  0.00  0.00    +0.000 A 
ATOM      7  N   UNL     1      49.498   6.884  14.896  0.00  0.00    +0.000 NA
ATOM      8  C   UNL     1      50.036   6.783  16.138  0.00  0.00    +0.000 A 
BRANCH   6   9
ATOM      9  C   UNL     1      47.935   7.962  13.333  0.00  0.00    +0.000 C 
BRANCH   9  10
ATOM     10  N   UNL     1      46.588   7.373  13.248  0.00  0.00    +0.000 NA
ATOM     11  H   UNL     1      46.066   7.969  12.597  0.00  0.00    +0.000 HD
BRANCH  10  12
ATOM     12  C   UNL     1      46.561   5.996  12.720  0.00  0.00    +0.000 C 
ATOM     13  C   UNL     1      46.505   4.931  13.822  0.00  0.00    +0.000 C 
ATOM     14  C   UNL     1      46.380   3.541  13.208  0.00  0.00    +0.000 C 
ATOM     15  C   UNL     1      45.195   3.456  12.247  0.00  0.00    +0.000 C 
ATOM     16  N   UNL     1      45.279   4.476  11.184  0.00  0.00    +0.000 NA
ATOM     17  C   UNL     1      45.336   5.826  11.781  0.00  0.00    +0.000 C 
BRANCH  16  18
ATOM     18  C   UNL     1      44.120   4.323  10.271  0.00  0.00    +0.000 C 
BRANCH  18  19
ATOM     19  C   UNL     1      44.508   4.030   8.812  0.00  0.00    +0.000 C 
BRANCH  19  20
ATOM     20  O   UNL     1      45.485   4.960   8.356  0.00  0.00    +0.000 OA
ATOM     21  H   UNL     1      46.279   4.425   8.157  0.00  0.00    +0.000 HD
ENDBRANCH  19  20
ENDBRANCH  18  19
ENDBRANCH  16  18
ENDBRANCH  10  12
ENDBRANCH   9  10
ENDBRANCH   6   9
ENDBRANCH   1   3
BRANCH   1  22
ATOM     22  C   UNL     1      49.497   7.056  19.710  0.00  0.00    +0.000 C 
BRANCH  22  23
ATOM     23  C   UNL     1      49.702   5.576  20.112  0.00  0.00    +0.000 C 
ATOM     24  O   UNL     1      49.547   5.211  21.277  0.00  0.00    +0.000 OA
BRANCH  23  25
ATOM     25  C   UNL     1      50.168   4.630  19.086  0.00  0.00    +0.000 A 
ATOM     26  C   UNL     1      51.496   4.243  18.955  0.00  0.00    +0.000 A 
ATOM     27  S   UNL     1      51.737   3.045  17.759  0.00  0.00    +0.000 S 
ATOM     28  C   UNL     1      50.077   3.012  17.383  0.00  0.00    +0.000 A 
ATOM     29  N   UNL     1      49.586   2.150  16.447  0.00  0.00    +0.000 NA
ATOM     30  C   UNL     1      48.311   2.224  16.280  0.00  0.00    +0.000 A 
ATOM     31  N   UNL     1      47.481   3.095  16.943  0.00  0.00    +0.000 N 
ATOM     32  C   UNL     1      47.952   4.064  17.804  0.00  0.00    +0.000 A 
ATOM     33  O   UNL     1      47.230   4.984  18.177  0.00  0.00    +0.000 OA
ATOM     34  C   UNL     1      49.362   3.936  18.117  0.00  0.00    +0.000 A 
ATOM     35  H   UNL     1      46.501   3.155  16.703  0.00  0.00    +0.000 HD
ENDBRANCH  23  25
ENDBRANCH  22  23
BRANCH  22  36
ATOM     36  C   UNL     1      49.982   7.976  20.849  0.00  0.00    +0.000 C 
BRANCH  36  37
ATOM     37  N   UNL     1      51.405   7.764  21.174  0.00  0.00    +0.000 NA
ATOM     38  H   UNL     1      51.951   8.530  20.779  0.00  0.00    +0.000 HD
ATOM     39  H   UNL     1      51.520   7.830  22.188  0.00  0.00    +0.000 HD
ENDBRANCH  36  37
ENDBRANCH  22  36
ENDBRANCH   1  22
TORSDOF 12
ENDMDL
