MODEL 1
REMARK VINA RESULT:    -7.417      0.000      0.000
REMARK INTER + INTRA:         -10.660
REMARK INTER:                  -9.802
REMARK INTRA:                  -0.858
REMARK UNBOUND:                -0.858
REMARK  Name = 
REMARK  6 active torsions:
REMARK  status: ('A' for Active; 'I' for Inactive)
REMARK    1  A    between atoms: C_2  and  C_3
REMARK    2  A    between atoms: C_7  and  O_8
REMARK    3  A    between atoms: O_8  and  C_9
REMARK    4  A    between atoms: C_9  and  C_10
REMARK    5  A    between atoms: C_14  and  N_15
REMARK    6  A    between atoms: C_18  and  O_19
REMARK                            x       y       z     vdW  Elec       q    Type
REMARK                         _______ _______ _______ _____ _____    ______ ____
ROOT
ATOM      1  C   UNL     1      44.971   4.836  12.319  0.00  0.00    +0.000 A 
ATOM      2  C   UNL     1      45.499   3.703  12.948  0.00  0.00    +0.000 A 
ATOM      3  C   UNL     1      46.725   3.755  13.606  0.00  0.00    +0.000 A 
ATOM      4  C   UNL     1      47.465   4.940  13.617  0.00  0.00    +0.000 A 
ATOM      5  C   UNL     1      46.980   6.112  13.031  0.00  0.00    +0.000 A 
ATOM      6  C   UNL     1      45.702   6.034  12.454  0.00  0.00    +0.000 A 
ENDROOT
BRANCH   5   7
ATOM      7  N   UNL     1      47.707   7.287  12.989  0.00  0.00    +0.000 N 
ATOM      8  C   UNL     1      49.149   7.287  12.720  0.00  0.00    +0.000 C 
ATOM      9  C   UNL     1      49.431   8.202  11.535  0.00  0.00    +0.000 C 
ATOM     10  C   UNL     1      48.849   9.598  11.762  0.00  0.00    +0.000 C 
ATOM     11  C   UNL     1      47.379   9.553  12.180  0.00  0.00    +0.000 C 
ATOM     12  C   UNL     1      47.130   8.584  13.337  0.00  0.00    +0.000 C 
BRANCH  10  13
ATOM     13  O   UNL     1      49.623  10.309  12.729  0.00  0.00    +0.000 OA
ATOM     14  H   UNL     1      49.033  10.870  13.257  0.00  0.00    +0.000 HD
ENDBRANCH  10  13
ENDBRANCH   5   7
BRANCH   1  15
ATOM     15  C   UNL     1      43.724   4.783  11.439  0.00  0.00    +0.000 C 
ATOM     16  C   UNL     1      42.405   5.219  12.081  0.00  0.00    +0.000 C 
ATOM     17  C   UNL     1      43.044   6.084  11.050  0.00  0.00    +0.000 C 
BRANCH  15  18
ATOM     18  O   UNL     1      43.551   3.647  10.549  0.00  0.00    +0.000 OA
BRANCH  18  23
ATOM     19  C   UNL     1      45.898   2.037   8.287  0.00  0.00    +0.000 A 
ATOM     20  C   UNL     1      46.361   3.153   7.602  0.00  0.00    +0.000 A 
ATOM     21  N   UNL     1      45.918   4.411   7.827  0.00  0.00    +0.000 NA
ATOM     22  C   UNL     1      44.981   4.557   8.794  0.00  0.00    +0.000 A 
ATOM     23  C   UNL     1      44.486   3.509   9.561  0.00  0.00    +0.000 A 
ATOM     24  C   UNL     1      44.934   2.224   9.278  0.00  0.00    +0.000 A 
BRANCH  19  26
ATOM     25  N   UNL     1      46.810  -0.322   7.737  0.00  0.00    +0.000 NA
ATOM     26  C   UNL     1      46.404   0.740   7.980  0.00  0.00    +0.000 C 
ENDBRANCH  19  26
ENDBRANCH  18  23
ENDBRANCH  15  18
ENDBRANCH   1  15
TORSDOF 6
ENDMDL
MODEL 2
REMARK VINA RESULT:    -6.745      2.550      6.976
REMARK INTER + INTRA:          -9.772
REMARK INTER:                  -9.018
REMARK INTRA:                  -0.754
REMARK UNBOUND:                -0.858
REMARK  Name = 
REMARK  6 active torsions:
REMARK  status: ('A' for Active; 'I' for Inactive)
REMARK    1  A    between atoms: C_2  and  C_3
REMARK    2  A    between atoms: C_7  and  O_8
REMARK    3  A    between atoms: O_8  and  C_9
REMARK    4  A    between atoms: C_9  and  C_10
REMARK    5  A    between atoms: C_14  and  N_15
REMARK    6  A    between atoms: C_18  and  O_19
REMARK                            x       y       z     vdW  Elec       q    Type
REMARK                         _______ _______ _______ _____ _____    ______ ____
ROOT
ATOM      1  C   UNL     1      45.199   4.683  11.600  0.00  0.00    +0.000 A 
ATOM      2  C   UNL     1      44.102   4.068  12.214  0.00  0.00    +0.000 A 
ATOM      3  C   UNL     1      43.481   2.966  11.631  0.00  0.00    +0.000 A 
ATOM      4  C   UNL     1      43.927   2.480  10.400  0.00  0.00    +0.000 A 
ATOM      5  C   UNL     1      45.034   3.034   9.750  0.00  0.00    +0.000 A 
ATOM      6  C   UNL     1      45.680   4.087  10.417  0.00  0.00    +0.000 A 
ENDROOT
BRANCH   5   7
ATOM      7  N   UNL     1      45.471   2.602   8.512  0.00  0.00    +0.000 N 
ATOM      8  C   UNL     1      45.527   3.507   7.360  0.00  0.00    +0.000 C 
ATOM      9  C   UNL     1      46.940   3.494   6.789  0.00  0.00    +0.000 C 
ATOM     10  C   UNL     1      47.396   2.070   6.474  0.00  0.00    +0.000 C 
ATOM     11  C   UNL     1      47.191   1.119   7.653  0.00  0.00    +0.000 C 
ATOM     12  C   UNL     1      45.778   1.201   8.229  0.00  0.00    +0.000 C 
BRANCH  10  13
ATOM     13  O   UNL     1      46.727   1.578   5.311  0.00  0.00    +0.000 OA
ATOM     14  H   UNL     1      47.281   0.902   4.889  0.00  0.00    +0.000 HD
ENDBRANCH  10  13
ENDBRANCH   5   7
BRANCH   1  15
ATOM     15  C   UNL     1      45.797   5.993  12.108  0.00  0.00    +0.000 C 
ATOM     16  C   UNL     1      45.242   7.287  11.508  0.00  0.00    +0.000 C 
ATOM     17  C   UNL     1      44.924   6.933  12.920  0.00  0.00    +0.000 C 
BRANCH  15  18
ATOM     18  O   UNL     1      47.233   6.063  12.324  0.00  0.00    +0.000 OA
BRANCH  18  23
ATOM     19  C   UNL     1      47.580   4.903  15.752  0.00  0.00    +0.000 A 
ATOM     20  C   UNL     1      48.427   5.888  16.245  0.00  0.00    +0.000 A 
ATOM     21  N   UNL     1      48.914   6.904  15.497  0.00  0.00    +0.000 NA
ATOM     22  C   UNL     1      48.522   6.941  14.200  0.00  0.00    +0.000 A 
ATOM     23  C   UNL     1      47.647   6.027  13.628  0.00  0.00    +0.000 A 
ATOM     24  C   UNL     1      47.194   4.973  14.414  0.00  0.00    +0.000 A 
BRANCH  19  26
ATOM     25  N   UNL     1      46.738   3.006  17.298  0.00  0.00    +0.000 NA
ATOM     26  C   UNL     1      47.121   3.855  16.602  0.00  0.00    +0.000 C 
ENDBRANCH  19  26
ENDBRANCH  18  23
ENDBRANCH  15  18
ENDBRANCH   1  15
TORSDOF 6
ENDMDL
MODEL 3
REMARK VINA RESULT:    -6.542      2.908      7.567
REMARK INTER + INTRA:          -9.503
REMARK INTER:                  -8.525
REMARK INTRA:                  -0.978
REMARK UNBOUND:                -0.858
REMARK  Name = 
REMARK  6 active torsions:
REMARK  status: ('A' for Active; 'I' for Inactive)
REMARK    1  A    between atoms: C_2  and  C_3
REMARK    2  A    between atoms: C_7  and  O_8
REMARK    3  A    between atoms: O_8  and  C_9
REMARK    4  A    between atoms: C_9  and  C_10
REMARK    5  A    between atoms: C_14  and  N_15
REMARK    6  A    between atoms: C_18  and  O_19
REMARK                            x       y       z     vdW  Elec       q    Type
REMARK                         _______ _______ _______ _____ _____    ______ ____
ROOT
ATOM      1  C   UNL     1      47.705   7.711  13.432  0.00  0.00    +0.000 A 
ATOM      2  C   UNL     1      46.841   8.812  13.443  0.00  0.00    +0.000 A 
ATOM      3  C   UNL     1      45.554   8.717  12.920  0.00  0.00    +0.000 A 
ATOM      4  C   UNL     1      45.119   7.522  12.341  0.00  0.00    +0.000 A 
ATOM      5  C   UNL     1      45.925   6.380  12.324  0.00  0.00    +0.000 A 
ATOM      6  C   UNL     1      47.181   6.499  12.940  0.00  0.00    +0.000 A 
ENDROOT
BRANCH   5   7
ATOM      7  N   UNL     1      45.538   5.198  11.722  0.00  0.00    +0.000 N 
ATOM      8  C   UNL     1      45.518   3.931  12.461  0.00  0.00    +0.000 C 
ATOM      9  C   UNL     1      44.128   3.317  12.352  0.00  0.00    +0.000 C 
ATOM     10  C   UNL     1      43.694   3.183  10.892  0.00  0.00    +0.000 C 
ATOM     11  C   UNL     1      43.862   4.488  10.114  0.00  0.00    +0.000 C 
ATOM     12  C   UNL     1      45.252   5.098  10.292  0.00  0.00    +0.000 C 
BRANCH  10  13
ATOM     13  O   UNL     1      44.411   2.124  10.255  0.00  0.00    +0.000 OA
ATOM     14  H   UNL     1      45.295   2.442  10.013  0.00  0.00    +0.000 HD
ENDBRANCH  10  13
ENDBRANCH   5   7
BRANCH   1  15
ATOM     15  C   UNL     1      49.176   7.816  13.830  0.00  0.00    +0.000 C 
ATOM     16  C   UNL     1      50.151   8.297  12.754  0.00  0.00    +0.000 C 
ATOM     17  C   UNL     1      49.821   9.189  13.900  0.00  0.00    +0.000 C 
BRANCH  15  18
ATOM     18  O   UNL     1      49.747   6.768  14.658  0.00  0.00    +0.000 OA
BRANCH  18  23
ATOM     19  C   UNL     1      47.859   5.046  17.246  0.00  0.00    +0.000 A 
ATOM     20  C   UNL     1      47.867   6.028  18.229  0.00  0.00    +0.000 A 
ATOM     21  N   UNL     1      48.488   7.222  18.095  0.00  0.00    +0.000 NA
ATOM     22  C   UNL     1      49.116   7.447  16.916  0.00  0.00    +0.000 A 
ATOM     23  C   UNL     1      49.129   6.545  15.859  0.00  0.00    +0.000 A 
ATOM     24  C   UNL     1      48.513   5.312  16.043  0.00  0.00    +0.000 A 
BRANCH  19  26
ATOM     25  N   UNL     1      46.661   2.790  17.658  0.00  0.00    +0.000 NA
ATOM     26  C   UNL     1      47.194   3.806  17.470  0.00  0.00    +0.000 C 
ENDBRANCH  19  26
ENDBRANCH  18  23
ENDBRANCH  15  18
ENDBRANCH   1  15
TORSDOF 6
ENDMDL
MODEL 4
REMARK VINA RESULT:    -6.080      2.796      7.835
REMARK INTER + INTRA:          -8.893
REMARK INTER:                  -7.908
REMARK INTRA:                  -0.985
REMARK UNBOUND:                -0.858
REMARK  Name = 
REMARK  6 active torsions:
REMARK  status: ('A' for Active; 'I' for Inactive)
REMARK    1  A    between atoms: C_2  and  C_3
REMARK    2  A    between atoms: C_7  and  O_8
REMARK    3  A    between atoms: O_8  and  C_9
REMARK    4  A    between atoms: C_9  and  C_10
REMARK    5  A    between atoms: C_14  and  N_15
REMARK    6  A    between atoms: C_18  and  O_19
REMARK                            x       y       z     vdW  Elec       q    Type
REMARK                         _______ _______ _______ _____ _____    ______ ____
ROOT
ATOM      1  C   UNL     1      47.576   7.909  12.656  0.00  0.00    +0.000 A 
ATOM      2  C   UNL     1      46.942   9.151  12.539  0.00  0.00    +0.000 A 
ATOM      3  C   UNL     1      45.569   9.235  12.322  0.00  0.00    +0.000 A 
ATOM      4  C   UNL     1      44.808   8.072  12.183  0.00  0.00    +0.000 A 
ATOM      5  C   UNL     1      45.379   6.803  12.317  0.00  0.00    +0.000 A 
ATOM      6  C   UNL     1      46.749   6.768  12.621  0.00  0.00    +0.000 A 
ENDROOT
BRANCH   5   7
ATOM      7  N   UNL     1      44.660   5.635  12.143  0.00  0.00    +0.000 N 
ATOM      8  C   UNL     1      43.579   5.539  11.156  0.00  0.00    +0.000 C 
ATOM      9  C   UNL     1      43.861   4.366  10.226  0.00  0.00    +0.000 C 
ATOM     10  C   UNL     1      44.088   3.076  11.015  0.00  0.00    +0.000 C 
ATOM     11  C   UNL     1      45.119   3.250  12.130  0.00  0.00    +0.000 C 
ATOM     12  C   UNL     1      44.830   4.468  13.007  0.00  0.00    +0.000 C 
BRANCH  10  13
ATOM     13  O   UNL     1      42.853   2.594  11.546  0.00  0.00    +0.000 OA
ATOM     14  H   UNL     1      42.970   1.675  11.836  0.00  0.00    +0.000 HD
ENDBRANCH  10  13
ENDBRANCH   5   7
BRANCH   1  15
ATOM     15  C   UNL     1      49.096   7.764  12.716  0.00  0.00    +0.000 C 
ATOM     16  C   UNL     1      49.829   7.606  11.383  0.00  0.00    +0.000 C 
ATOM     17  C   UNL     1      49.962   8.875  12.151  0.00  0.00    +0.000 C 
BRANCH  15  18
ATOM     18  O   UNL     1      49.673   6.933  13.760  0.00  0.00    +0.000 OA
BRANCH  18  23
ATOM     19  C   UNL     1      48.656   6.778  17.248  0.00  0.00    +0.000 A 
ATOM     20  C   UNL     1      48.957   8.078  17.634  0.00  0.00    +0.000 A 
ATOM     21  N   UNL     1      49.506   9.000  16.810  0.00  0.00    +0.000 NA
ATOM     22  C   UNL     1      49.750   8.603  15.538  0.00  0.00    +0.000 A 
ATOM     23  C   UNL     1      49.445   7.340  15.047  0.00  0.00    +0.000 A 
ATOM     24  C   UNL     1      48.917   6.405  15.930  0.00  0.00    +0.000 A 
BRANCH  19  26
ATOM     25  N   UNL     1      47.627   5.106  18.934  0.00  0.00    +0.000 NA
ATOM     26  C   UNL     1      48.092   5.860  18.181  0.00  0.00    +0.000 C 
ENDBRANCH  19  26
ENDBRANCH  18  23
ENDBRANCH  15  18
ENDBRANCH   1  15
TORSDOF 6
ENDMDL
MODEL 5
REMARK VINA RESULT:    -5.680      3.344      7.849
REMARK INTER + INTRA:          -8.364
REMARK INTER:                  -7.516
REMARK INTRA:                  -0.848
REMARK UNBOUND:                -0.858
REMARK  Name = 
REMARK  6 active torsions:
REMARK  status: ('A' for Active; 'I' for Inactive)
REMARK    1  A    between atoms: C_2  and  C_3
REMARK    2  A    between atoms: C_7  and  O_8
REMARK    3  A    between atoms: O_8  and  C_9
REMARK    4  A    between atoms: C_9  and  C_10
REMARK    5  A    between atoms: C_14  and  N_15
REMARK    6  A    between atoms: C_18  and  O_19
REMARK                            x       y       z     vdW  Elec       q    Type
REMARK                         _______ _______ _______ _____ _____    ______ ____
ROOT
ATOM      1  C   UNL     1      48.561   7.996  13.848  0.00  0.00    +0.000 A 
ATOM      2  C   UNL     1      49.328   8.233  12.701  0.00  0.00    +0.000 A 
ATOM      3  C   UNL     1      48.930   7.742  11.460  0.00  0.00    +0.000 A 
ATOM      4  C   UNL     1      47.770   6.971  11.350  0.00  0.00    +0.000 A 
ATOM      5  C   UNL     1      46.948   6.723  12.453  0.00  0.00    +0.000 A 
ATOM      6  C   UNL     1      47.343   7.310  13.665  0.00  0.00    +0.000 A 
ENDROOT
BRANCH   5   7
ATOM      7  N   UNL     1      45.818   5.930  12.382  0.00  0.00    +0.000 N 
ATOM      8  C   UNL     1      44.732   6.223  11.442  0.00  0.00    +0.000 C 
ATOM      9  C   UNL     1      44.474   4.990  10.584  0.00  0.00    +0.000 C 
ATOM     10  C   UNL     1      44.219   3.757  11.451  0.00  0.00    +0.000 C 
ATOM     11  C   UNL     1      45.298   3.562  12.516  0.00  0.00    +0.000 C 
ATOM     12  C   UNL     1      45.564   4.836  13.318  0.00  0.00    +0.000 C 
BRANCH  10  13
ATOM     13  O   UNL     1      42.927   3.831  12.055  0.00  0.00    +0.000 OA
ATOM     14  H   UNL     1      42.884   4.625  12.612  0.00  0.00    +0.000 HD
ENDBRANCH  10  13
ENDBRANCH   5   7
BRANCH   1  15
ATOM     15  C   UNL     1      49.045   8.360  15.250  0.00  0.00    +0.000 C 
ATOM     16  C   UNL     1      49.293   9.842  15.533  0.00  0.00    +0.000 C 
ATOM     17  C   UNL     1      48.127   9.158  16.159  0.00  0.00    +0.000 C 
BRANCH  15  18
ATOM     18  O   UNL     1      50.036   7.507  15.885  0.00  0.00    +0.000 OA
BRANCH  18  23
ATOM     19  C   UNL     1      48.248   4.947  17.749  0.00  0.00    +0.000 A 
ATOM     20  C   UNL     1      48.679   5.253  19.033  0.00  0.00    +0.000 A 
ATOM     21  N   UNL     1      49.554   6.246  19.317  0.00  0.00    +0.000 NA
ATOM     22  C   UNL     1      50.004   6.972  18.265  0.00  0.00    +0.000 A 
ATOM     23  C   UNL     1      49.600   6.770  16.952  0.00  0.00    +0.000 A 
ATOM     24  C   UNL     1      48.729   5.718  16.690  0.00  0.00    +0.000 A 
BRANCH  19  26
ATOM     25  N   UNL     1      46.600   2.992  17.352  0.00  0.00    +0.000 NA
ATOM     26  C   UNL     1      47.336   3.875  17.530  0.00  0.00    +0.000 C 
ENDBRANCH  19  26
ENDBRANCH  18  23
ENDBRANCH  15  18
ENDBRANCH   1  15
TORSDOF 6
ENDMDL
MODEL 6
REMARK VINA RESULT:    -5.648      2.586      7.034
REMARK INTER + INTRA:          -8.322
REMARK INTER:                  -7.406
REMARK INTRA:                  -0.916
REMARK UNBOUND:                -0.858
REMARK  Name = 
REMARK  6 active torsions:
REMARK  status: ('A' for Active; 'I' for Inactive)
REMARK    1  A    between atoms: C_2  and  C_3
REMARK    2  A    between atoms: C_7  and  O_8
REMARK    3  A    between atoms: O_8  and  C_9
REMARK    4  A    between atoms: C_9  and  C_10
REMARK    5  A    between atoms: C_14  and  N_15
REMARK    6  A    between atoms: C_18  and  O_19
REMARK                            x       y       z     vdW  Elec       q    Type
REMARK                         _______ _______ _______ _____ _____    ______ ____
ROOT
ATOM      1  C   UNL     1      48.239   6.912  13.562  0.00  0.00    +0.000 A 
ATOM      2  C   UNL     1      48.637   6.515  14.844  0.00  0.00    +0.000 A 
ATOM      3  C   UNL     1      48.003   5.460  15.495  0.00  0.00    +0.000 A 
ATOM      4  C   UNL     1      46.931   4.802  14.887  0.00  0.00    +0.000 A 
ATOM      5  C   UNL     1      46.505   5.134  13.598  0.00  0.00    +0.000 A 
ATOM      6  C   UNL     1      47.228   6.145  12.947  0.00  0.00    +0.000 A 
ENDROOT
BRANCH   5   7
ATOM      7  N   UNL     1      45.421   4.530  12.988  0.00  0.00    +0.000 N 
ATOM      8  C   UNL     1      44.087   5.138  13.019  0.00  0.00    +0.000 C 
ATOM      9  C   UNL     1      43.579   5.290  11.590  0.00  0.00    +0.000 C 
ATOM     10  C   UNL     1      43.630   3.958  10.840  0.00  0.00    +0.000 C 
ATOM     11  C   UNL     1      44.997   3.283  10.948  0.00  0.00    +0.000 C 
ATOM     12  C   UNL     1      45.494   3.197  12.391  0.00  0.00    +0.000 C 
BRANCH  10  13
ATOM     13  O   UNL     1      42.601   3.084  11.306  0.00  0.00    +0.000 OA
ATOM     14  H   UNL     1      41.879   3.071  10.657  0.00  0.00    +0.000 HD
ENDBRANCH  10  13
ENDBRANCH   5   7
BRANCH   1  15
ATOM     15  C   UNL     1      48.781   8.168  12.885  0.00  0.00    +0.000 C 
ATOM     16  C   UNL     1      50.265   8.168  12.512  0.00  0.00    +0.000 C 
ATOM     17  C   UNL     1      49.235   8.085  11.438  0.00  0.00    +0.000 C 
BRANCH  15  18
ATOM     18  O   UNL     1      48.339   9.464  13.371  0.00  0.00    +0.000 OA
BRANCH  18  23
ATOM     19  C   UNL     1      45.409  10.328  11.401  0.00  0.00    +0.000 A 
ATOM     20  C   UNL     1      45.839  11.535  10.863  0.00  0.00    +0.000 A 
ATOM     21  N   UNL     1      47.039  12.096  11.139  0.00  0.00    +0.000 NA
ATOM     22  C   UNL     1      47.848  11.408  11.979  0.00  0.00    +0.000 A 
ATOM     23  C   UNL     1      47.524  10.176  12.534  0.00  0.00    +0.000 A 
ATOM     24  C   UNL     1      46.268   9.645  12.260  0.00  0.00    +0.000 A 
BRANCH  19  26
ATOM     25  N   UNL     1      43.069   9.389  10.816  0.00  0.00    +0.000 NA
ATOM     26  C   UNL     1      44.122   9.810  11.073  0.00  0.00    +0.000 C 
ENDBRANCH  19  26
ENDBRANCH  18  23
ENDBRANCH  15  18
ENDBRANCH   1  15
TORSDOF 6
ENDMDL
MODEL 7
REMARK VINA RESULT:    -5.628      4.506      8.921
REMARK INTER + INTRA:          -8.295
REMARK INTER:                  -7.649
REMARK INTRA:                  -0.646
REMARK UNBOUND:                -0.858
REMARK  Name = 
REMARK  6 active torsions:
REMARK  status: ('A' for Active; 'I' for Inactive)
REMARK    1  A    between atoms: C_2  and  C_3
REMARK    2  A    between atoms: C_7  and  O_8
REMARK    3  A    between atoms: O_8  and  C_9
REMARK    4  A    between atoms: C_9  and  C_10
REMARK    5  A    between atoms: C_14  and  N_15
REMARK    6  A    between atoms: C_18  and  O_19
REMARK                            x       y       z     vdW  Elec       q    Type
REMARK                         _______ _______ _______ _____ _____    ______ ____
ROOT
ATOM      1  C   UNL     1      47.725   5.039  15.718  0.00  0.00    +0.000 A 
ATOM      2  C   UNL     1      48.499   6.167  15.425  0.00  0.00    +0.000 A 
ATOM      3  C   UNL     1      48.395   6.807  14.192  0.00  0.00    +0.000 A 
ATOM      4  C   UNL     1      47.534   6.305  13.212  0.00  0.00    +0.000 A 
ATOM      5  C   UNL     1      46.715   5.198  13.454  0.00  0.00    +0.000 A 
ATOM      6  C   UNL     1      46.792   4.639  14.740  0.00  0.00    +0.000 A 
ENDROOT
BRANCH   5   7
ATOM      7  N   UNL     1      45.887   4.654  12.491  0.00  0.00    +0.000 N 
ATOM      8  C   UNL     1      45.474   3.247  12.541  0.00  0.00    +0.000 C 
ATOM      9  C   UNL     1      43.952   3.177  12.509  0.00  0.00    +0.000 C 
ATOM     10  C   UNL     1      43.387   3.941  11.311  0.00  0.00    +0.000 C 
ATOM     11  C   UNL     1      43.949   5.359  11.209  0.00  0.00    +0.000 C 
ATOM     12  C   UNL     1      45.475   5.390  11.297  0.00  0.00    +0.000 C 
BRANCH  10  13
ATOM     13  O   UNL     1      43.627   3.219  10.102  0.00  0.00    +0.000 OA
ATOM     14  H   UNL     1      43.514   3.819   9.347  0.00  0.00    +0.000 HD
ENDBRANCH  10  13
ENDBRANCH   5   7
BRANCH   1  15
ATOM     15  C   UNL     1      47.932   4.205  16.980  0.00  0.00    +0.000 C 
ATOM     16  C   UNL     1      48.167   2.705  16.788  0.00  0.00    +0.000 C 
ATOM     17  C   UNL     1      49.292   3.576  17.229  0.00  0.00    +0.000 C 
BRANCH  15  18
ATOM     18  O   UNL     1      47.104   4.485  18.141  0.00  0.00    +0.000 OA
BRANCH  18  23
ATOM     19  C   UNL     1      47.697   7.690  19.752  0.00  0.00    +0.000 A 
ATOM     20  C   UNL     1      48.560   7.285  20.762  0.00  0.00    +0.000 A 
ATOM     21  N   UNL     1      48.938   6.001  20.959  0.00  0.00    +0.000 NA
ATOM     22  C   UNL     1      48.438   5.086  20.094  0.00  0.00    +0.000 A 
ATOM     23  C   UNL     1      47.602   5.399  19.029  0.00  0.00    +0.000 A 
ATOM     24  C   UNL     1      47.203   6.722  18.878  0.00  0.00    +0.000 A 
BRANCH  19  26
ATOM     25  N   UNL     1      47.047  10.184  19.520  0.00  0.00    +0.000 NA
ATOM     26  C   UNL     1      47.334   9.062  19.620  0.00  0.00    +0.000 C 
ENDBRANCH  19  26
ENDBRANCH  18  23
ENDBRANCH  15  18
ENDBRANCH   1  15
TORSDOF 6
ENDMDL
MODEL 8
REMARK VINA RESULT:    -5.272      2.445      6.939
REMARK INTER + INTRA:          -7.825
REMARK INTER:                  -7.030
REMARK INTRA:                  -0.794
REMARK UNBOUND:                -0.858
REMARK  Name = 
REMARK  6 active torsions:
REMARK  status: ('A' for Active; 'I' for Inactive)
REMARK    1  A    between atoms: C_2  and  C_3
REMARK    2  A    between atoms: C_7  and  O_8
REMARK    3  A    between atoms: O_8  and  C_9
REMARK    4  A    between atoms: C_9  and  C_10
REMARK    5  A    between atoms: C_14  and  N_15
REMARK    6  A    between atoms: C_18  and  O_19
REMARK                            x       y       z     vdW  Elec       q    Type
REMARK                         _______ _______ _______ _____ _____    ______ ____
ROOT
ATOM      1  C   UNL     1      48.013   6.842  14.190  0.00  0.00    +0.000 A 
ATOM      2  C   UNL     1      48.118   5.880  15.201  0.00  0.00    +0.000 A 
ATOM      3  C   UNL     1      47.433   4.670  15.110  0.00  0.00    +0.000 A 
ATOM      4  C   UNL     1      46.599   4.416  14.018  0.00  0.00    +0.000 A 
ATOM      5  C   UNL     1      46.475   5.326  12.965  0.00  0.00    +0.000 A 
ATOM      6  C   UNL     1      47.250   6.492  13.058  0.00  0.00    +0.000 A 
ENDROOT
BRANCH   5   7
ATOM      7  N   UNL     1      45.626   5.121  11.893  0.00  0.00    +0.000 N 
ATOM      8  C   UNL     1      45.558   6.068  10.776  0.00  0.00    +0.000 C 
ATOM      9  C   UNL     1      45.815   5.318   9.475  0.00  0.00    +0.000 C 
ATOM     10  C   UNL     1      44.869   4.126   9.327  0.00  0.00    +0.000 C 
ATOM     11  C   UNL     1      44.858   3.235  10.570  0.00  0.00    +0.000 C 
ATOM     12  C   UNL     1      44.650   4.032  11.858  0.00  0.00    +0.000 C 
BRANCH  10  13
ATOM     13  O   UNL     1      43.547   4.574   9.021  0.00  0.00    +0.000 OA
ATOM     14  H   UNL     1      43.598   5.452   8.611  0.00  0.00    +0.000 HD
ENDBRANCH  10  13
ENDBRANCH   5   7
BRANCH   1  15
ATOM     15  C   UNL     1      48.600   8.245  14.328  0.00  0.00    +0.000 C 
ATOM     16  C   UNL     1      48.269   9.011  15.611  0.00  0.00    +0.000 C 
ATOM     17  C   UNL     1      49.652   8.500  15.393  0.00  0.00    +0.000 C 
BRANCH  15  18
ATOM     18  O   UNL     1      48.609   9.111  13.161  0.00  0.00    +0.000 OA
BRANCH  18  23
ATOM     19  C   UNL     1      51.576   8.457  11.164  0.00  0.00    +0.000 A 
ATOM     20  C   UNL     1      52.260   9.649  11.369  0.00  0.00    +0.000 A 
ATOM     21  N   UNL     1      51.780  10.673  12.111  0.00  0.00    +0.000 NA
ATOM     22  C   UNL     1      50.567  10.487  12.685  0.00  0.00    +0.000 A 
ATOM     23  C   UNL     1      49.827   9.316  12.573  0.00  0.00    +0.000 A 
ATOM     24  C   UNL     1      50.332   8.297  11.772  0.00  0.00    +0.000 A 
BRANCH  19  26
ATOM     25  N   UNL     1      52.601   6.597   9.686  0.00  0.00    +0.000 NA
ATOM     26  C   UNL     1      52.143   7.430  10.355  0.00  0.00    +0.000 C 
ENDBRANCH  19  26
ENDBRANCH  18  23
ENDBRANCH  15  18
ENDBRANCH   1  15
TORSDOF 6
ENDMDL
MODEL 9
REMARK VINA RESULT:    -5.266      3.647      7.616
REMARK INTER + INTRA:          -7.817
REMARK INTER:                  -7.131
REMARK INTRA:                  -0.687
REMARK UNBOUND:                -0.858
REMARK  Name = 
REMARK  6 active torsions:
REMARK  status: ('A' for Active; 'I' for Inactive)
REMARK    1  A    between atoms: C_2  and  C_3
REMARK    2  A    between atoms: C_7  and  O_8
REMARK    3  A    between atoms: O_8  and  C_9
REMARK    4  A    between atoms: C_9  and  C_10
REMARK    5  A    between atoms: C_14  and  N_15
REMARK    6  A    between atoms: C_18  and  O_19
REMARK                            x       y       z     vdW  Elec       q    Type
REMARK                         _______ _______ _______ _____ _____    ______ ____
ROOT
ATOM      1  C   UNL     1      49.322   7.882  14.928  0.00  0.00    +0.000 A 
ATOM      2  C   UNL     1      50.383   8.228  14.084  0.00  0.00    +0.000 A 
ATOM      3  C   UNL     1      50.356   7.903  12.730  0.00  0.00    +0.000 A 
ATOM      4  C   UNL     1      49.276   7.192  12.200  0.00  0.00    +0.000 A 
ATOM      5  C   UNL     1      48.174   6.841  12.986  0.00  0.00    +0.000 A 
ATOM      6  C   UNL     1      48.208   7.265  14.324  0.00  0.00    +0.000 A 
ENDROOT
BRANCH   5   7
ATOM      7  N   UNL     1      47.113   6.102  12.501  0.00  0.00    +0.000 N 
ATOM      8  C   UNL     1      46.656   4.882  13.175  0.00  0.00    +0.000 C 
ATOM      9  C   UNL     1      45.169   5.015  13.484  0.00  0.00    +0.000 C 
ATOM     10  C   UNL     1      44.371   5.357  12.226  0.00  0.00    +0.000 C 
ATOM     11  C   UNL     1      44.960   6.547  11.469  0.00  0.00    +0.000 C 
ATOM     12  C   UNL     1      46.462   6.399  11.226  0.00  0.00    +0.000 C 
BRANCH  10  13
ATOM     13  O   UNL     1      44.277   4.217  11.370  0.00  0.00    +0.000 OA
ATOM     14  H   UNL     1      44.688   3.456  11.811  0.00  0.00    +0.000 HD
ENDBRANCH  10  13
ENDBRANCH   5   7
BRANCH   1  15
ATOM     15  C   UNL     1      49.385   8.057  16.443  0.00  0.00    +0.000 C 
ATOM     16  C   UNL     1      49.602   9.479  16.967  0.00  0.00    +0.000 C 
ATOM     17  C   UNL     1      48.276   8.824  17.141  0.00  0.00    +0.000 C 
BRANCH  15  18
ATOM     18  O   UNL     1      50.108   7.069  17.227  0.00  0.00    +0.000 OA
BRANCH  18  23
ATOM     19  C   UNL     1      49.632   3.469  17.414  0.00  0.00    +0.000 A 
ATOM     20  C   UNL     1      48.286   3.432  17.756  0.00  0.00    +0.000 A 
ATOM     21  N   UNL     1      47.530   4.536  17.957  0.00  0.00    +0.000 NA
ATOM     22  C   UNL     1      48.148   5.730  17.792  0.00  0.00    +0.000 A 
ATOM     23  C   UNL     1      49.477   5.869  17.411  0.00  0.00    +0.000 A 
ATOM     24  C   UNL     1      50.236   4.715  17.250  0.00  0.00    +0.000 A 
BRANCH  19  26
ATOM     25  N   UNL     1      50.970   1.280  17.083  0.00  0.00    +0.000 NA
ATOM     26  C   UNL     1      50.365   2.260  17.235  0.00  0.00    +0.000 C 
ENDBRANCH  19  26
ENDBRANCH  18  23
ENDBRANCH  15  18
ENDBRANCH   1  15
TORSDOF 6
ENDMDL
