MODEL 1
REMARK VINA RESULT:    -7.850      0.000      0.000
REMARK INTER + INTRA:         -11.651
REMARK INTER:                 -10.604
REMARK INTRA:                  -1.047
REMARK UNBOUND:                -1.047
REMARK  Name = 
REMARK  6 active torsions:
REMARK  status: ('A' for Active; 'I' for Inactive)
REMARK    1  A    between atoms: C_2  and  C_4
REMARK    2  A    between atoms: C_8  and  C_9
REMARK    3  A    between atoms: C_9  and  C_10
REMARK    4  A    between atoms: C_13  and  C_14
REMARK    5  A    between atoms: C_14  and  N_15
REMARK    6  A    between atoms: C_16  and  C_18
REMARK                            x       y       z     vdW  Elec       q    Type
REMARK                         _______ _______ _______ _____ _____    ______ ____
ROOT
ATOM      1  C   UNL     1      44.824   6.066  11.092  0.00  0.00    +0.000 A 
ATOM      2  C   UNL     1      46.018   5.487  11.515  0.00  0.00    +0.000 A 
ATOM      3  C   UNL     1      46.877   6.224  12.329  0.00  0.00    +0.000 A 
ATOM      4  C   UNL     1      46.547   7.533  12.691  0.00  0.00    +0.000 A 
ATOM      5  C   UNL     1      45.351   8.036  12.194  0.00  0.00    +0.000 A 
ATOM      6  N   UNL     1      44.492   7.345  11.408  0.00  0.00    +0.000 NA
ENDROOT
BRANCH   1   7
ATOM      7  C   UNL     1      43.783   5.234  10.366  0.00  0.00    +0.000 C 
BRANCH   7  12
ATOM      8  C   UNL     1      45.918   3.187   7.936  0.00  0.00    +0.000 A 
ATOM      9  C   UNL     1      45.685   1.884   8.392  0.00  0.00    +0.000 A 
ATOM     10  C   UNL     1      44.772   1.662   9.421  0.00  0.00    +0.000 A 
ATOM     11  C   UNL     1      44.118   2.741  10.017  0.00  0.00    +0.000 A 
ATOM     12  C   UNL     1      44.394   4.060   9.622  0.00  0.00    +0.000 A 
ATOM     13  C   UNL     1      45.283   4.272   8.558  0.00  0.00    +0.000 A 
BRANCH   8  15
ATOM     14  N   UNL     1      48.043   2.778   6.825  0.00  0.00    +0.000 N 
ATOM     15  C   UNL     1      46.857   3.460   6.818  0.00  0.00    +0.000 C 
ATOM     16  O   UNL     1      46.573   4.228   5.910  0.00  0.00    +0.000 OA
ATOM     17  H   UNL     1      48.618   2.876   5.997  0.00  0.00    +0.000 HD
ATOM     18  H   UNL     1      48.184   1.957   7.394  0.00  0.00    +0.000 HD
ENDBRANCH   8  15
ENDBRANCH   7  12
ENDBRANCH   1   7
BRANCH   4  19
ATOM     19  C   UNL     1      47.402   8.344  13.623  0.00  0.00    +0.000 C 
BRANCH  19  20
ATOM     20  N   UNL     1      47.741   7.594  14.808  0.00  0.00    +0.000 N 
ATOM     21  C   UNL     1      49.022   7.166  15.062  0.00  0.00    +0.000 C 
ATOM     22  O   UNL     1      49.962   7.426  14.319  0.00  0.00    +0.000 OA
ATOM     23  H   UNL     1      46.973   7.129  15.280  0.00  0.00    +0.000 HD
BRANCH  21  24
ATOM     24  C   UNL     1      49.212   6.439  16.324  0.00  0.00    +0.000 A 
ATOM     25  C   UNL     1      50.053   6.942  17.310  0.00  0.00    +0.000 A 
ATOM     26  S   UNL     1      50.066   6.010  18.741  0.00  0.00    +0.000 S 
ATOM     27  C   UNL     1      48.995   4.867  18.075  0.00  0.00    +0.000 A 
ATOM     28  N   UNL     1      48.594   3.778  18.785  0.00  0.00    +0.000 NA
ATOM     29  C   UNL     1      47.804   2.983  18.144  0.00  0.00    +0.000 A 
ATOM     30  N   UNL     1      47.374   3.180  16.856  0.00  0.00    +0.000 N 
ATOM     31  C   UNL     1      47.738   4.272  16.110  0.00  0.00    +0.000 A 
ATOM     32  O   UNL     1      47.317   4.430  14.966  0.00  0.00    +0.000 OA
ATOM     33  C   UNL     1      48.627   5.199  16.783  0.00  0.00    +0.000 A 
ATOM     34  H   UNL     1      46.751   2.523  16.410  0.00  0.00    +0.000 HD
ENDBRANCH  21  24
ENDBRANCH  19  20
ENDBRANCH   4  19
TORSDOF 6
ENDMDL
MODEL 2
REMARK VINA RESULT:    -7.713      3.483      8.370
REMARK INTER + INTRA:         -11.465
REMARK INTER:                 -10.480
REMARK INTRA:                  -0.985
REMARK UNBOUND:                -1.047
REMARK  Name = 
REMARK  6 active torsions:
REMARK  status: ('A' for Active; 'I' for Inactive)
REMARK    1  A    between atoms: C_2  and  C_4
REMARK    2  A    between atoms: C_8  and  C_9
REMARK    3  A    between atoms: C_9  and  C_10
REMARK    4  A    between atoms: C_13  and  C_14
REMARK    5  A    between atoms: C_14  and  N_15
REMARK    6  A    between atoms: C_16  and  C_18
REMARK                            x       y       z     vdW  Elec       q    Type
REMARK                         _______ _______ _______ _____ _____    ______ ____
ROOT
ATOM      1  C   UNL     1      49.789   6.688  16.158  0.00  0.00    +0.000 A 
ATOM      2  C   UNL     1      50.625   7.492  15.388  0.00  0.00    +0.000 A 
ATOM      3  C   UNL     1      50.226   7.841  14.097  0.00  0.00    +0.000 A 
ATOM      4  C   UNL     1      49.016   7.366  13.585  0.00  0.00    +0.000 A 
ATOM      5  C   UNL     1      48.266   6.543  14.417  0.00  0.00    +0.000 A 
ATOM      6  N   UNL     1      48.619   6.192  15.676  0.00  0.00    +0.000 NA
ENDROOT
BRANCH   1   7
ATOM      7  C   UNL     1      50.097   6.444  17.624  0.00  0.00    +0.000 C 
BRANCH   7  12
ATOM      8  C   UNL     1      51.502   2.883  17.599  0.00  0.00    +0.000 A 
ATOM      9  C   UNL     1      52.819   3.102  18.021  0.00  0.00    +0.000 A 
ATOM     10  C   UNL     1      53.223   4.380  18.398  0.00  0.00    +0.000 A 
ATOM     11  C   UNL     1      52.326   5.446  18.322  0.00  0.00    +0.000 A 
ATOM     12  C   UNL     1      51.023   5.259  17.832  0.00  0.00    +0.000 A 
ATOM     13  C   UNL     1      50.611   3.961  17.494  0.00  0.00    +0.000 A 
BRANCH   8  15
ATOM     14  N   UNL     1      51.504   0.477  17.956  0.00  0.00    +0.000 N 
ATOM     15  C   UNL     1      51.024   1.528  17.223  0.00  0.00    +0.000 C 
ATOM     16  O   UNL     1      50.209   1.357  16.327  0.00  0.00    +0.000 OA
ATOM     17  H   UNL     1      51.078  -0.424  17.775  0.00  0.00    +0.000 HD
ATOM     18  H   UNL     1      51.949   0.609  18.852  0.00  0.00    +0.000 HD
ENDBRANCH   8  15
ENDBRANCH   7  12
ENDBRANCH   1   7
BRANCH   4  19
ATOM     19  C   UNL     1      48.509   7.770  12.230  0.00  0.00    +0.000 C 
BRANCH  19  20
ATOM     20  N   UNL     1      47.708   6.727  11.637  0.00  0.00    +0.000 N 
ATOM     21  C   UNL     1      46.358   6.869  11.429  0.00  0.00    +0.000 C 
ATOM     22  O   UNL     1      45.756   7.903  11.697  0.00  0.00    +0.000 OA
ATOM     23  H   UNL     1      48.097   5.790  11.670  0.00  0.00    +0.000 HD
BRANCH  21  24
ATOM     24  C   UNL     1      45.687   5.728  10.791  0.00  0.00    +0.000 A 
ATOM     25  C   UNL     1      45.814   5.508   9.424  0.00  0.00    +0.000 A 
ATOM     26  S   UNL     1      45.049   4.080   8.886  0.00  0.00    +0.000 S 
ATOM     27  C   UNL     1      44.469   3.733  10.449  0.00  0.00    +0.000 A 
ATOM     28  N   UNL     1      43.711   2.630  10.691  0.00  0.00    +0.000 NA
ATOM     29  C   UNL     1      43.319   2.509  11.915  0.00  0.00    +0.000 A 
ATOM     30  N   UNL     1      43.621   3.391  12.922  0.00  0.00    +0.000 N 
ATOM     31  C   UNL     1      44.396   4.505  12.727  0.00  0.00    +0.000 A 
ATOM     32  O   UNL     1      44.666   5.263  13.656  0.00  0.00    +0.000 OA
ATOM     33  C   UNL     1      44.864   4.689  11.367  0.00  0.00    +0.000 A 
ATOM     34  H   UNL     1      43.288   3.239  13.863  0.00  0.00    +0.000 HD
ENDBRANCH  21  24
ENDBRANCH  19  20
ENDBRANCH   4  19
TORSDOF 6
ENDMDL
MODEL 3
REMARK VINA RESULT:    -7.595      2.705      8.230
REMARK INTER + INTRA:         -11.306
REMARK INTER:                 -10.141
REMARK INTRA:                  -1.165
REMARK UNBOUND:                -1.047
REMARK  Name = 
REMARK  6 active torsions:
REMARK  status: ('A' for Active; 'I' for Inactive)
REMARK    1  A    between atoms: C_2  and  C_4
REMARK    2  A    between atoms: C_8  and  C_9
REMARK    3  A    between atoms: C_9  and  C_10
REMARK    4  A    between atoms: C_13  and  C_14
REMARK    5  A    between atoms: C_14  and  N_15
REMARK    6  A    between atoms: C_16  and  C_18
REMARK                            x       y       z     vdW  Elec       q    Type
REMARK                         _______ _______ _______ _____ _____    ______ ____
ROOT
ATOM      1  C   UNL     1      49.474   7.947  15.639  0.00  0.00    +0.000 A 
ATOM      2  C   UNL     1      48.346   8.741  15.446  0.00  0.00    +0.000 A 
ATOM      3  C   UNL     1      47.727   8.745  14.196  0.00  0.00    +0.000 A 
ATOM      4  C   UNL     1      48.253   7.980  13.152  0.00  0.00    +0.000 A 
ATOM      5  C   UNL     1      49.400   7.247  13.430  0.00  0.00    +0.000 A 
ATOM      6  N   UNL     1      50.021   7.215  14.634  0.00  0.00    +0.000 NA
ENDROOT
BRANCH   1   7
ATOM      7  C   UNL     1      50.060   7.771  17.028  0.00  0.00    +0.000 C 
BRANCH   7  12
ATOM      8  C   UNL     1      48.240   4.466  17.673  0.00  0.00    +0.000 A 
ATOM      9  C   UNL     1      48.879   4.020  18.836  0.00  0.00    +0.000 A 
ATOM     10  C   UNL     1      49.829   4.826  19.458  0.00  0.00    +0.000 A 
ATOM     11  C   UNL     1      50.167   6.061  18.902  0.00  0.00    +0.000 A 
ATOM     12  C   UNL     1      49.589   6.492  17.697  0.00  0.00    +0.000 A 
ATOM     13  C   UNL     1      48.603   5.693  17.100  0.00  0.00    +0.000 A 
BRANCH   8  15
ATOM     14  N   UNL     1      46.989   3.885  15.669  0.00  0.00    +0.000 N 
ATOM     15  C   UNL     1      47.196   3.650  17.001  0.00  0.00    +0.000 C 
ATOM     16  O   UNL     1      46.574   2.781  17.596  0.00  0.00    +0.000 OA
ATOM     17  H   UNL     1      46.368   3.241  15.194  0.00  0.00    +0.000 HD
ATOM     18  H   UNL     1      47.658   4.386  15.104  0.00  0.00    +0.000 HD
ENDBRANCH   8  15
ENDBRANCH   7  12
ENDBRANCH   1   7
BRANCH   4  19
ATOM     19  C   UNL     1      47.584   7.895  11.808  0.00  0.00    +0.000 C 
BRANCH  19  20
ATOM     20  N   UNL     1      46.884   6.644  11.651  0.00  0.00    +0.000 N 
ATOM     21  C   UNL     1      45.517   6.553  11.757  0.00  0.00    +0.000 C 
ATOM     22  O   UNL     1      44.805   7.531  11.953  0.00  0.00    +0.000 OA
ATOM     23  H   UNL     1      47.436   5.802  11.773  0.00  0.00    +0.000 HD
BRANCH  21  24
ATOM     24  C   UNL     1      44.949   5.214  11.543  0.00  0.00    +0.000 A 
ATOM     25  C   UNL     1      44.275   4.560  12.568  0.00  0.00    +0.000 A 
ATOM     26  S   UNL     1      43.601   3.063  12.098  0.00  0.00    +0.000 S 
ATOM     27  C   UNL     1      44.237   3.204  10.525  0.00  0.00    +0.000 A 
ATOM     28  N   UNL     1      44.036   2.234   9.594  0.00  0.00    +0.000 NA
ATOM     29  C   UNL     1      44.598   2.462   8.454  0.00  0.00    +0.000 A 
ATOM     30  N   UNL     1      45.342   3.577   8.160  0.00  0.00    +0.000 N 
ATOM     31  C   UNL     1      45.554   4.588   9.062  0.00  0.00    +0.000 A 
ATOM     32  O   UNL     1      46.206   5.585   8.758  0.00  0.00    +0.000 OA
ATOM     33  C   UNL     1      44.943   4.383  10.360  0.00  0.00    +0.000 A 
ATOM     34  H   UNL     1      45.753   3.701   7.246  0.00  0.00    +0.000 HD
ENDBRANCH  21  24
ENDBRANCH  19  20
ENDBRANCH   4  19
TORSDOF 6
ENDMDL
MODEL 4
REMARK VINA RESULT:    -7.392      1.570      1.867
REMARK INTER + INTRA:         -11.032
REMARK INTER:                  -9.929
REMARK INTRA:                  -1.102
REMARK UNBOUND:                -1.047
REMARK  Name = 
REMARK  6 active torsions:
REMARK  status: ('A' for Active; 'I' for Inactive)
REMARK    1  A    between atoms: C_2  and  C_4
REMARK    2  A    between atoms: C_8  and  C_9
REMARK    3  A    between atoms: C_9  and  C_10
REMARK    4  A    between atoms: C_13  and  C_14
REMARK    5  A    between atoms: C_14  and  N_15
REMARK    6  A    between atoms: C_16  and  C_18
REMARK                            x       y       z     vdW  Elec       q    Type
REMARK                         _______ _______ _______ _____ _____    ______ ____
ROOT
ATOM      1  C   UNL     1      45.149   5.761  11.605  0.00  0.00    +0.000 A 
ATOM      2  C   UNL     1      45.740   6.994  11.339  0.00  0.00    +0.000 A 
ATOM      3  C   UNL     1      46.865   7.377  12.069  0.00  0.00    +0.000 A 
ATOM      4  C   UNL     1      47.370   6.540  13.067  0.00  0.00    +0.000 A 
ATOM      5  C   UNL     1      46.694   5.346  13.283  0.00  0.00    +0.000 A 
ATOM      6  N   UNL     1      45.604   4.941  12.588  0.00  0.00    +0.000 NA
ENDROOT
BRANCH   1   7
ATOM      7  C   UNL     1      44.045   5.230  10.710  0.00  0.00    +0.000 C 
BRANCH   7  12
ATOM      8  C   UNL     1      45.896   3.212   8.035  0.00  0.00    +0.000 A 
ATOM      9  C   UNL     1      45.529   1.904   8.371  0.00  0.00    +0.000 A 
ATOM     10  C   UNL     1      44.617   1.682   9.400  0.00  0.00    +0.000 A 
ATOM     11  C   UNL     1      44.097   2.761  10.116  0.00  0.00    +0.000 A 
ATOM     12  C   UNL     1      44.509   4.075   9.840  0.00  0.00    +0.000 A 
ATOM     13  C   UNL     1      45.396   4.293   8.775  0.00  0.00    +0.000 A 
BRANCH   8  15
ATOM     14  N   UNL     1      47.995   2.762   6.891  0.00  0.00    +0.000 N 
ATOM     15  C   UNL     1      46.838   3.491   6.920  0.00  0.00    +0.000 C 
ATOM     16  O   UNL     1      46.578   4.305   6.045  0.00  0.00    +0.000 OA
ATOM     17  H   UNL     1      48.568   2.869   6.063  0.00  0.00    +0.000 HD
ATOM     18  H   UNL     1      48.107   1.915   7.427  0.00  0.00    +0.000 HD
ENDBRANCH   8  15
ENDBRANCH   7  12
ENDBRANCH   1   7
BRANCH   4  19
ATOM     19  C   UNL     1      48.620   6.874  13.833  0.00  0.00    +0.000 C 
BRANCH  19  20
ATOM     20  N   UNL     1      48.407   6.767  15.255  0.00  0.00    +0.000 N 
ATOM     21  C   UNL     1      49.087   7.550  16.157  0.00  0.00    +0.000 C 
ATOM     22  O   UNL     1      49.887   8.411  15.810  0.00  0.00    +0.000 OA
ATOM     23  H   UNL     1      47.987   5.904  15.583  0.00  0.00    +0.000 HD
BRANCH  21  24
ATOM     24  C   UNL     1      48.738   7.343  17.570  0.00  0.00    +0.000 A 
ATOM     25  C   UNL     1      48.182   8.374  18.319  0.00  0.00    +0.000 A 
ATOM     26  S   UNL     1      47.753   7.913  19.906  0.00  0.00    +0.000 S 
ATOM     27  C   UNL     1      48.349   6.335  19.671  0.00  0.00    +0.000 A 
ATOM     28  N   UNL     1      48.301   5.408  20.665  0.00  0.00    +0.000 NA
ATOM     29  C   UNL     1      48.814   4.264  20.355  0.00  0.00    +0.000 A 
ATOM     30  N   UNL     1      49.368   3.963  19.136  0.00  0.00    +0.000 N 
ATOM     31  C   UNL     1      49.422   4.860  18.101  0.00  0.00    +0.000 A 
ATOM     32  O   UNL     1      49.906   4.550  17.014  0.00  0.00    +0.000 OA
ATOM     33  C   UNL     1      48.858   6.163  18.396  0.00  0.00    +0.000 A 
ATOM     34  H   UNL     1      49.750   3.046  18.952  0.00  0.00    +0.000 HD
ENDBRANCH  21  24
ENDBRANCH  19  20
ENDBRANCH   4  19
TORSDOF 6
ENDMDL
MODEL 5
REMARK VINA RESULT:    -7.372      1.762      2.346
REMARK INTER + INTRA:         -11.004
REMARK INTER:                  -9.630
REMARK INTRA:                  -1.374
REMARK UNBOUND:                -1.047
REMARK  Name = 
REMARK  6 active torsions:
REMARK  status: ('A' for Active; 'I' for Inactive)
REMARK    1  A    between atoms: C_2  and  C_4
REMARK    2  A    between atoms: C_8  and  C_9
REMARK    3  A    between atoms: C_9  and  C_10
REMARK    4  A    between atoms: C_13  and  C_14
REMARK    5  A    between atoms: C_14  and  N_15
REMARK    6  A    between atoms: C_16  and  C_18
REMARK                            x       y       z     vdW  Elec       q    Type
REMARK                         _______ _______ _______ _____ _____    ______ ____
ROOT
ATOM      1  C   UNL     1      45.669   7.616  11.943  0.00  0.00    +0.000 A 
ATOM      2  C   UNL     1      46.777   6.885  11.521  0.00  0.00    +0.000 A 
ATOM      3  C   UNL     1      47.999   7.078  12.164  0.00  0.00    +0.000 A 
ATOM      4  C   UNL     1      48.107   8.011  13.199  0.00  0.00    +0.000 A 
ATOM      5  C   UNL     1      46.955   8.716  13.527  0.00  0.00    +0.000 A 
ATOM      6  N   UNL     1      45.752   8.547  12.929  0.00  0.00    +0.000 NA
ENDROOT
BRANCH   1   7
ATOM      7  C   UNL     1      44.288   7.299  11.398  0.00  0.00    +0.000 C 
BRANCH   7  12
ATOM      8  C   UNL     1      44.061   3.623  10.357  0.00  0.00    +0.000 A 
ATOM      9  C   UNL     1      43.616   3.026  11.543  0.00  0.00    +0.000 A 
ATOM     10  C   UNL     1      43.305   3.819  12.645  0.00  0.00    +0.000 A 
ATOM     11  C   UNL     1      43.469   5.203  12.576  0.00  0.00    +0.000 A 
ATOM     12  C   UNL     1      43.984   5.812  11.420  0.00  0.00    +0.000 A 
ATOM     13  C   UNL     1      44.255   5.010  10.301  0.00  0.00    +0.000 A 
BRANCH   8  15
ATOM     14  N   UNL     1      44.356   3.466   7.948  0.00  0.00    +0.000 N 
ATOM     15  C   UNL     1      44.368   2.813   9.150  0.00  0.00    +0.000 C 
ATOM     16  O   UNL     1      44.656   1.627   9.225  0.00  0.00    +0.000 OA
ATOM     17  H   UNL     1      44.688   2.937   7.150  0.00  0.00    +0.000 HD
ATOM     18  H   UNL     1      44.392   4.472   7.886  0.00  0.00    +0.000 HD
ENDBRANCH   8  15
ENDBRANCH   7  12
ENDBRANCH   1   7
BRANCH   4  19
ATOM     19  C   UNL     1      49.382   8.205  13.970  0.00  0.00    +0.000 C 
BRANCH  19  20
ATOM     20  N   UNL     1      49.495   7.249  15.045  0.00  0.00    +0.000 N 
ATOM     21  C   UNL     1      49.109   7.544  16.330  0.00  0.00    +0.000 C 
ATOM     22  O   UNL     1      48.611   8.622  16.636  0.00  0.00    +0.000 OA
ATOM     23  H   UNL     1      50.143   6.483  14.898  0.00  0.00    +0.000 HD
BRANCH  21  24
ATOM     24  C   UNL     1      49.259   6.456  17.306  0.00  0.00    +0.000 A 
ATOM     25  C   UNL     1      50.079   6.613  18.418  0.00  0.00    +0.000 A 
ATOM     26  S   UNL     1      50.045   5.281  19.486  0.00  0.00    +0.000 S 
ATOM     27  C   UNL     1      48.981   4.421  18.474  0.00  0.00    +0.000 A 
ATOM     28  N   UNL     1      48.551   3.173  18.800  0.00  0.00    +0.000 NA
ATOM     29  C   UNL     1      47.770   2.630  17.927  0.00  0.00    +0.000 A 
ATOM     30  N   UNL     1      47.376   3.227  16.755  0.00  0.00    +0.000 N 
ATOM     31  C   UNL     1      47.770   4.490  16.395  0.00  0.00    +0.000 A 
ATOM     32  O   UNL     1      47.380   5.004  15.349  0.00  0.00    +0.000 OA
ATOM     33  C   UNL     1      48.649   5.146  17.343  0.00  0.00    +0.000 A 
ATOM     34  H   UNL     1      46.758   2.752  16.113  0.00  0.00    +0.000 HD
ENDBRANCH  21  24
ENDBRANCH  19  20
ENDBRANCH   4  19
TORSDOF 6
ENDMDL
MODEL 6
REMARK VINA RESULT:    -7.014      3.812      9.641
REMARK INTER + INTRA:         -10.521
REMARK INTER:                  -9.535
REMARK INTRA:                  -0.986
REMARK UNBOUND:                -1.047
REMARK  Name = 
REMARK  6 active torsions:
REMARK  status: ('A' for Active; 'I' for Inactive)
REMARK    1  A    between atoms: C_2  and  C_4
REMARK    2  A    between atoms: C_8  and  C_9
REMARK    3  A    between atoms: C_9  and  C_10
REMARK    4  A    between atoms: C_13  and  C_14
REMARK    5  A    between atoms: C_14  and  N_15
REMARK    6  A    between atoms: C_16  and  C_18
REMARK                            x       y       z     vdW  Elec       q    Type
REMARK                         _______ _______ _______ _____ _____    ______ ____
ROOT
ATOM      1  C   UNL     1      48.502   6.279  19.939  0.00  0.00    +0.000 A 
ATOM      2  C   UNL     1      49.568   5.872  19.140  0.00  0.00    +0.000 A 
ATOM      3  C   UNL     1      49.308   5.119  17.996  0.00  0.00    +0.000 A 
ATOM      4  C   UNL     1      47.995   4.761  17.677  0.00  0.00    +0.000 A 
ATOM      5  C   UNL     1      47.002   5.184  18.551  0.00  0.00    +0.000 A 
ATOM      6  N   UNL     1      47.219   5.922  19.666  0.00  0.00    +0.000 NA
ENDROOT
BRANCH   1   7
ATOM      7  C   UNL     1      48.726   7.252  21.081  0.00  0.00    +0.000 C 
BRANCH   7  12
ATOM      8  C   UNL     1      47.306  10.482  19.596  0.00  0.00    +0.000 A 
ATOM      9  C   UNL     1      46.295  10.788  20.514  0.00  0.00    +0.000 A 
ATOM     10  C   UNL     1      46.133  10.004  21.655  0.00  0.00    +0.000 A 
ATOM     11  C   UNL     1      46.956   8.897  21.862  0.00  0.00    +0.000 A 
ATOM     12  C   UNL     1      47.928   8.533  20.916  0.00  0.00    +0.000 A 
ATOM     13  C   UNL     1      48.112   9.351  19.792  0.00  0.00    +0.000 A 
BRANCH   8  15
ATOM     14  N   UNL     1      47.763  10.652  17.213  0.00  0.00    +0.000 N 
ATOM     15  C   UNL     1      47.533  11.315  18.387  0.00  0.00    +0.000 C 
ATOM     16  O   UNL     1      47.479  12.536  18.426  0.00  0.00    +0.000 OA
ATOM     17  H   UNL     1      47.791  11.222  16.377  0.00  0.00    +0.000 HD
ATOM     18  H   UNL     1      47.546   9.673  17.100  0.00  0.00    +0.000 HD
ENDBRANCH   8  15
ENDBRANCH   7  12
ENDBRANCH   1   7
BRANCH   4  19
ATOM     19  C   UNL     1      47.655   4.012  16.419  0.00  0.00    +0.000 C 
BRANCH  19  20
ATOM     20  N   UNL     1      46.970   4.860  15.474  0.00  0.00    +0.000 N 
ATOM     21  C   UNL     1      46.864   4.535  14.143  0.00  0.00    +0.000 C 
ATOM     22  O   UNL     1      47.308   3.489  13.683  0.00  0.00    +0.000 OA
ATOM     23  H   UNL     1      46.849   5.829  15.746  0.00  0.00    +0.000 HD
BRANCH  21  24
ATOM     24  C   UNL     1      46.112   5.487  13.313  0.00  0.00    +0.000 A 
ATOM     25  C   UNL     1      46.687   6.692  12.923  0.00  0.00    +0.000 A 
ATOM     26  S   UNL     1      45.699   7.615  11.881  0.00  0.00    +0.000 S 
ATOM     27  C   UNL     1      44.444   6.469  11.959  0.00  0.00    +0.000 A 
ATOM     28  N   UNL     1      43.275   6.655  11.288  0.00  0.00    +0.000 NA
ATOM     29  C   UNL     1      42.404   5.718  11.461  0.00  0.00    +0.000 A 
ATOM     30  N   UNL     1      42.597   4.607  12.243  0.00  0.00    +0.000 N 
ATOM     31  C   UNL     1      43.765   4.370  12.921  0.00  0.00    +0.000 A 
ATOM     32  O   UNL     1      43.914   3.352  13.594  0.00  0.00    +0.000 OA
ATOM     33  C   UNL     1      44.780   5.392  12.761  0.00  0.00    +0.000 A 
ATOM     34  H   UNL     1      41.877   3.905  12.334  0.00  0.00    +0.000 HD
ENDBRANCH  21  24
ENDBRANCH  19  20
ENDBRANCH   4  19
TORSDOF 6
ENDMDL
MODEL 7
REMARK VINA RESULT:    -6.942      3.208      4.307
REMARK INTER + INTRA:         -10.424
REMARK INTER:                  -9.610
REMARK INTRA:                  -0.814
REMARK UNBOUND:                -1.047
REMARK  Name = 
REMARK  6 active torsions:
REMARK  status: ('A' for Active; 'I' for Inactive)
REMARK    1  A    between atoms: C_2  and  C_4
REMARK    2  A    between atoms: C_8  and  C_9
REMARK    3  A    between atoms: C_9  and  C_10
REMARK    4  A    between atoms: C_13  and  C_14
REMARK    5  A    between atoms: C_14  and  N_15
REMARK    6  A    between atoms: C_16  and  C_18
REMARK                            x       y       z     vdW  Elec       q    Type
REMARK                         _______ _______ _______ _____ _____    ______ ____
ROOT
ATOM      1  C   UNL     1      47.465   6.511  12.952  0.00  0.00    +0.000 A 
ATOM      2  C   UNL     1      47.093   5.311  13.552  0.00  0.00    +0.000 A 
ATOM      3  C   UNL     1      47.449   5.080  14.881  0.00  0.00    +0.000 A 
ATOM      4  C   UNL     1      48.189   6.034  15.583  0.00  0.00    +0.000 A 
ATOM      5  C   UNL     1      48.542   7.186  14.891  0.00  0.00    +0.000 A 
ATOM      6  N   UNL     1      48.207   7.444  13.604  0.00  0.00    +0.000 NA
ENDROOT
BRANCH   1   7
ATOM      7  C   UNL     1      46.938   6.877  11.577  0.00  0.00    +0.000 C 
BRANCH   7  12
ATOM      8  C   UNL     1      44.397   4.403  10.136  0.00  0.00    +0.000 A 
ATOM      9  C   UNL     1      43.235   4.764  10.828  0.00  0.00    +0.000 A 
ATOM     10  C   UNL     1      43.252   5.859  11.688  0.00  0.00    +0.000 A 
ATOM     11  C   UNL     1      44.435   6.573  11.884  0.00  0.00    +0.000 A 
ATOM     12  C   UNL     1      45.627   6.181  11.255  0.00  0.00    +0.000 A 
ATOM     13  C   UNL     1      45.591   5.103  10.358  0.00  0.00    +0.000 A 
BRANCH   8  15
ATOM     14  N   UNL     1      44.403   3.573   7.850  0.00  0.00    +0.000 N 
ATOM     15  C   UNL     1      44.409   3.264   9.182  0.00  0.00    +0.000 C 
ATOM     16  O   UNL     1      44.460   2.104   9.565  0.00  0.00    +0.000 OA
ATOM     17  H   UNL     1      44.537   2.797   7.212  0.00  0.00    +0.000 HD
ATOM     18  H   UNL     1      44.633   4.496   7.513  0.00  0.00    +0.000 HD
ENDBRANCH   8  15
ENDBRANCH   7  12
ENDBRANCH   1   7
BRANCH   4  19
ATOM     19  C   UNL     1      48.536   5.865  17.036  0.00  0.00    +0.000 C 
BRANCH  19  20
ATOM     20  N   UNL     1      49.864   5.324  17.198  0.00  0.00    +0.000 N 
ATOM     21  C   UNL     1      50.202   4.519  18.259  0.00  0.00    +0.000 C 
ATOM     22  O   UNL     1      49.390   4.181  19.113  0.00  0.00    +0.000 OA
ATOM     23  H   UNL     1      50.606   5.797  16.694  0.00  0.00    +0.000 HD
BRANCH  21  24
ATOM     24  C   UNL     1      51.585   4.024  18.268  0.00  0.00    +0.000 A 
ATOM     25  C   UNL     1      52.626   4.841  18.695  0.00  0.00    +0.000 A 
ATOM     26  S   UNL     1      54.142   4.057  18.729  0.00  0.00    +0.000 S 
ATOM     27  C   UNL     1      53.476   2.614  18.119  0.00  0.00    +0.000 A 
ATOM     28  N   UNL     1      54.250   1.520  17.892  0.00  0.00    +0.000 NA
ATOM     29  C   UNL     1      53.616   0.507  17.403  0.00  0.00    +0.000 A 
ATOM     30  N   UNL     1      52.272   0.490  17.122  0.00  0.00    +0.000 N 
ATOM     31  C   UNL     1      51.451   1.563  17.351  0.00  0.00    +0.000 A 
ATOM     32  O   UNL     1      50.247   1.506  17.110  0.00  0.00    +0.000 OA
ATOM     33  C   UNL     1      52.114   2.729  17.902  0.00  0.00    +0.000 A 
ATOM     34  H   UNL     1      51.832  -0.336  16.744  0.00  0.00    +0.000 HD
ENDBRANCH  21  24
ENDBRANCH  19  20
ENDBRANCH   4  19
TORSDOF 6
ENDMDL
MODEL 8
REMARK VINA RESULT:    -6.922      3.671      8.618
REMARK INTER + INTRA:         -10.397
REMARK INTER:                  -9.239
REMARK INTRA:                  -1.158
REMARK UNBOUND:                -1.047
REMARK  Name = 
REMARK  6 active torsions:
REMARK  status: ('A' for Active; 'I' for Inactive)
REMARK    1  A    between atoms: C_2  and  C_4
REMARK    2  A    between atoms: C_8  and  C_9
REMARK    3  A    between atoms: C_9  and  C_10
REMARK    4  A    between atoms: C_13  and  C_14
REMARK    5  A    between atoms: C_14  and  N_15
REMARK    6  A    between atoms: C_16  and  C_18
REMARK                            x       y       z     vdW  Elec       q    Type
REMARK                         _______ _______ _______ _____ _____    ______ ____
ROOT
ATOM      1  C   UNL     1      51.059   4.957  18.124  0.00  0.00    +0.000 A 
ATOM      2  C   UNL     1      50.941   3.632  17.711  0.00  0.00    +0.000 A 
ATOM      3  C   UNL     1      49.700   3.167  17.276  0.00  0.00    +0.000 A 
ATOM      4  C   UNL     1      48.592   4.018  17.282  0.00  0.00    +0.000 A 
ATOM      5  C   UNL     1      48.800   5.312  17.743  0.00  0.00    +0.000 A 
ATOM      6  N   UNL     1      49.992   5.797  18.164  0.00  0.00    +0.000 NA
ENDROOT
BRANCH   1   7
ATOM      7  C   UNL     1      52.424   5.549  18.423  0.00  0.00    +0.000 C 
BRANCH   7  12
ATOM      8  C   UNL     1      53.507   7.183  15.135  0.00  0.00    +0.000 A 
ATOM      9  C   UNL     1      54.766   6.604  14.939  0.00  0.00    +0.000 A 
ATOM     10  C   UNL     1      55.222   5.623  15.817  0.00  0.00    +0.000 A 
ATOM     11  C   UNL     1      54.439   5.245  16.908  0.00  0.00    +0.000 A 
ATOM     12  C   UNL     1      53.207   5.867  17.161  0.00  0.00    +0.000 A 
ATOM     13  C   UNL     1      52.736   6.824  16.250  0.00  0.00    +0.000 A 
BRANCH   8  15
ATOM     14  N   UNL     1      53.226   8.021  12.869  0.00  0.00    +0.000 N 
ATOM     15  C   UNL     1      52.971   8.206  14.201  0.00  0.00    +0.000 C 
ATOM     16  O   UNL     1      52.300   9.149  14.593  0.00  0.00    +0.000 OA
ATOM     17  H   UNL     1      52.752   8.651  12.233  0.00  0.00    +0.000 HD
ATOM     18  H   UNL     1      53.531   7.133  12.501  0.00  0.00    +0.000 HD
ENDBRANCH   8  15
ENDBRANCH   7  12
ENDBRANCH   1   7
BRANCH   4  19
ATOM     19  C   UNL     1      47.251   3.586  16.758  0.00  0.00    +0.000 C 
BRANCH  19  20
ATOM     20  N   UNL     1      46.754   4.511  15.768  0.00  0.00    +0.000 N 
ATOM     21  C   UNL     1      46.817   4.244  14.422  0.00  0.00    +0.000 C 
ATOM     22  O   UNL     1      47.263   3.192  13.979  0.00  0.00    +0.000 OA
ATOM     23  H   UNL     1      46.650   5.474  16.066  0.00  0.00    +0.000 HD
BRANCH  21  24
ATOM     24  C   UNL     1      46.243   5.272  13.541  0.00  0.00    +0.000 A 
ATOM     25  C   UNL     1      46.957   6.428  13.247  0.00  0.00    +0.000 A 
ATOM     26  S   UNL     1      46.170   7.452  12.130  0.00  0.00    +0.000 S 
ATOM     27  C   UNL     1      44.820   6.418  12.044  0.00  0.00    +0.000 A 
ATOM     28  N   UNL     1      43.751   6.718  11.258  0.00  0.00    +0.000 NA
ATOM     29  C   UNL     1      42.790   5.858  11.313  0.00  0.00    +0.000 A 
ATOM     30  N   UNL     1      42.802   4.721  12.081  0.00  0.00    +0.000 N 
ATOM     31  C   UNL     1      43.866   4.371  12.873  0.00  0.00    +0.000 A 
ATOM     32  O   UNL     1      43.854   3.333  13.532  0.00  0.00    +0.000 OA
ATOM     33  C   UNL     1      44.975   5.303  12.849  0.00  0.00    +0.000 A 
ATOM     34  H   UNL     1      42.020   4.083  12.078  0.00  0.00    +0.000 HD
ENDBRANCH  21  24
ENDBRANCH  19  20
ENDBRANCH   4  19
TORSDOF 6
ENDMDL
MODEL 9
REMARK VINA RESULT:    -6.774      2.526      3.565
REMARK INTER + INTRA:         -10.196
REMARK INTER:                  -9.331
REMARK INTRA:                  -0.865
REMARK UNBOUND:                -1.047
REMARK  Name = 
REMARK  6 active torsions:
REMARK  status: ('A' for Active; 'I' for Inactive)
REMARK    1  A    between atoms: C_2  and  C_4
REMARK    2  A    between atoms: C_8  and  C_9
REMARK    3  A    between atoms: C_9  and  C_10
REMARK    4  A    between atoms: C_13  and  C_14
REMARK    5  A    between atoms: C_14  and  N_15
REMARK    6  A    between atoms: C_16  and  C_18
REMARK                            x       y       z     vdW  Elec       q    Type
REMARK                         _______ _______ _______ _____ _____    ______ ____
ROOT
ATOM      1  C   UNL     1      46.360   7.483  12.432  0.00  0.00    +0.000 A 
ATOM      2  C   UNL     1      47.329   6.522  12.153  0.00  0.00    +0.000 A 
ATOM      3  C   UNL     1      48.495   6.495  12.918  0.00  0.00    +0.000 A 
ATOM      4  C   UNL     1      48.690   7.438  13.931  0.00  0.00    +0.000 A 
ATOM      5  C   UNL     1      47.682   8.378  14.113  0.00  0.00    +0.000 A 
ATOM      6  N   UNL     1      46.536   8.426  13.394  0.00  0.00    +0.000 NA
ENDROOT
BRANCH   1   7
ATOM      7  C   UNL     1      45.005   7.425  11.751  0.00  0.00    +0.000 C 
BRANCH   7  12
ATOM      8  C   UNL     1      44.273   3.900  10.450  0.00  0.00    +0.000 A 
ATOM      9  C   UNL     1      43.649   3.319  11.560  0.00  0.00    +0.000 A 
ATOM     10  C   UNL     1      43.386   4.090  12.691  0.00  0.00    +0.000 A 
ATOM     11  C   UNL     1      43.774   5.429  12.727  0.00  0.00    +0.000 A 
ATOM     12  C   UNL     1      44.466   6.009  11.651  0.00  0.00    +0.000 A 
ATOM     13  C   UNL     1      44.690   5.238  10.501  0.00  0.00    +0.000 A 
BRANCH   8  15
ATOM     14  N   UNL     1      44.583   1.759   9.339  0.00  0.00    +0.000 N 
ATOM     15  C   UNL     1      44.537   3.121   9.214  0.00  0.00    +0.000 C 
ATOM     16  O   UNL     1      44.671   3.663   8.126  0.00  0.00    +0.000 OA
ATOM     17  H   UNL     1      44.638   1.234   8.475  0.00  0.00    +0.000 HD
ATOM     18  H   UNL     1      44.213   1.284  10.148  0.00  0.00    +0.000 HD
ENDBRANCH   8  15
ENDBRANCH   7  12
ENDBRANCH   1   7
BRANCH   4  19
ATOM     19  C   UNL     1      49.895   7.409  14.829  0.00  0.00    +0.000 C 
BRANCH  19  20
ATOM     20  N   UNL     1      49.513   7.261  16.212  0.00  0.00    +0.000 N 
ATOM     21  C   UNL     1      48.937   6.110  16.693  0.00  0.00    +0.000 C 
ATOM     22  O   UNL     1      48.747   5.125  15.989  0.00  0.00    +0.000 OA
ATOM     23  H   UNL     1      49.391   8.120  16.738  0.00  0.00    +0.000 HD
BRANCH  21  24
ATOM     24  C   UNL     1      48.631   6.104  18.131  0.00  0.00    +0.000 A 
ATOM     25  C   UNL     1      48.836   4.958  18.892  0.00  0.00    +0.000 A 
ATOM     26  S   UNL     1      48.520   5.176  20.555  0.00  0.00    +0.000 S 
ATOM     27  C   UNL     1      48.040   6.791  20.313  0.00  0.00    +0.000 A 
ATOM     28  N   UNL     1      47.626   7.567  21.350  0.00  0.00    +0.000 NA
ATOM     29  C   UNL     1      47.266   8.761  21.014  0.00  0.00    +0.000 A 
ATOM     30  N   UNL     1      47.287   9.251  19.732  0.00  0.00    +0.000 N 
ATOM     31  C   UNL     1      47.714   8.510  18.660  0.00  0.00    +0.000 A 
ATOM     32  O   UNL     1      47.742   8.987  17.528  0.00  0.00    +0.000 OA
ATOM     33  C   UNL     1      48.131   7.159  18.982  0.00  0.00    +0.000 A 
ATOM     34  H   UNL     1      46.997  10.197  19.533  0.00  0.00    +0.000 HD
ENDBRANCH  21  24
ENDBRANCH  19  20
ENDBRANCH   4  19
TORSDOF 6
ENDMDL
