MODEL 1
REMARK VINA RESULT:    -8.519      0.000      0.000
REMARK INTER + INTRA:         -11.710
REMARK INTER:                 -11.009
REMARK INTRA:                  -0.701
REMARK UNBOUND:                -0.701
REMARK  Name = 
REMARK  5 active torsions:
REMARK  status: ('A' for Active; 'I' for Inactive)
REMARK    1  A    between atoms: C_2  and  C_4
REMARK    2  A    between atoms: C_7  and  C_8
REMARK    3  A    between atoms: C_8  and  O_9
REMARK    4  A    between atoms: O_9  and  C_10
REMARK    5  A    between atoms: C_15  and  C_16
REMARK                            x       y       z     vdW  Elec       q    Type
REMARK                         _______ _______ _______ _____ _____    ______ ____
ROOT
ATOM      1  O   UNL     1      44.349   5.559  10.730  0.00  0.00    +0.000 OA
ENDROOT
BRANCH   1   2
ATOM      2  C   UNL     1      45.290   5.365  11.702  0.00  0.00    +0.000 A 
ATOM      3  C   UNL     1      45.565   4.170  12.354  0.00  0.00    +0.000 A 
ATOM      4  C   UNL     1      46.559   4.143  13.326  0.00  0.00    +0.000 A 
ATOM      5  F   UNL     1      46.837   2.985  13.941  0.00  0.00    +0.000 F 
ATOM      6  C   UNL     1      47.259   5.291  13.691  0.00  0.00    +0.000 A 
ATOM      7  C   UNL     1      46.975   6.516  13.068  0.00  0.00    +0.000 A 
ATOM      8  C   UNL     1      46.010   6.514  12.049  0.00  0.00    +0.000 A 
BRANCH   7   9
ATOM      9  C   UNL     1      47.639   7.791  13.576  0.00  0.00    +0.000 C 
ATOM     10  C   UNL     1      47.935   8.758  12.414  0.00  0.00    +0.000 C 
ATOM     11  C   UNL     1      49.187   8.361  11.631  0.00  0.00    +0.000 C 
ATOM     12  C   UNL     1      50.385   8.076  12.538  0.00  0.00    +0.000 C 
ATOM     13  N   UNL     1      50.082   7.166  13.639  0.00  0.00    +0.000 NA
ATOM     14  C   UNL     1      48.919   7.597  14.419  0.00  0.00    +0.000 C 
ATOM     15  H   UNL     1      50.892   7.067  14.248  0.00  0.00    +0.000 HD
ENDBRANCH   7   9
ENDBRANCH   1   2
BRANCH   1  16
ATOM     16  C   UNL     1      43.789   4.397  10.119  0.00  0.00    +0.000 C 
BRANCH  16  20
ATOM     17  C   UNL     1      46.639   2.502   7.484  0.00  0.00    +0.000 A 
ATOM     18  C   UNL     1      46.533   3.898   7.502  0.00  0.00    +0.000 A 
ATOM     19  C   UNL     1      45.625   4.516   8.363  0.00  0.00    +0.000 A 
ATOM     20  C   UNL     1      44.818   3.753   9.222  0.00  0.00    +0.000 A 
ATOM     21  C   UNL     1      44.932   2.361   9.174  0.00  0.00    +0.000 A 
ATOM     22  F   UNL     1      44.157   1.604   9.969  0.00  0.00    +0.000 F 
ATOM     23  C   UNL     1      45.826   1.733   8.316  0.00  0.00    +0.000 A 
BRANCH  17  25
ATOM     24  N   UNL     1      48.706   2.478   6.203  0.00  0.00    +0.000 N 
ATOM     25  C   UNL     1      47.571   1.805   6.564  0.00  0.00    +0.000 C 
ATOM     26  O   UNL     1      47.356   0.668   6.173  0.00  0.00    +0.000 OA
ATOM     27  H   UNL     1      49.383   1.954   5.663  0.00  0.00    +0.000 HD
ATOM     28  H   UNL     1      49.033   3.294   6.700  0.00  0.00    +0.000 HD
ENDBRANCH  17  25
ENDBRANCH  16  20
ENDBRANCH   1  16
TORSDOF 5
ENDMDL
MODEL 2
REMARK VINA RESULT:    -8.105      1.907      2.302
REMARK INTER + INTRA:         -11.174
REMARK INTER:                 -10.271
REMARK INTRA:                  -0.903
REMARK UNBOUND:                -0.701
REMARK  Name = 
REMARK  5 active torsions:
REMARK  status: ('A' for Active; 'I' for Inactive)
REMARK    1  A    between atoms: C_2  and  C_4
REMARK    2  A    between atoms: C_7  and  C_8
REMARK    3  A    between atoms: C_8  and  O_9
REMARK    4  A    between atoms: O_9  and  C_10
REMARK    5  A    between atoms: C_15  and  C_16
REMARK                            x       y       z     vdW  Elec       q    Type
REMARK                         _______ _______ _______ _____ _____    ______ ____
ROOT
ATOM      1  O   UNL     1      44.529   4.974  11.510  0.00  0.00    +0.000 OA
ENDROOT
BRANCH   1   2
ATOM      2  C   UNL     1      44.787   6.296  11.737  0.00  0.00    +0.000 A 
ATOM      3  C   UNL     1      44.118   7.374  11.169  0.00  0.00    +0.000 A 
ATOM      4  C   UNL     1      44.508   8.665  11.507  0.00  0.00    +0.000 A 
ATOM      5  F   UNL     1      43.849   9.704  10.973  0.00  0.00    +0.000 F 
ATOM      6  C   UNL     1      45.576   8.907  12.367  0.00  0.00    +0.000 A 
ATOM      7  C   UNL     1      46.286   7.834  12.927  0.00  0.00    +0.000 A 
ATOM      8  C   UNL     1      45.843   6.537  12.622  0.00  0.00    +0.000 A 
BRANCH   7   9
ATOM      9  C   UNL     1      47.542   8.108  13.747  0.00  0.00    +0.000 C 
ATOM     10  C   UNL     1      48.349   9.274  13.146  0.00  0.00    +0.000 C 
ATOM     11  C   UNL     1      49.175   8.847  11.932  0.00  0.00    +0.000 C 
ATOM     12  C   UNL     1      49.993   7.581  12.192  0.00  0.00    +0.000 C 
ATOM     13  N   UNL     1      49.213   6.490  12.770  0.00  0.00    +0.000 NA
ATOM     14  C   UNL     1      48.479   6.899  13.970  0.00  0.00    +0.000 C 
ATOM     15  H   UNL     1      49.818   5.700  12.985  0.00  0.00    +0.000 HD
ENDBRANCH   7   9
ENDBRANCH   1   2
BRANCH   1  16
ATOM     16  C   UNL     1      43.876   4.633  10.287  0.00  0.00    +0.000 C 
BRANCH  16  20
ATOM     17  C   UNL     1      46.551   2.513   7.639  0.00  0.00    +0.000 A 
ATOM     18  C   UNL     1      46.523   3.912   7.621  0.00  0.00    +0.000 A 
ATOM     19  C   UNL     1      45.672   4.603   8.486  0.00  0.00    +0.000 A 
ATOM     20  C   UNL     1      44.846   3.909   9.384  0.00  0.00    +0.000 A 
ATOM     21  C   UNL     1      44.882   2.512   9.373  0.00  0.00    +0.000 A 
ATOM     22  F   UNL     1      44.086   1.821  10.207  0.00  0.00    +0.000 F 
ATOM     23  C   UNL     1      45.718   1.813   8.512  0.00  0.00    +0.000 A 
BRANCH  17  25
ATOM     24  N   UNL     1      48.495   2.395   6.183  0.00  0.00    +0.000 N 
ATOM     25  C   UNL     1      47.420   1.741   6.717  0.00  0.00    +0.000 C 
ATOM     26  O   UNL     1      47.208   0.563   6.472  0.00  0.00    +0.000 OA
ATOM     27  H   UNL     1      49.138   1.832   5.642  0.00  0.00    +0.000 HD
ATOM     28  H   UNL     1      48.838   3.269   6.558  0.00  0.00    +0.000 HD
ENDBRANCH  17  25
ENDBRANCH  16  20
ENDBRANCH   1  16
TORSDOF 5
ENDMDL
MODEL 3
REMARK VINA RESULT:    -7.665      2.427      3.768
REMARK INTER + INTRA:         -10.606
REMARK INTER:                  -9.753
REMARK INTRA:                  -0.853
REMARK UNBOUND:                -0.701
REMARK  Name = 
REMARK  5 active torsions:
REMARK  status: ('A' for Active; 'I' for Inactive)
REMARK    1  A    between atoms: C_2  and  C_4
REMARK    2  A    between atoms: C_7  and  C_8
REMARK    3  A    between atoms: C_8  and  O_9
REMARK    4  A    between atoms: O_9  and  C_10
REMARK    5  A    between atoms: C_15  and  C_16
REMARK                            x       y       z     vdW  Elec       q    Type
REMARK                         _______ _______ _______ _____ _____    ______ ____
ROOT
ATOM      1  O   UNL     1      45.612   3.979   7.531  0.00  0.00    +0.000 OA
ENDROOT
BRANCH   1   2
ATOM      2  C   UNL     1      45.138   3.916   8.811  0.00  0.00    +0.000 A 
ATOM      3  C   UNL     1      44.401   2.877   9.366  0.00  0.00    +0.000 A 
ATOM      4  C   UNL     1      43.992   2.971  10.691  0.00  0.00    +0.000 A 
ATOM      5  F   UNL     1      43.297   1.959  11.231  0.00  0.00    +0.000 F 
ATOM      6  C   UNL     1      44.267   4.095  11.466  0.00  0.00    +0.000 A 
ATOM      7  C   UNL     1      44.982   5.170  10.916  0.00  0.00    +0.000 A 
ATOM      8  C   UNL     1      45.439   5.035   9.596  0.00  0.00    +0.000 A 
BRANCH   7   9
ATOM      9  C   UNL     1      45.150   6.454  11.722  0.00  0.00    +0.000 C 
ATOM     10  C   UNL     1      46.506   7.120  11.422  0.00  0.00    +0.000 C 
ATOM     11  C   UNL     1      47.661   6.446  12.164  0.00  0.00    +0.000 C 
ATOM     12  C   UNL     1      47.370   6.246  13.652  0.00  0.00    +0.000 C 
ATOM     13  N   UNL     1      46.077   5.624  13.916  0.00  0.00    +0.000 NA
ATOM     14  C   UNL     1      44.972   6.320  13.251  0.00  0.00    +0.000 C 
ATOM     15  H   UNL     1      45.905   5.579  14.919  0.00  0.00    +0.000 HD
ENDBRANCH   7   9
ENDBRANCH   1   2
BRANCH   1  16
ATOM     16  C   UNL     1      46.965   3.580   7.311  0.00  0.00    +0.000 C 
BRANCH  16  20
ATOM     17  C   UNL     1      46.956   0.349   4.444  0.00  0.00    +0.000 A 
ATOM     18  C   UNL     1      46.922   1.674   3.995  0.00  0.00    +0.000 A 
ATOM     19  C   UNL     1      46.941   2.723   4.917  0.00  0.00    +0.000 A 
ATOM     20  C   UNL     1      47.002   2.464   6.295  0.00  0.00    +0.000 A 
ATOM     21  C   UNL     1      47.019   1.133   6.719  0.00  0.00    +0.000 A 
ATOM     22  F   UNL     1      47.055   0.854   8.033  0.00  0.00    +0.000 F 
ATOM     23  C   UNL     1      46.993   0.080   5.812  0.00  0.00    +0.000 A 
BRANCH  17  25
ATOM     24  N   UNL     1      46.979  -0.500   2.165  0.00  0.00    +0.000 N 
ATOM     25  C   UNL     1      46.908  -0.794   3.499  0.00  0.00    +0.000 C 
ATOM     26  O   UNL     1      46.846  -1.949   3.892  0.00  0.00    +0.000 OA
ATOM     27  H   UNL     1      47.054  -1.289   1.537  0.00  0.00    +0.000 HD
ATOM     28  H   UNL     1      47.285   0.401   1.825  0.00  0.00    +0.000 HD
ENDBRANCH  17  25
ENDBRANCH  16  20
ENDBRANCH   1  16
TORSDOF 5
ENDMDL
MODEL 4
REMARK VINA RESULT:    -7.422      2.949      3.594
REMARK INTER + INTRA:         -10.293
REMARK INTER:                  -9.385
REMARK INTRA:                  -0.908
REMARK UNBOUND:                -0.701
REMARK  Name = 
REMARK  5 active torsions:
REMARK  status: ('A' for Active; 'I' for Inactive)
REMARK    1  A    between atoms: C_2  and  C_4
REMARK    2  A    between atoms: C_7  and  C_8
REMARK    3  A    between atoms: C_8  and  O_9
REMARK    4  A    between atoms: O_9  and  C_10
REMARK    5  A    between atoms: C_15  and  C_16
REMARK                            x       y       z     vdW  Elec       q    Type
REMARK                         _______ _______ _______ _____ _____    ______ ____
ROOT
ATOM      1  O   UNL     1      44.594   5.241  11.325  0.00  0.00    +0.000 OA
ENDROOT
BRANCH   1   2
ATOM      2  C   UNL     1      45.328   6.363  11.583  0.00  0.00    +0.000 A 
ATOM      3  C   UNL     1      46.673   6.406  11.930  0.00  0.00    +0.000 A 
ATOM      4  C   UNL     1      47.273   7.639  12.161  0.00  0.00    +0.000 A 
ATOM      5  F   UNL     1      48.575   7.680  12.478  0.00  0.00    +0.000 F 
ATOM      6  C   UNL     1      46.553   8.829  12.093  0.00  0.00    +0.000 A 
ATOM      7  C   UNL     1      45.186   8.807  11.776  0.00  0.00    +0.000 A 
ATOM      8  C   UNL     1      44.609   7.560  11.488  0.00  0.00    +0.000 A 
BRANCH   7   9
ATOM      9  C   UNL     1      44.375  10.096  11.849  0.00  0.00    +0.000 C 
ATOM     10  C   UNL     1      43.214  10.075  10.838  0.00  0.00    +0.000 C 
ATOM     11  C   UNL     1      43.676  10.389   9.414  0.00  0.00    +0.000 C 
ATOM     12  C   UNL     1      44.554  11.639   9.342  0.00  0.00    +0.000 C 
ATOM     13  N   UNL     1      45.643  11.646  10.314  0.00  0.00    +0.000 NA
ATOM     14  C   UNL     1      45.174  11.408  11.682  0.00  0.00    +0.000 C 
ATOM     15  H   UNL     1      46.151  12.527  10.270  0.00  0.00    +0.000 HD
ENDBRANCH   7   9
ENDBRANCH   1   2
BRANCH   1  16
ATOM     16  C   UNL     1      44.100   5.069   9.998  0.00  0.00    +0.000 C 
BRANCH  16  20
ATOM     17  C   UNL     1      46.443   2.142   7.851  0.00  0.00    +0.000 A 
ATOM     18  C   UNL     1      46.634   3.505   7.596  0.00  0.00    +0.000 A 
ATOM     19  C   UNL     1      45.891   4.456   8.299  0.00  0.00    +0.000 A 
ATOM     20  C   UNL     1      44.956   4.061   9.268  0.00  0.00    +0.000 A 
ATOM     21  C   UNL     1      44.772   2.694   9.493  0.00  0.00    +0.000 A 
ATOM     22  F   UNL     1      43.867   2.286  10.399  0.00  0.00    +0.000 F 
ATOM     23  C   UNL     1      45.499   1.738   8.795  0.00  0.00    +0.000 A 
BRANCH  17  25
ATOM     24  N   UNL     1      47.022  -0.195   7.513  0.00  0.00    +0.000 N 
ATOM     25  C   UNL     1      47.191   1.100   7.107  0.00  0.00    +0.000 C 
ATOM     26  O   UNL     1      47.899   1.378   6.150  0.00  0.00    +0.000 OA
ATOM     27  H   UNL     1      47.452  -0.905   6.934  0.00  0.00    +0.000 HD
ATOM     28  H   UNL     1      46.263  -0.478   8.117  0.00  0.00    +0.000 HD
ENDBRANCH  17  25
ENDBRANCH  16  20
ENDBRANCH   1  16
TORSDOF 5
ENDMDL
MODEL 5
REMARK VINA RESULT:    -7.405      4.604      8.276
REMARK INTER + INTRA:         -10.271
REMARK INTER:                  -9.531
REMARK INTRA:                  -0.740
REMARK UNBOUND:                -0.701
REMARK  Name = 
REMARK  5 active torsions:
REMARK  status: ('A' for Active; 'I' for Inactive)
REMARK    1  A    between atoms: C_2  and  C_4
REMARK    2  A    between atoms: C_7  and  C_8
REMARK    3  A    between atoms: C_8  and  O_9
REMARK    4  A    between atoms: O_9  and  C_10
REMARK    5  A    between atoms: C_15  and  C_16
REMARK                            x       y       z     vdW  Elec       q    Type
REMARK                         _______ _______ _______ _____ _____    ______ ____
ROOT
ATOM      1  O   UNL     1      47.325   3.190  14.699  0.00  0.00    +0.000 OA
ENDROOT
BRANCH   1   2
ATOM      2  C   UNL     1      46.903   4.115  13.788  0.00  0.00    +0.000 A 
ATOM      3  C   UNL     1      47.380   5.414  13.653  0.00  0.00    +0.000 A 
ATOM      4  C   UNL     1      46.839   6.234  12.670  0.00  0.00    +0.000 A 
ATOM      5  F   UNL     1      47.313   7.480  12.528  0.00  0.00    +0.000 F 
ATOM      6  C   UNL     1      45.804   5.803  11.843  0.00  0.00    +0.000 A 
ATOM      7  C   UNL     1      45.285   4.507  11.983  0.00  0.00    +0.000 A 
ATOM      8  C   UNL     1      45.882   3.672  12.940  0.00  0.00    +0.000 A 
BRANCH   7   9
ATOM      9  C   UNL     1      44.057   4.096  11.177  0.00  0.00    +0.000 C 
ATOM     10  C   UNL     1      44.149   2.619  10.749  0.00  0.00    +0.000 C 
ATOM     11  C   UNL     1      45.068   2.417   9.544  0.00  0.00    +0.000 C 
ATOM     12  C   UNL     1      44.765   3.389   8.402  0.00  0.00    +0.000 C 
ATOM     13  N   UNL     1      44.672   4.782   8.828  0.00  0.00    +0.000 NA
ATOM     14  C   UNL     1      43.738   4.967   9.941  0.00  0.00    +0.000 C 
ATOM     15  H   UNL     1      44.401   5.373   8.045  0.00  0.00    +0.000 HD
ENDBRANCH   7   9
ENDBRANCH   1   2
BRANCH   1  16
ATOM     16  C   UNL     1      47.356   3.584  16.070  0.00  0.00    +0.000 C 
BRANCH  16  20
ATOM     17  C   UNL     1      51.311   3.112  17.741  0.00  0.00    +0.000 A 
ATOM     18  C   UNL     1      50.655   2.005  17.192  0.00  0.00    +0.000 A 
ATOM     19  C   UNL     1      49.383   2.155  16.636  0.00  0.00    +0.000 A 
ATOM     20  C   UNL     1      48.754   3.410  16.613  0.00  0.00    +0.000 A 
ATOM     21  C   UNL     1      49.424   4.496  17.181  0.00  0.00    +0.000 A 
ATOM     22  F   UNL     1      48.837   5.705  17.194  0.00  0.00    +0.000 F 
ATOM     23  C   UNL     1      50.686   4.359  17.745  0.00  0.00    +0.000 A 
BRANCH  17  25
ATOM     24  N   UNL     1      53.060   1.733  18.718  0.00  0.00    +0.000 N 
ATOM     25  C   UNL     1      52.651   2.990  18.367  0.00  0.00    +0.000 C 
ATOM     26  O   UNL     1      53.374   3.961  18.529  0.00  0.00    +0.000 OA
ATOM     27  H   UNL     1      54.014   1.648  19.044  0.00  0.00    +0.000 HD
ATOM     28  H   UNL     1      52.607   0.899  18.370  0.00  0.00    +0.000 HD
ENDBRANCH  17  25
ENDBRANCH  16  20
ENDBRANCH   1  16
TORSDOF 5
ENDMDL
MODEL 6
REMARK VINA RESULT:    -6.993      4.100      6.274
REMARK INTER + INTRA:          -9.738
REMARK INTER:                  -8.917
REMARK INTRA:                  -0.821
REMARK UNBOUND:                -0.701
REMARK  Name = 
REMARK  5 active torsions:
REMARK  status: ('A' for Active; 'I' for Inactive)
REMARK    1  A    between atoms: C_2  and  C_4
REMARK    2  A    between atoms: C_7  and  C_8
REMARK    3  A    between atoms: C_8  and  O_9
REMARK    4  A    between atoms: O_9  and  C_10
REMARK    5  A    between atoms: C_15  and  C_16
REMARK                            x       y       z     vdW  Elec       q    Type
REMARK                         _______ _______ _______ _____ _____    ______ ____
ROOT
ATOM      1  O   UNL     1      48.411   7.341  14.172  0.00  0.00    +0.000 OA
ENDROOT
BRANCH   1   2
ATOM      2  C   UNL     1      49.352   7.054  15.119  0.00  0.00    +0.000 A 
ATOM      3  C   UNL     1      50.704   7.373  15.059  0.00  0.00    +0.000 A 
ATOM      4  C   UNL     1      51.532   7.006  16.113  0.00  0.00    +0.000 A 
ATOM      5  F   UNL     1      52.832   7.331  16.062  0.00  0.00    +0.000 F 
ATOM      6  C   UNL     1      51.053   6.292  17.208  0.00  0.00    +0.000 A 
ATOM      7  C   UNL     1      49.698   5.932  17.275  0.00  0.00    +0.000 A 
ATOM      8  C   UNL     1      48.863   6.361  16.231  0.00  0.00    +0.000 A 
BRANCH   7   9
ATOM      9  C   UNL     1      49.214   5.026  18.402  0.00  0.00    +0.000 C 
ATOM     10  C   UNL     1      49.591   3.557  18.129  0.00  0.00    +0.000 C 
ATOM     11  C   UNL     1      48.650   2.892  17.124  0.00  0.00    +0.000 C 
ATOM     12  C   UNL     1      47.174   3.114  17.461  0.00  0.00    +0.000 C 
ATOM     13  N   UNL     1      46.839   4.510  17.726  0.00  0.00    +0.000 NA
ATOM     14  C   UNL     1      47.708   5.113  18.740  0.00  0.00    +0.000 C 
ATOM     15  H   UNL     1      45.865   4.591  18.012  0.00  0.00    +0.000 HD
ENDBRANCH   7   9
ENDBRANCH   1   2
BRANCH   1  16
ATOM     16  C   UNL     1      48.471   6.613  12.945  0.00  0.00    +0.000 C 
BRANCH  16  20
ATOM     17  C   UNL     1      44.450   5.396  11.937  0.00  0.00    +0.000 A 
ATOM     18  C   UNL     1      45.071   6.413  11.203  0.00  0.00    +0.000 A 
ATOM     19  C   UNL     1      46.376   6.800  11.514  0.00  0.00    +0.000 A 
ATOM     20  C   UNL     1      47.080   6.172  12.553  0.00  0.00    +0.000 A 
ATOM     21  C   UNL     1      46.434   5.169  13.280  0.00  0.00    +0.000 A 
ATOM     22  F   UNL     1      47.076   4.566  14.295  0.00  0.00    +0.000 F 
ATOM     23  C   UNL     1      45.133   4.781  12.986  0.00  0.00    +0.000 A 
BRANCH  17  25
ATOM     24  N   UNL     1      42.084   5.930  11.774  0.00  0.00    +0.000 N 
ATOM     25  C   UNL     1      43.055   4.975  11.657  0.00  0.00    +0.000 C 
ATOM     26  O   UNL     1      42.788   3.837  11.302  0.00  0.00    +0.000 OA
ATOM     27  H   UNL     1      41.154   5.660  11.478  0.00  0.00    +0.000 HD
ATOM     28  H   UNL     1      42.296   6.917  11.811  0.00  0.00    +0.000 HD
ENDBRANCH  17  25
ENDBRANCH  16  20
ENDBRANCH   1  16
TORSDOF 5
ENDMDL
MODEL 7
REMARK VINA RESULT:    -6.850      1.969      2.868
REMARK INTER + INTRA:          -9.553
REMARK INTER:                  -9.278
REMARK INTRA:                  -0.275
REMARK UNBOUND:                -0.701
REMARK  Name = 
REMARK  5 active torsions:
REMARK  status: ('A' for Active; 'I' for Inactive)
REMARK    1  A    between atoms: C_2  and  C_4
REMARK    2  A    between atoms: C_7  and  C_8
REMARK    3  A    between atoms: C_8  and  O_9
REMARK    4  A    between atoms: O_9  and  C_10
REMARK    5  A    between atoms: C_15  and  C_16
REMARK                            x       y       z     vdW  Elec       q    Type
REMARK                         _______ _______ _______ _____ _____    ______ ____
ROOT
ATOM      1  O   UNL     1      43.672   5.748  10.705  0.00  0.00    +0.000 OA
ENDROOT
BRANCH   1   2
ATOM      2  C   UNL     1      44.506   6.550  11.430  0.00  0.00    +0.000 A 
ATOM      3  C   UNL     1      44.372   7.920  11.618  0.00  0.00    +0.000 A 
ATOM      4  C   UNL     1      45.314   8.592  12.389  0.00  0.00    +0.000 A 
ATOM      5  F   UNL     1      45.173   9.911  12.586  0.00  0.00    +0.000 F 
ATOM      6  C   UNL     1      46.410   7.937  12.944  0.00  0.00    +0.000 A 
ATOM      7  C   UNL     1      46.584   6.559  12.740  0.00  0.00    +0.000 A 
ATOM      8  C   UNL     1      45.593   5.885  12.009  0.00  0.00    +0.000 A 
BRANCH   7   9
ATOM      9  C   UNL     1      47.860   5.880  13.224  0.00  0.00    +0.000 C 
ATOM     10  C   UNL     1      47.573   4.444  13.700  0.00  0.00    +0.000 C 
ATOM     11  C   UNL     1      46.963   4.406  15.102  0.00  0.00    +0.000 C 
ATOM     12  C   UNL     1      47.738   5.262  16.106  0.00  0.00    +0.000 C 
ATOM     13  N   UNL     1      48.009   6.617  15.633  0.00  0.00    +0.000 NA
ATOM     14  C   UNL     1      48.653   6.633  14.317  0.00  0.00    +0.000 C 
ATOM     15  H   UNL     1      48.584   7.118  16.307  0.00  0.00    +0.000 HD
ENDBRANCH   7   9
ENDBRANCH   1   2
BRANCH   1  16
ATOM     16  C   UNL     1      43.851   4.336  10.823  0.00  0.00    +0.000 C 
BRANCH  16  20
ATOM     17  C   UNL     1      46.290   2.893   7.563  0.00  0.00    +0.000 A 
ATOM     18  C   UNL     1      46.222   4.266   7.822  0.00  0.00    +0.000 A 
ATOM     19  C   UNL     1      45.448   4.737   8.884  0.00  0.00    +0.000 A 
ATOM     20  C   UNL     1      44.740   3.846   9.705  0.00  0.00    +0.000 A 
ATOM     21  C   UNL     1      44.813   2.481   9.418  0.00  0.00    +0.000 A 
ATOM     22  F   UNL     1      44.128   1.605  10.173  0.00  0.00    +0.000 F 
ATOM     23  C   UNL     1      45.573   2.000   8.359  0.00  0.00    +0.000 A 
BRANCH  17  25
ATOM     24  N   UNL     1      48.111   1.510   6.734  0.00  0.00    +0.000 N 
ATOM     25  C   UNL     1      47.078   2.353   6.428  0.00  0.00    +0.000 C 
ATOM     26  O   UNL     1      46.798   2.619   5.269  0.00  0.00    +0.000 OA
ATOM     27  H   UNL     1      48.573   1.066   5.950  0.00  0.00    +0.000 HD
ATOM     28  H   UNL     1      48.205   1.076   7.641  0.00  0.00    +0.000 HD
ENDBRANCH  17  25
ENDBRANCH  16  20
ENDBRANCH   1  16
TORSDOF 5
ENDMDL
MODEL 8
REMARK VINA RESULT:    -6.820      4.263      7.387
REMARK INTER + INTRA:          -9.515
REMARK INTER:                  -8.871
REMARK INTRA:                  -0.643
REMARK UNBOUND:                -0.701
REMARK  Name = 
REMARK  5 active torsions:
REMARK  status: ('A' for Active; 'I' for Inactive)
REMARK    1  A    between atoms: C_2  and  C_4
REMARK    2  A    between atoms: C_7  and  C_8
REMARK    3  A    between atoms: C_8  and  O_9
REMARK    4  A    between atoms: O_9  and  C_10
REMARK    5  A    between atoms: C_15  and  C_16
REMARK                            x       y       z     vdW  Elec       q    Type
REMARK                         _______ _______ _______ _____ _____    ______ ____
ROOT
ATOM      1  O   UNL     1      46.986   3.426  14.618  0.00  0.00    +0.000 OA
ENDROOT
BRANCH   1   2
ATOM      2  C   UNL     1      46.472   4.122  13.561  0.00  0.00    +0.000 A 
ATOM      3  C   UNL     1      45.544   3.652  12.639  0.00  0.00    +0.000 A 
ATOM      4  C   UNL     1      45.123   4.493  11.615  0.00  0.00    +0.000 A 
ATOM      5  F   UNL     1      44.214   4.045  10.738  0.00  0.00    +0.000 F 
ATOM      6  C   UNL     1      45.636   5.779  11.465  0.00  0.00    +0.000 A 
ATOM      7  C   UNL     1      46.598   6.263  12.365  0.00  0.00    +0.000 A 
ATOM      8  C   UNL     1      46.969   5.424  13.427  0.00  0.00    +0.000 A 
BRANCH   7   9
ATOM      9  C   UNL     1      47.260   7.612  12.107  0.00  0.00    +0.000 C 
ATOM     10  C   UNL     1      48.783   7.527  12.317  0.00  0.00    +0.000 C 
ATOM     11  C   UNL     1      49.170   7.565  13.796  0.00  0.00    +0.000 C 
ATOM     12  C   UNL     1      48.490   8.706  14.554  0.00  0.00    +0.000 C 
ATOM     13  N   UNL     1      47.049   8.777  14.335  0.00  0.00    +0.000 NA
ATOM     14  C   UNL     1      46.698   8.805  12.912  0.00  0.00    +0.000 C 
ATOM     15  H   UNL     1      46.660   9.592  14.805  0.00  0.00    +0.000 HD
ENDBRANCH   7   9
ENDBRANCH   1   2
BRANCH   1  16
ATOM     16  C   UNL     1      47.072   4.104  15.871  0.00  0.00    +0.000 C 
BRANCH  16  20
ATOM     17  C   UNL     1      50.898   3.418  17.755  0.00  0.00    +0.000 A 
ATOM     18  C   UNL     1      50.134   2.328  17.322  0.00  0.00    +0.000 A 
ATOM     19  C   UNL     1      48.903   2.545  16.698  0.00  0.00    +0.000 A 
ATOM     20  C   UNL     1      48.425   3.848  16.491  0.00  0.00    +0.000 A 
ATOM     21  C   UNL     1      49.199   4.918  16.945  0.00  0.00    +0.000 A 
ATOM     22  F   UNL     1      48.756   6.176  16.780  0.00  0.00    +0.000 F 
ATOM     23  C   UNL     1      50.421   4.716  17.574  0.00  0.00    +0.000 A 
BRANCH  17  25
ATOM     24  N   UNL     1      52.681   1.954  18.523  0.00  0.00    +0.000 N 
ATOM     25  C   UNL     1      52.197   3.231  18.447  0.00  0.00    +0.000 C 
ATOM     26  O   UNL     1      52.826   4.176  18.898  0.00  0.00    +0.000 OA
ATOM     27  H   UNL     1      53.614   1.851  18.901  0.00  0.00    +0.000 HD
ATOM     28  H   UNL     1      52.323   1.204  17.948  0.00  0.00    +0.000 HD
ENDBRANCH  17  25
ENDBRANCH  16  20
ENDBRANCH   1  16
TORSDOF 5
ENDMDL
MODEL 9
REMARK VINA RESULT:    -6.699      3.919      5.814
REMARK INTER + INTRA:          -9.358
REMARK INTER:                  -8.724
REMARK INTRA:                  -0.634
REMARK UNBOUND:                -0.701
REMARK  Name = 
REMARK  5 active torsions:
REMARK  status: ('A' for Active; 'I' for Inactive)
REMARK    1  A    between atoms: C_2  and  C_4
REMARK    2  A    between atoms: C_7  and  C_8
REMARK    3  A    between atoms: C_8  and  O_9
REMARK    4  A    between atoms: O_9  and  C_10
REMARK    5  A    between atoms: C_15  and  C_16
REMARK                            x       y       z     vdW  Elec       q    Type
REMARK                         _______ _______ _______ _____ _____    ______ ____
ROOT
ATOM      1  O   UNL     1      48.442   6.344  13.812  0.00  0.00    +0.000 OA
ENDROOT
BRANCH   1   2
ATOM      2  C   UNL     1      48.577   6.582  15.150  0.00  0.00    +0.000 A 
ATOM      3  C   UNL     1      48.863   7.807  15.742  0.00  0.00    +0.000 A 
ATOM      4  C   UNL     1      48.970   7.879  17.127  0.00  0.00    +0.000 A 
ATOM      5  F   UNL     1      49.227   9.064  17.699  0.00  0.00    +0.000 F 
ATOM      6  C   UNL     1      48.838   6.751  17.932  0.00  0.00    +0.000 A 
ATOM      7  C   UNL     1      48.582   5.498  17.353  0.00  0.00    +0.000 A 
ATOM      8  C   UNL     1      48.418   5.452  15.960  0.00  0.00    +0.000 A 
BRANCH   7   9
ATOM      9  C   UNL     1      48.587   4.248  18.227  0.00  0.00    +0.000 C 
ATOM     10  C   UNL     1      49.986   3.995  18.818  0.00  0.00    +0.000 C 
ATOM     11  C   UNL     1      50.938   3.352  17.809  0.00  0.00    +0.000 C 
ATOM     12  C   UNL     1      50.321   2.143  17.104  0.00  0.00    +0.000 C 
ATOM     13  N   UNL     1      48.991   2.399  16.559  0.00  0.00    +0.000 NA
ATOM     14  C   UNL     1      48.073   2.954  17.557  0.00  0.00    +0.000 C 
ATOM     15  H   UNL     1      48.600   1.545  16.165  0.00  0.00    +0.000 HD
ENDBRANCH   7   9
ENDBRANCH   1   2
BRANCH   1  16
ATOM     16  C   UNL     1      47.311   6.916  13.154  0.00  0.00    +0.000 C 
BRANCH  16  20
ATOM     17  C   UNL     1      44.801   3.767  11.589  0.00  0.00    +0.000 A 
ATOM     18  C   UNL     1      45.701   3.487  12.624  0.00  0.00    +0.000 A 
ATOM     19  C   UNL     1      46.503   4.504  13.145  0.00  0.00    +0.000 A 
ATOM     20  C   UNL     1      46.413   5.813  12.647  0.00  0.00    +0.000 A 
ATOM     21  C   UNL     1      45.518   6.065  11.603  0.00  0.00    +0.000 A 
ATOM     22  F   UNL     1      45.427   7.304  11.091  0.00  0.00    +0.000 F 
ATOM     23  C   UNL     1      44.720   5.060  11.071  0.00  0.00    +0.000 A 
BRANCH  17  25
ATOM     24  N   UNL     1      44.415   2.113   9.849  0.00  0.00    +0.000 N 
ATOM     25  C   UNL     1      43.952   2.710  10.989  0.00  0.00    +0.000 C 
ATOM     26  O   UNL     1      42.902   2.359  11.507  0.00  0.00    +0.000 OA
ATOM     27  H   UNL     1      43.882   1.323   9.509  0.00  0.00    +0.000 HD
ATOM     28  H   UNL     1      45.376   2.196   9.546  0.00  0.00    +0.000 HD
ENDBRANCH  17  25
ENDBRANCH  16  20
ENDBRANCH   1  16
TORSDOF 5
ENDMDL
