MODEL 1
REMARK VINA RESULT:    -9.009      0.000      0.000
REMARK INTER + INTRA:         -11.800
REMARK INTER:                 -11.642
REMARK INTRA:                  -0.158
REMARK UNBOUND:                -0.158
REMARK  Name = 
REMARK  6 active torsions:
REMARK  status: ('A' for Active; 'I' for Inactive)
REMARK    1  A    between atoms: C_1  and  C_2
REMARK    2  A    between atoms: C_2  and  N_3
REMARK    3  A    between atoms: C_2  and  C_16
REMARK    4  A    between atoms: C_4  and  C_6
REMARK    5  A    between atoms: C_19  and  O_20
REMARK    6  A    between atoms: O_20  and  C_21
REMARK                            x       y       z     vdW  Elec       q    Type
REMARK                         _______ _______ _______ _____ _____    ______ ____
ROOT
ATOM      1  C   UNL     1      42.850   5.069  13.037  0.00  0.00    +0.000 C 
ATOM      2  C   UNL     1      44.200   4.378  12.825  0.00  0.00    +0.000 C 
ENDROOT
BRANCH   2   3
ATOM      3  C   UNL     1      44.637   4.356  11.371  0.00  0.00    +0.000 A 
ATOM      4  C   UNL     1      44.288   3.258  10.572  0.00  0.00    +0.000 A 
ATOM      5  C   UNL     1      44.691   3.190   9.239  0.00  0.00    +0.000 A 
ATOM      6  C   UNL     1      45.422   4.235   8.671  0.00  0.00    +0.000 A 
ATOM      7  C   UNL     1      45.825   5.304   9.469  0.00  0.00    +0.000 A 
ATOM      8  C   UNL     1      45.443   5.361  10.812  0.00  0.00    +0.000 A 
BRANCH   6   9
ATOM      9  O   UNL     1      45.862   4.253   7.367  0.00  0.00    +0.000 OA
BRANCH   9  10
ATOM     10  C   UNL     1      46.445   3.106   6.849  0.00  0.00    +0.000 A 
ATOM     11  C   UNL     1      46.773   3.117   5.500  0.00  0.00    +0.000 A 
ATOM     12  N   UNL     1      47.377   2.068   4.888  0.00  0.00    +0.000 NA
ATOM     13  C   UNL     1      47.626   1.005   5.686  0.00  0.00    +0.000 A 
ATOM     14  C   UNL     1      47.269   0.980   7.024  0.00  0.00    +0.000 A 
ATOM     15  N   UNL     1      46.660   2.021   7.630  0.00  0.00    +0.000 NA
ENDBRANCH   9  10
ENDBRANCH   6   9
ENDBRANCH   2   3
BRANCH   2  16
ATOM     16  N   UNL     1      45.246   5.005  13.612  0.00  0.00    +0.000 N 
ATOM     17  C   UNL     1      46.391   4.365  13.998  0.00  0.00    +0.000 C 
ATOM     18  O   UNL     1      46.600   3.185  13.711  0.00  0.00    +0.000 OA
ATOM     19  H   UNL     1      45.104   5.983  13.843  0.00  0.00    +0.000 HD
BRANCH  17  20
ATOM     20  C   UNL     1      47.367   5.144  14.778  0.00  0.00    +0.000 A 
ATOM     21  C   UNL     1      48.009   6.221  14.179  0.00  0.00    +0.000 A 
ATOM     22  S   UNL     1      49.144   6.999  15.184  0.00  0.00    +0.000 S 
ATOM     23  C   UNL     1      48.826   5.927  16.464  0.00  0.00    +0.000 A 
ATOM     24  N   UNL     1      49.507   6.027  17.638  0.00  0.00    +0.000 NA
ATOM     25  C   UNL     1      49.169   5.156  18.529  0.00  0.00    +0.000 A 
ATOM     26  N   UNL     1      48.200   4.203  18.356  0.00  0.00    +0.000 N 
ATOM     27  C   UNL     1      47.476   4.075  17.195  0.00  0.00    +0.000 A 
ATOM     28  O   UNL     1      46.597   3.225  17.095  0.00  0.00    +0.000 OA
ATOM     29  C   UNL     1      47.840   5.008  16.143  0.00  0.00    +0.000 A 
ATOM     30  H   UNL     1      47.968   3.560  19.099  0.00  0.00    +0.000 HD
ENDBRANCH  17  20
ENDBRANCH   2  16
TORSDOF 5
ENDMDL
MODEL 2
REMARK VINA RESULT:    -8.314      1.532      2.400
REMARK INTER + INTRA:         -10.902
REMARK INTER:                 -10.645
REMARK INTRA:                  -0.258
REMARK UNBOUND:                -0.158
REMARK  Name = 
REMARK  6 active torsions:
REMARK  status: ('A' for Active; 'I' for Inactive)
REMARK    1  A    between atoms: C_1  and  C_2
REMARK    2  A    between atoms: C_2  and  N_3
REMARK    3  A    between atoms: C_2  and  C_16
REMARK    4  A    between atoms: C_4  and  C_6
REMARK    5  A    between atoms: C_19  and  O_20
REMARK    6  A    between atoms: O_20  and  C_21
REMARK                            x       y       z     vdW  Elec       q    Type
REMARK                         _______ _______ _______ _____ _____    ______ ____
ROOT
ATOM      1  C   UNL     1      42.847   5.045  12.955  0.00  0.00    +0.000 C 
ATOM      2  C   UNL     1      44.196   4.353  12.744  0.00  0.00    +0.000 C 
ENDROOT
BRANCH   2   3
ATOM      3  C   UNL     1      44.632   4.328  11.289  0.00  0.00    +0.000 A 
ATOM      4  C   UNL     1      44.291   3.223  10.496  0.00  0.00    +0.000 A 
ATOM      5  C   UNL     1      44.693   3.152   9.162  0.00  0.00    +0.000 A 
ATOM      6  C   UNL     1      45.415   4.200   8.589  0.00  0.00    +0.000 A 
ATOM      7  C   UNL     1      45.811   5.276   9.382  0.00  0.00    +0.000 A 
ATOM      8  C   UNL     1      45.429   5.336  10.724  0.00  0.00    +0.000 A 
BRANCH   6   9
ATOM      9  O   UNL     1      45.854   4.215   7.285  0.00  0.00    +0.000 OA
BRANCH   9  10
ATOM     10  C   UNL     1      46.452   3.074   6.773  0.00  0.00    +0.000 A 
ATOM     11  C   UNL     1      46.626   3.012   5.398  0.00  0.00    +0.000 A 
ATOM     12  N   UNL     1      47.227   1.962   4.784  0.00  0.00    +0.000 NA
ATOM     13  C   UNL     1      47.635   0.973   5.611  0.00  0.00    +0.000 A 
ATOM     14  C   UNL     1      47.433   1.019   6.981  0.00  0.00    +0.000 A 
ATOM     15  N   UNL     1      46.826   2.060   7.589  0.00  0.00    +0.000 NA
ENDBRANCH   9  10
ENDBRANCH   6   9
ENDBRANCH   2   3
BRANCH   2  16
ATOM     16  N   UNL     1      45.243   4.981  13.528  0.00  0.00    +0.000 N 
ATOM     17  C   UNL     1      46.377   4.333  13.935  0.00  0.00    +0.000 C 
ATOM     18  O   UNL     1      46.573   3.146  13.671  0.00  0.00    +0.000 OA
ATOM     19  H   UNL     1      45.112   5.964  13.740  0.00  0.00    +0.000 HD
BRANCH  17  20
ATOM     20  C   UNL     1      47.356   5.114  14.710  0.00  0.00    +0.000 A 
ATOM     21  C   UNL     1      47.683   4.706  15.997  0.00  0.00    +0.000 A 
ATOM     22  S   UNL     1      48.791   5.729  16.789  0.00  0.00    +0.000 S 
ATOM     23  C   UNL     1      48.881   6.763  15.443  0.00  0.00    +0.000 A 
ATOM     24  N   UNL     1      49.653   7.883  15.480  0.00  0.00    +0.000 NA
ATOM     25  C   UNL     1      49.636   8.580  14.394  0.00  0.00    +0.000 A 
ATOM     26  N   UNL     1      48.930   8.249  13.268  0.00  0.00    +0.000 N 
ATOM     27  C   UNL     1      48.151   7.120  13.179  0.00  0.00    +0.000 A 
ATOM     28  O   UNL     1      47.558   6.847  12.141  0.00  0.00    +0.000 OA
ATOM     29  C   UNL     1      48.103   6.315  14.388  0.00  0.00    +0.000 A 
ATOM     30  H   UNL     1      48.972   8.826  12.441  0.00  0.00    +0.000 HD
ENDBRANCH  17  20
ENDBRANCH   2  16
TORSDOF 5
ENDMDL
MODEL 3
REMARK VINA RESULT:    -7.913      2.033      3.188
REMARK INTER + INTRA:         -10.383
REMARK INTER:                 -10.342
REMARK INTRA:                  -0.042
REMARK UNBOUND:                -0.158
REMARK  Name = 
REMARK  6 active torsions:
REMARK  status: ('A' for Active; 'I' for Inactive)
REMARK    1  A    between atoms: C_1  and  C_2
REMARK    2  A    between atoms: C_2  and  N_3
REMARK    3  A    between atoms: C_2  and  C_16
REMARK    4  A    between atoms: C_4  and  C_6
REMARK    5  A    between atoms: C_19  and  O_20
REMARK    6  A    between atoms: O_20  and  C_21
REMARK                            x       y       z     vdW  Elec       q    Type
REMARK                         _______ _______ _______ _____ _____    ______ ____
ROOT
ATOM      1  C   UNL     1      47.970   8.982  12.497  0.00  0.00    +0.000 C 
ATOM      2  C   UNL     1      46.858   8.234  13.237  0.00  0.00    +0.000 C 
ENDROOT
BRANCH   2   3
ATOM      3  C   UNL     1      46.125   7.235  12.360  0.00  0.00    +0.000 A 
ATOM      4  C   UNL     1      44.940   6.654  12.834  0.00  0.00    +0.000 A 
ATOM      5  C   UNL     1      44.250   5.715  12.068  0.00  0.00    +0.000 A 
ATOM      6  C   UNL     1      44.716   5.364  10.799  0.00  0.00    +0.000 A 
ATOM      7  C   UNL     1      45.923   5.889  10.342  0.00  0.00    +0.000 A 
ATOM      8  C   UNL     1      46.627   6.812  11.119  0.00  0.00    +0.000 A 
BRANCH   6   9
ATOM      9  O   UNL     1      44.104   4.447   9.976  0.00  0.00    +0.000 OA
BRANCH   9  10
ATOM     10  C   UNL     1      44.892   3.694   9.118  0.00  0.00    +0.000 A 
ATOM     11  C   UNL     1      45.133   2.375   9.474  0.00  0.00    +0.000 A 
ATOM     12  N   UNL     1      45.861   1.532   8.700  0.00  0.00    +0.000 NA
ATOM     13  C   UNL     1      46.345   2.075   7.560  0.00  0.00    +0.000 A 
ATOM     14  C   UNL     1      46.133   3.401   7.220  0.00  0.00    +0.000 A 
ATOM     15  N   UNL     1      45.416   4.242   7.996  0.00  0.00    +0.000 NA
ENDBRANCH   9  10
ENDBRANCH   6   9
ENDBRANCH   2   3
BRANCH   2  16
ATOM     16  N   UNL     1      47.371   7.536  14.401  0.00  0.00    +0.000 N 
ATOM     17  C   UNL     1      48.554   6.850  14.412  0.00  0.00    +0.000 C 
ATOM     18  O   UNL     1      49.261   6.764  13.407  0.00  0.00    +0.000 OA
ATOM     19  H   UNL     1      46.815   7.610  15.247  0.00  0.00    +0.000 HD
BRANCH  17  20
ATOM     20  C   UNL     1      48.948   6.209  15.678  0.00  0.00    +0.000 A 
ATOM     21  C   UNL     1      50.022   6.723  16.393  0.00  0.00    +0.000 A 
ATOM     22  S   UNL     1      50.393   5.855  17.811  0.00  0.00    +0.000 S 
ATOM     23  C   UNL     1      49.131   4.751  17.529  0.00  0.00    +0.000 A 
ATOM     24  N   UNL     1      48.920   3.708  18.378  0.00  0.00    +0.000 NA
ATOM     25  C   UNL     1      47.929   2.947  18.053  0.00  0.00    +0.000 A 
ATOM     26  N   UNL     1      47.122   3.143  16.964  0.00  0.00    +0.000 N 
ATOM     27  C   UNL     1      47.288   4.190  16.089  0.00  0.00    +0.000 A 
ATOM     28  O   UNL     1      46.523   4.344  15.143  0.00  0.00    +0.000 OA
ATOM     29  C   UNL     1      48.412   5.062  16.387  0.00  0.00    +0.000 A 
ATOM     30  H   UNL     1      46.349   2.522  16.772  0.00  0.00    +0.000 HD
ENDBRANCH  17  20
ENDBRANCH   2  16
TORSDOF 5
ENDMDL
MODEL 4
REMARK VINA RESULT:    -7.563      2.374      3.661
REMARK INTER + INTRA:          -9.932
REMARK INTER:                  -8.822
REMARK INTRA:                  -1.110
REMARK UNBOUND:                -0.158
REMARK  Name = 
REMARK  6 active torsions:
REMARK  status: ('A' for Active; 'I' for Inactive)
REMARK    1  A    between atoms: C_1  and  C_2
REMARK    2  A    between atoms: C_2  and  N_3
REMARK    3  A    between atoms: C_2  and  C_16
REMARK    4  A    between atoms: C_4  and  C_6
REMARK    5  A    between atoms: C_19  and  O_20
REMARK    6  A    between atoms: O_20  and  C_21
REMARK                            x       y       z     vdW  Elec       q    Type
REMARK                         _______ _______ _______ _____ _____    ______ ____
ROOT
ATOM      1  C   UNL     1      48.039   9.264  12.978  0.00  0.00    +0.000 C 
ATOM      2  C   UNL     1      47.301   8.163  13.746  0.00  0.00    +0.000 C 
ENDROOT
BRANCH   2   3
ATOM      3  C   UNL     1      46.506   7.236  12.842  0.00  0.00    +0.000 A 
ATOM      4  C   UNL     1      45.590   7.791  11.937  0.00  0.00    +0.000 A 
ATOM      5  C   UNL     1      44.824   6.972  11.106  0.00  0.00    +0.000 A 
ATOM      6  C   UNL     1      44.986   5.585  11.143  0.00  0.00    +0.000 A 
ATOM      7  C   UNL     1      45.850   5.020  12.078  0.00  0.00    +0.000 A 
ATOM      8  C   UNL     1      46.600   5.838  12.927  0.00  0.00    +0.000 A 
BRANCH   6   9
ATOM      9  O   UNL     1      44.275   4.703  10.364  0.00  0.00    +0.000 OA
BRANCH   9  10
ATOM     10  C   UNL     1      44.959   3.952   9.419  0.00  0.00    +0.000 A 
ATOM     11  C   UNL     1      44.943   2.573   9.573  0.00  0.00    +0.000 A 
ATOM     12  N   UNL     1      45.548   1.734   8.696  0.00  0.00    +0.000 NA
ATOM     13  C   UNL     1      46.177   2.341   7.664  0.00  0.00    +0.000 A 
ATOM     14  C   UNL     1      46.221   3.718   7.526  0.00  0.00    +0.000 A 
ATOM     15  N   UNL     1      45.627   4.553   8.406  0.00  0.00    +0.000 NA
ENDBRANCH   9  10
ENDBRANCH   6   9
ENDBRANCH   2   3
BRANCH   2  16
ATOM     16  N   UNL     1      48.216   7.362  14.537  0.00  0.00    +0.000 N 
ATOM     17  C   UNL     1      48.606   7.688  15.806  0.00  0.00    +0.000 C 
ATOM     18  O   UNL     1      48.210   8.715  16.360  0.00  0.00    +0.000 OA
ATOM     19  H   UNL     1      48.540   6.501  14.108  0.00  0.00    +0.000 HD
BRANCH  17  20
ATOM     20  C   UNL     1      49.527   6.762  16.486  0.00  0.00    +0.000 A 
ATOM     21  C   UNL     1      50.770   7.223  16.900  0.00  0.00    +0.000 A 
ATOM     22  S   UNL     1      51.745   6.032  17.629  0.00  0.00    +0.000 S 
ATOM     23  C   UNL     1      50.546   4.845  17.421  0.00  0.00    +0.000 A 
ATOM     24  N   UNL     1      50.766   3.561  17.811  0.00  0.00    +0.000 NA
ATOM     25  C   UNL     1      49.776   2.760  17.600  0.00  0.00    +0.000 A 
ATOM     26  N   UNL     1      48.579   3.133  17.048  0.00  0.00    +0.000 N 
ATOM     27  C   UNL     1      48.306   4.421  16.654  0.00  0.00    +0.000 A 
ATOM     28  O   UNL     1      47.209   4.716  16.190  0.00  0.00    +0.000 OA
ATOM     29  C   UNL     1      49.400   5.359  16.835  0.00  0.00    +0.000 A 
ATOM     30  H   UNL     1      47.834   2.462  16.925  0.00  0.00    +0.000 HD
ENDBRANCH  17  20
ENDBRANCH   2  16
TORSDOF 5
ENDMDL
MODEL 5
REMARK VINA RESULT:    -7.537      3.741      6.261
REMARK INTER + INTRA:          -9.897
REMARK INTER:                  -8.859
REMARK INTRA:                  -1.039
REMARK UNBOUND:                -0.158
REMARK  Name = 
REMARK  6 active torsions:
REMARK  status: ('A' for Active; 'I' for Inactive)
REMARK    1  A    between atoms: C_1  and  C_2
REMARK    2  A    between atoms: C_2  and  N_3
REMARK    3  A    between atoms: C_2  and  C_16
REMARK    4  A    between atoms: C_4  and  C_6
REMARK    5  A    between atoms: C_19  and  O_20
REMARK    6  A    between atoms: O_20  and  C_21
REMARK                            x       y       z     vdW  Elec       q    Type
REMARK                         _______ _______ _______ _____ _____    ______ ____
ROOT
ATOM      1  C   UNL     1      49.863   7.857  15.580  0.00  0.00    +0.000 C 
ATOM      2  C   UNL     1      49.260   6.649  16.304  0.00  0.00    +0.000 C 
ENDROOT
BRANCH   2   3
ATOM      3  C   UNL     1      48.337   5.825  15.423  0.00  0.00    +0.000 A 
ATOM      4  C   UNL     1      48.047   6.281  14.129  0.00  0.00    +0.000 A 
ATOM      5  C   UNL     1      47.186   5.564  13.297  0.00  0.00    +0.000 A 
ATOM      6  C   UNL     1      46.625   4.362  13.734  0.00  0.00    +0.000 A 
ATOM      7  C   UNL     1      46.859   3.930  15.038  0.00  0.00    +0.000 A 
ATOM      8  C   UNL     1      47.702   4.660  15.880  0.00  0.00    +0.000 A 
BRANCH   6   9
ATOM      9  O   UNL     1      45.766   3.592  12.985  0.00  0.00    +0.000 OA
BRANCH   9  10
ATOM     10  C   UNL     1      44.672   4.205  12.392  0.00  0.00    +0.000 A 
ATOM     11  C   UNL     1      43.611   4.545  13.219  0.00  0.00    +0.000 A 
ATOM     12  N   UNL     1      42.502   5.177  12.760  0.00  0.00    +0.000 NA
ATOM     13  C   UNL     1      42.501   5.441  11.434  0.00  0.00    +0.000 A 
ATOM     14  C   UNL     1      43.545   5.073  10.602  0.00  0.00    +0.000 A 
ATOM     15  N   UNL     1      44.645   4.436  11.058  0.00  0.00    +0.000 NA
ENDBRANCH   9  10
ENDBRANCH   6   9
ENDBRANCH   2   3
BRANCH   2  16
ATOM     16  N   UNL     1      50.293   5.777  16.832  0.00  0.00    +0.000 N 
ATOM     17  C   UNL     1      50.359   5.388  18.141  0.00  0.00    +0.000 C 
ATOM     18  O   UNL     1      49.538   5.777  18.973  0.00  0.00    +0.000 OA
ATOM     19  H   UNL     1      50.968   5.428  16.160  0.00  0.00    +0.000 HD
BRANCH  17  20
ATOM     20  C   UNL     1      51.457   4.484  18.519  0.00  0.00    +0.000 A 
ATOM     21  C   UNL     1      52.449   4.942  19.378  0.00  0.00    +0.000 A 
ATOM     22  S   UNL     1      53.678   3.806  19.690  0.00  0.00    +0.000 S 
ATOM     23  C   UNL     1      52.938   2.649  18.687  0.00  0.00    +0.000 A 
ATOM     24  N   UNL     1      53.515   1.433  18.488  0.00  0.00    +0.000 NA
ATOM     25  C   UNL     1      52.851   0.647  17.709  0.00  0.00    +0.000 A 
ATOM     26  N   UNL     1      51.654   0.962  17.123  0.00  0.00    +0.000 N 
ATOM     27  C   UNL     1      51.026   2.171  17.308  0.00  0.00    +0.000 A 
ATOM     28  O   UNL     1      49.940   2.401  16.786  0.00  0.00    +0.000 OA
ATOM     29  C   UNL     1      51.748   3.111  18.149  0.00  0.00    +0.000 A 
ATOM     30  H   UNL     1      51.172   0.296  16.537  0.00  0.00    +0.000 HD
ENDBRANCH  17  20
ENDBRANCH   2  16
TORSDOF 5
ENDMDL
MODEL 6
REMARK VINA RESULT:    -7.340      3.347      5.153
REMARK INTER + INTRA:          -9.644
REMARK INTER:                  -8.344
REMARK INTRA:                  -1.300
REMARK UNBOUND:                -0.158
REMARK  Name = 
REMARK  6 active torsions:
REMARK  status: ('A' for Active; 'I' for Inactive)
REMARK    1  A    between atoms: C_1  and  C_2
REMARK    2  A    between atoms: C_2  and  N_3
REMARK    3  A    between atoms: C_2  and  C_16
REMARK    4  A    between atoms: C_4  and  C_6
REMARK    5  A    between atoms: C_19  and  O_20
REMARK    6  A    between atoms: O_20  and  C_21
REMARK                            x       y       z     vdW  Elec       q    Type
REMARK                         _______ _______ _______ _____ _____    ______ ____
ROOT
ATOM      1  C   UNL     1      50.298   8.778  13.163  0.00  0.00    +0.000 C 
ATOM      2  C   UNL     1      48.989   8.749  13.958  0.00  0.00    +0.000 C 
ENDROOT
BRANCH   2   3
ATOM      3  C   UNL     1      47.821   8.191  13.163  0.00  0.00    +0.000 A 
ATOM      4  C   UNL     1      46.560   8.788  13.298  0.00  0.00    +0.000 A 
ATOM      5  C   UNL     1      45.457   8.290  12.603  0.00  0.00    +0.000 A 
ATOM      6  C   UNL     1      45.605   7.206  11.735  0.00  0.00    +0.000 A 
ATOM      7  C   UNL     1      46.840   6.569  11.636  0.00  0.00    +0.000 A 
ATOM      8  C   UNL     1      47.939   7.052  12.351  0.00  0.00    +0.000 A 
BRANCH   6   9
ATOM      9  O   UNL     1      44.576   6.649  11.011  0.00  0.00    +0.000 OA
BRANCH   9  10
ATOM     10  C   UNL     1      44.141   5.376  11.349  0.00  0.00    +0.000 A 
ATOM     11  C   UNL     1      44.021   4.454  10.319  0.00  0.00    +0.000 A 
ATOM     12  N   UNL     1      43.637   3.170  10.530  0.00  0.00    +0.000 NA
ATOM     13  C   UNL     1      43.369   2.857  11.818  0.00  0.00    +0.000 A 
ATOM     14  C   UNL     1      43.456   3.785  12.843  0.00  0.00    +0.000 A 
ATOM     15  N   UNL     1      43.829   5.066  12.630  0.00  0.00    +0.000 NA
ENDBRANCH   9  10
ENDBRANCH   6   9
ENDBRANCH   2   3
BRANCH   2  16
ATOM     16  N   UNL     1      49.126   7.977  15.179  0.00  0.00    +0.000 N 
ATOM     17  C   UNL     1      48.592   8.356  16.379  0.00  0.00    +0.000 C 
ATOM     18  O   UNL     1      47.963   9.409  16.503  0.00  0.00    +0.000 OA
ATOM     19  H   UNL     1      49.623   7.096  15.096  0.00  0.00    +0.000 HD
BRANCH  17  20
ATOM     20  C   UNL     1      48.802   7.454  17.524  0.00  0.00    +0.000 A 
ATOM     21  C   UNL     1      49.160   7.992  18.754  0.00  0.00    +0.000 A 
ATOM     22  S   UNL     1      49.415   6.829  19.972  0.00  0.00    +0.000 S 
ATOM     23  C   UNL     1      49.057   5.554  18.906  0.00  0.00    +0.000 A 
ATOM     24  N   UNL     1      49.127   4.261  19.323  0.00  0.00    +0.000 NA
ATOM     25  C   UNL     1      48.828   3.390  18.418  0.00  0.00    +0.000 A 
ATOM     26  N   UNL     1      48.452   3.698  17.137  0.00  0.00    +0.000 N 
ATOM     27  C   UNL     1      48.353   4.988  16.677  0.00  0.00    +0.000 A 
ATOM     28  O   UNL     1      47.984   5.219  15.529  0.00  0.00    +0.000 OA
ATOM     29  C   UNL     1      48.712   6.011  17.644  0.00  0.00    +0.000 A 
ATOM     30  H   UNL     1      48.212   2.970  16.478  0.00  0.00    +0.000 HD
ENDBRANCH  17  20
ENDBRANCH   2  16
TORSDOF 5
ENDMDL
MODEL 7
REMARK VINA RESULT:    -7.219      4.327      6.267
REMARK INTER + INTRA:          -9.487
REMARK INTER:                  -8.534
REMARK INTRA:                  -0.953
REMARK UNBOUND:                -0.158
REMARK  Name = 
REMARK  6 active torsions:
REMARK  status: ('A' for Active; 'I' for Inactive)
REMARK    1  A    between atoms: C_1  and  C_2
REMARK    2  A    between atoms: C_2  and  N_3
REMARK    3  A    between atoms: C_2  and  C_16
REMARK    4  A    between atoms: C_4  and  C_6
REMARK    5  A    between atoms: C_19  and  O_20
REMARK    6  A    between atoms: O_20  and  C_21
REMARK                            x       y       z     vdW  Elec       q    Type
REMARK                         _______ _______ _______ _____ _____    ______ ____
ROOT
ATOM      1  C   UNL     1      44.392   4.260  12.916  0.00  0.00    +0.000 C 
ATOM      2  C   UNL     1      45.626   5.167  12.890  0.00  0.00    +0.000 C 
ENDROOT
BRANCH   2   3
ATOM      3  C   UNL     1      45.314   6.587  12.454  0.00  0.00    +0.000 A 
ATOM      4  C   UNL     1      44.307   6.800  11.501  0.00  0.00    +0.000 A 
ATOM      5  C   UNL     1      44.006   8.087  11.057  0.00  0.00    +0.000 A 
ATOM      6  C   UNL     1      44.685   9.189  11.583  0.00  0.00    +0.000 A 
ATOM      7  C   UNL     1      45.726   8.986  12.486  0.00  0.00    +0.000 A 
ATOM      8  C   UNL     1      46.044   7.694  12.913  0.00  0.00    +0.000 A 
BRANCH   6   9
ATOM      9  O   UNL     1      44.456  10.492  11.204  0.00  0.00    +0.000 OA
BRANCH   9  10
ATOM     10  C   UNL     1      43.145  10.925  11.078  0.00  0.00    +0.000 A 
ATOM     11  C   UNL     1      42.658  11.105   9.791  0.00  0.00    +0.000 A 
ATOM     12  N   UNL     1      41.383  11.494   9.540  0.00  0.00    +0.000 NA
ATOM     13  C   UNL     1      40.623  11.705  10.638  0.00  0.00    +0.000 A 
ATOM     14  C   UNL     1      41.117  11.558  11.924  0.00  0.00    +0.000 A 
ATOM     15  N   UNL     1      42.389  11.180  12.172  0.00  0.00    +0.000 NA
ENDBRANCH   9  10
ENDBRANCH   6   9
ENDBRANCH   2   3
BRANCH   2  16
ATOM     16  N   UNL     1      46.277   5.216  14.187  0.00  0.00    +0.000 N 
ATOM     17  C   UNL     1      47.066   4.212  14.676  0.00  0.00    +0.000 C 
ATOM     18  O   UNL     1      47.262   3.176  14.041  0.00  0.00    +0.000 OA
ATOM     19  H   UNL     1      46.145   6.069  14.719  0.00  0.00    +0.000 HD
BRANCH  17  20
ATOM     20  C   UNL     1      47.672   4.420  16.002  0.00  0.00    +0.000 A 
ATOM     21  C   UNL     1      47.367   3.539  17.033  0.00  0.00    +0.000 A 
ATOM     22  S   UNL     1      48.102   3.929  18.519  0.00  0.00    +0.000 S 
ATOM     23  C   UNL     1      48.860   5.294  17.849  0.00  0.00    +0.000 A 
ATOM     24  N   UNL     1      49.631   6.108  18.620  0.00  0.00    +0.000 NA
ATOM     25  C   UNL     1      50.152   7.107  17.989  0.00  0.00    +0.000 A 
ATOM     26  N   UNL     1      49.982   7.357  16.653  0.00  0.00    +0.000 N 
ATOM     27  C   UNL     1      49.226   6.554  15.832  0.00  0.00    +0.000 A 
ATOM     28  O   UNL     1      49.124   6.800  14.635  0.00  0.00    +0.000 OA
ATOM     29  C   UNL     1      48.586   5.432  16.497  0.00  0.00    +0.000 A 
ATOM     30  H   UNL     1      50.431   8.146  16.212  0.00  0.00    +0.000 HD
ENDBRANCH  17  20
ENDBRANCH   2  16
TORSDOF 5
ENDMDL
MODEL 8
REMARK VINA RESULT:    -7.214      4.159      8.515
REMARK INTER + INTRA:          -9.481
REMARK INTER:                  -8.469
REMARK INTRA:                  -1.011
REMARK UNBOUND:                -0.158
REMARK  Name = 
REMARK  6 active torsions:
REMARK  status: ('A' for Active; 'I' for Inactive)
REMARK    1  A    between atoms: C_1  and  C_2
REMARK    2  A    between atoms: C_2  and  N_3
REMARK    3  A    between atoms: C_2  and  C_16
REMARK    4  A    between atoms: C_4  and  C_6
REMARK    5  A    between atoms: C_19  and  O_20
REMARK    6  A    between atoms: O_20  and  C_21
REMARK                            x       y       z     vdW  Elec       q    Type
REMARK                         _______ _______ _______ _____ _____    ______ ____
ROOT
ATOM      1  C   UNL     1      48.680   9.518  15.248  0.00  0.00    +0.000 C 
ATOM      2  C   UNL     1      48.871   8.105  14.691  0.00  0.00    +0.000 C 
ENDROOT
BRANCH   2   3
ATOM      3  C   UNL     1      49.323   7.106  15.741  0.00  0.00    +0.000 A 
ATOM      4  C   UNL     1      50.696   6.939  15.976  0.00  0.00    +0.000 A 
ATOM      5  C   UNL     1      51.151   6.015  16.916  0.00  0.00    +0.000 A 
ATOM      6  C   UNL     1      50.240   5.264  17.662  0.00  0.00    +0.000 A 
ATOM      7  C   UNL     1      48.877   5.378  17.398  0.00  0.00    +0.000 A 
ATOM      8  C   UNL     1      48.421   6.286  16.439  0.00  0.00    +0.000 A 
BRANCH   6   9
ATOM      9  O   UNL     1      50.598   4.330  18.607  0.00  0.00    +0.000 OA
BRANCH   9  10
ATOM     10  C   UNL     1      51.309   3.212  18.199  0.00  0.00    +0.000 A 
ATOM     11  C   UNL     1      50.621   2.258  17.462  0.00  0.00    +0.000 A 
ATOM     12  N   UNL     1      51.216   1.139  16.979  0.00  0.00    +0.000 NA
ATOM     13  C   UNL     1      52.529   1.015  17.279  0.00  0.00    +0.000 A 
ATOM     14  C   UNL     1      53.210   1.950  18.042  0.00  0.00    +0.000 A 
ATOM     15  N   UNL     1      52.613   3.058  18.530  0.00  0.00    +0.000 NA
ENDBRANCH   9  10
ENDBRANCH   6   9
ENDBRANCH   2   3
BRANCH   2  16
ATOM     16  N   UNL     1      47.655   7.607  14.075  0.00  0.00    +0.000 N 
ATOM     17  C   UNL     1      47.639   6.819  12.957  0.00  0.00    +0.000 C 
ATOM     18  O   UNL     1      48.679   6.492  12.383  0.00  0.00    +0.000 OA
ATOM     19  H   UNL     1      46.788   7.848  14.543  0.00  0.00    +0.000 HD
BRANCH  17  20
ATOM     20  C   UNL     1      46.324   6.379  12.464  0.00  0.00    +0.000 A 
ATOM     21  C   UNL     1      45.470   7.310  11.884  0.00  0.00    +0.000 A 
ATOM     22  S   UNL     1      43.968   6.669  11.402  0.00  0.00    +0.000 S 
ATOM     23  C   UNL     1      44.394   5.116  11.949  0.00  0.00    +0.000 A 
ATOM     24  N   UNL     1      43.512   4.084  11.859  0.00  0.00    +0.000 NA
ATOM     25  C   UNL     1      43.960   2.958  12.306  0.00  0.00    +0.000 A 
ATOM     26  N   UNL     1      45.215   2.770  12.821  0.00  0.00    +0.000 N 
ATOM     27  C   UNL     1      46.143   3.779  12.917  0.00  0.00    +0.000 A 
ATOM     28  O   UNL     1      47.266   3.558  13.359  0.00  0.00    +0.000 OA
ATOM     29  C   UNL     1      45.681   5.078  12.460  0.00  0.00    +0.000 A 
ATOM     30  H   UNL     1      45.514   1.859  13.138  0.00  0.00    +0.000 HD
ENDBRANCH  17  20
ENDBRANCH   2  16
TORSDOF 5
ENDMDL
MODEL 9
REMARK VINA RESULT:    -7.118      2.703      4.278
REMARK INTER + INTRA:          -9.356
REMARK INTER:                  -8.390
REMARK INTRA:                  -0.966
REMARK UNBOUND:                -0.158
REMARK  Name = 
REMARK  6 active torsions:
REMARK  status: ('A' for Active; 'I' for Inactive)
REMARK    1  A    between atoms: C_1  and  C_2
REMARK    2  A    between atoms: C_2  and  N_3
REMARK    3  A    between atoms: C_2  and  C_16
REMARK    4  A    between atoms: C_4  and  C_6
REMARK    5  A    between atoms: C_19  and  O_20
REMARK    6  A    between atoms: O_20  and  C_21
REMARK                            x       y       z     vdW  Elec       q    Type
REMARK                         _______ _______ _______ _____ _____    ______ ____
ROOT
ATOM      1  C   UNL     1      49.677   7.771  13.428  0.00  0.00    +0.000 C 
ATOM      2  C   UNL     1      48.249   7.974  13.943  0.00  0.00    +0.000 C 
ENDROOT
BRANCH   2   3
ATOM      3  C   UNL     1      47.210   7.219  13.132  0.00  0.00    +0.000 A 
ATOM      4  C   UNL     1      46.367   7.936  12.271  0.00  0.00    +0.000 A 
ATOM      5  C   UNL     1      45.385   7.282  11.527  0.00  0.00    +0.000 A 
ATOM      6  C   UNL     1      45.250   5.894  11.607  0.00  0.00    +0.000 A 
ATOM      7  C   UNL     1      46.042   5.179  12.502  0.00  0.00    +0.000 A 
ATOM      8  C   UNL     1      47.010   5.836  13.266  0.00  0.00    +0.000 A 
BRANCH   6   9
ATOM      9  O   UNL     1      44.311   5.167  10.913  0.00  0.00    +0.000 OA
BRANCH   9  10
ATOM     10  C   UNL     1      44.744   4.299   9.922  0.00  0.00    +0.000 A 
ATOM     11  C   UNL     1      44.401   2.961  10.057  0.00  0.00    +0.000 A 
ATOM     12  N   UNL     1      44.739   2.024   9.136  0.00  0.00    +0.000 NA
ATOM     13  C   UNL     1      45.445   2.488   8.080  0.00  0.00    +0.000 A 
ATOM     14  C   UNL     1      45.816   3.818   7.960  0.00  0.00    +0.000 A 
ATOM     15  N   UNL     1      45.488   4.747   8.882  0.00  0.00    +0.000 NA
ENDBRANCH   9  10
ENDBRANCH   6   9
ENDBRANCH   2   3
BRANCH   2  16
ATOM     16  N   UNL     1      48.124   7.580  15.334  0.00  0.00    +0.000 N 
ATOM     17  C   UNL     1      48.544   8.352  16.381  0.00  0.00    +0.000 C 
ATOM     18  O   UNL     1      49.083   9.446  16.202  0.00  0.00    +0.000 OA
ATOM     19  H   UNL     1      47.666   6.691  15.505  0.00  0.00    +0.000 HD
BRANCH  17  20
ATOM     20  C   UNL     1      48.330   7.820  17.737  0.00  0.00    +0.000 A 
ATOM     21  C   UNL     1      47.865   8.669  18.733  0.00  0.00    +0.000 A 
ATOM     22  S   UNL     1      47.710   7.930  20.260  0.00  0.00    +0.000 S 
ATOM     23  C   UNL     1      48.260   6.440  19.654  0.00  0.00    +0.000 A 
ATOM     24  N   UNL     1      48.397   5.365  20.477  0.00  0.00    +0.000 NA
ATOM     25  C   UNL     1      48.819   4.294  19.892  0.00  0.00    +0.000 A 
ATOM     26  N   UNL     1      49.102   4.198  18.556  0.00  0.00    +0.000 N 
ATOM     27  C   UNL     1      48.964   5.252  17.684  0.00  0.00    +0.000 A 
ATOM     28  O   UNL     1      49.202   5.113  16.489  0.00  0.00    +0.000 OA
ATOM     29  C   UNL     1      48.525   6.495  18.295  0.00  0.00    +0.000 A 
ATOM     30  H   UNL     1      49.413   3.325  18.152  0.00  0.00    +0.000 HD
ENDBRANCH  17  20
ENDBRANCH   2  16
TORSDOF 5
ENDMDL
