MODEL 1
REMARK VINA RESULT:    -8.738      0.000      0.000
REMARK INTER + INTRA:         -12.857
REMARK INTER:                 -11.803
REMARK INTRA:                  -1.054
REMARK UNBOUND:                -1.054
REMARK  Name = 
REMARK  8 active torsions:
REMARK  status: ('A' for Active; 'I' for Inactive)
REMARK    1  A    between atoms: C_1  and  C_2
REMARK    2  A    between atoms: N_5  and  C_6
REMARK    3  A    between atoms: C_6  and  C_7
REMARK    4  A    between atoms: C_7  and  C_8
REMARK    5  A    between atoms: C_7  and  C_9
REMARK    6  A    between atoms: C_14  and  O_15
REMARK    7  A    between atoms: O_15  and  C_16
REMARK    8  A    between atoms: C_23  and  C_24
REMARK                            x       y       z     vdW  Elec       q    Type
REMARK                         _______ _______ _______ _____ _____    ______ ____
ROOT
ATOM      1  C   UNL     1      43.598   4.724  10.721  0.00  0.00    +0.000 C 
ENDROOT
BRANCH   1   6
ATOM      2  C   UNL     1      46.526   0.224   7.847  0.00  0.00    +0.000 C 
ATOM      3  C   UNL     1      46.175   1.674   8.024  0.00  0.00    +0.000 A 
ATOM      4  N   UNL     1      45.329   1.945   9.065  0.00  0.00    +0.000 NA
ATOM      5  C   UNL     1      44.937   3.216   9.283  0.00  0.00    +0.000 A 
ATOM      6  N   UNL     1      44.043   3.409  10.309  0.00  0.00    +0.000 N 
ATOM      7  C   UNL     1      45.398   4.252   8.482  0.00  0.00    +0.000 A 
ATOM      8  C   UNL     1      46.266   3.985   7.429  0.00  0.00    +0.000 A 
ATOM      9  C   UNL     1      46.653   2.671   7.166  0.00  0.00    +0.000 A 
ATOM     10  H   UNL     1      43.874   2.578  10.866  0.00  0.00    +0.000 HD
BRANCH   9  11
ATOM     11  C   UNL     1      47.554   2.385   6.020  0.00  0.00    +0.000 C 
ATOM     12  N   UNL     1      48.901   2.407   6.261  0.00  0.00    +0.000 N 
ATOM     13  O   UNL     1      47.140   2.149   4.891  0.00  0.00    +0.000 OA
ATOM     14  H   UNL     1      49.312   2.779   7.106  0.00  0.00    +0.000 HD
ATOM     15  H   UNL     1      49.508   2.282   5.460  0.00  0.00    +0.000 HD
ENDBRANCH   9  11
ENDBRANCH   1   6
BRANCH   1  16
ATOM     16  C   UNL     1      43.773   4.993  12.228  0.00  0.00    +0.000 C 
ATOM     17  C   UNL     1      43.351   3.792  13.082  0.00  0.00    +0.000 C 
BRANCH  16  18
ATOM     18  C   UNL     1      45.223   5.384  12.513  0.00  0.00    +0.000 A 
ATOM     19  C   UNL     1      45.941   6.217  11.640  0.00  0.00    +0.000 A 
ATOM     20  C   UNL     1      47.252   6.579  11.935  0.00  0.00    +0.000 A 
ATOM     21  F   UNL     1      47.917   7.382  11.093  0.00  0.00    +0.000 F 
ATOM     22  C   UNL     1      47.876   6.131  13.089  0.00  0.00    +0.000 A 
ATOM     23  C   UNL     1      47.175   5.315  13.974  0.00  0.00    +0.000 A 
ATOM     24  C   UNL     1      45.860   4.934  13.686  0.00  0.00    +0.000 A 
BRANCH  23  25
ATOM     25  O   UNL     1      47.877   4.922  15.087  0.00  0.00    +0.000 OA
BRANCH  25  26
ATOM     26  C   UNL     1      47.239   4.032  16.030  0.00  0.00    +0.000 C 
ATOM     27  C   UNL     1      47.275   4.412  17.517  0.00  0.00    +0.000 C 
ATOM     28  O   UNL     1      47.833   3.128  17.880  0.00  0.00    +0.000 OA
ATOM     29  C   UNL     1      48.083   2.833  16.485  0.00  0.00    +0.000 C 
ENDBRANCH  25  26
ENDBRANCH  23  25
ENDBRANCH  16  18
ENDBRANCH   1  16
TORSDOF 6
ENDMDL
MODEL 2
REMARK VINA RESULT:    -7.798      2.283      3.519
REMARK INTER + INTRA:         -11.588
REMARK INTER:                 -10.531
REMARK INTRA:                  -1.057
REMARK UNBOUND:                -1.054
REMARK  Name = 
REMARK  8 active torsions:
REMARK  status: ('A' for Active; 'I' for Inactive)
REMARK    1  A    between atoms: C_1  and  C_2
REMARK    2  A    between atoms: N_5  and  C_6
REMARK    3  A    between atoms: C_6  and  C_7
REMARK    4  A    between atoms: C_7  and  C_8
REMARK    5  A    between atoms: C_7  and  C_9
REMARK    6  A    between atoms: C_14  and  O_15
REMARK    7  A    between atoms: O_15  and  C_16
REMARK    8  A    between atoms: C_23  and  C_24
REMARK                            x       y       z     vdW  Elec       q    Type
REMARK                         _______ _______ _______ _____ _____    ______ ____
ROOT
ATOM      1  C   UNL     1      43.542   4.847  10.814  0.00  0.00    +0.000 C 
ENDROOT
BRANCH   1   6
ATOM      2  C   UNL     1      46.440   0.340   7.922  0.00  0.00    +0.000 C 
ATOM      3  C   UNL     1      46.093   1.791   8.100  0.00  0.00    +0.000 A 
ATOM      4  N   UNL     1      45.256   2.064   9.147  0.00  0.00    +0.000 NA
ATOM      5  C   UNL     1      44.867   3.336   9.368  0.00  0.00    +0.000 A 
ATOM      6  N   UNL     1      43.981   3.531  10.400  0.00  0.00    +0.000 N 
ATOM      7  C   UNL     1      45.324   4.370   8.562  0.00  0.00    +0.000 A 
ATOM      8  C   UNL     1      46.183   4.101   7.503  0.00  0.00    +0.000 A 
ATOM      9  C   UNL     1      46.566   2.786   7.238  0.00  0.00    +0.000 A 
ATOM     10  H   UNL     1      43.815   2.701  10.959  0.00  0.00    +0.000 HD
BRANCH   9  11
ATOM     11  C   UNL     1      47.458   2.497   6.085  0.00  0.00    +0.000 C 
ATOM     12  N   UNL     1      48.805   2.611   6.292  0.00  0.00    +0.000 N 
ATOM     13  O   UNL     1      47.034   2.183   4.979  0.00  0.00    +0.000 OA
ATOM     14  H   UNL     1      49.212   3.047   7.107  0.00  0.00    +0.000 HD
ATOM     15  H   UNL     1      49.401   2.483   5.483  0.00  0.00    +0.000 HD
ENDBRANCH   9  11
ENDBRANCH   1   6
BRANCH   1  16
ATOM     16  C   UNL     1      43.675   5.096  12.329  0.00  0.00    +0.000 C 
ATOM     17  C   UNL     1      43.179   3.905  13.157  0.00  0.00    +0.000 C 
BRANCH  16  18
ATOM     18  C   UNL     1      45.128   5.430  12.667  0.00  0.00    +0.000 A 
ATOM     19  C   UNL     1      45.770   4.861  13.778  0.00  0.00    +0.000 A 
ATOM     20  C   UNL     1      47.101   5.162  14.049  0.00  0.00    +0.000 A 
ATOM     21  F   UNL     1      47.698   4.602  15.110  0.00  0.00    +0.000 F 
ATOM     22  C   UNL     1      47.821   6.024  13.236  0.00  0.00    +0.000 A 
ATOM     23  C   UNL     1      47.204   6.588  12.121  0.00  0.00    +0.000 A 
ATOM     24  C   UNL     1      45.863   6.302  11.841  0.00  0.00    +0.000 A 
BRANCH  23  25
ATOM     25  O   UNL     1      47.997   7.428  11.378  0.00  0.00    +0.000 OA
BRANCH  25  26
ATOM     26  C   UNL     1      48.805   8.408  12.068  0.00  0.00    +0.000 C 
ATOM     27  C   UNL     1      48.932   9.805  11.443  0.00  0.00    +0.000 C 
ATOM     28  O   UNL     1      50.377   9.740  11.479  0.00  0.00    +0.000 OA
ATOM     29  C   UNL     1      50.314   8.330  11.799  0.00  0.00    +0.000 C 
ENDBRANCH  25  26
ENDBRANCH  23  25
ENDBRANCH  16  18
ENDBRANCH   1  16
TORSDOF 6
ENDMDL
MODEL 3
REMARK VINA RESULT:    -7.690      2.732      4.180
REMARK INTER + INTRA:         -11.441
REMARK INTER:                 -10.496
REMARK INTRA:                  -0.946
REMARK UNBOUND:                -1.054
REMARK  Name = 
REMARK  8 active torsions:
REMARK  status: ('A' for Active; 'I' for Inactive)
REMARK    1  A    between atoms: C_1  and  C_2
REMARK    2  A    between atoms: N_5  and  C_6
REMARK    3  A    between atoms: C_6  and  C_7
REMARK    4  A    between atoms: C_7  and  C_8
REMARK    5  A    between atoms: C_7  and  C_9
REMARK    6  A    between atoms: C_14  and  O_15
REMARK    7  A    between atoms: O_15  and  C_16
REMARK    8  A    between atoms: C_23  and  C_24
REMARK                            x       y       z     vdW  Elec       q    Type
REMARK                         _______ _______ _______ _____ _____    ______ ____
ROOT
ATOM      1  C   UNL     1      43.481   4.385  10.656  0.00  0.00    +0.000 C 
ENDROOT
BRANCH   1   6
ATOM      2  C   UNL     1      46.721   0.152   7.714  0.00  0.00    +0.000 C 
ATOM      3  C   UNL     1      46.273   1.571   7.917  0.00  0.00    +0.000 A 
ATOM      4  N   UNL     1      45.405   1.763   8.957  0.00  0.00    +0.000 NA
ATOM      5  C   UNL     1      44.927   3.001   9.198  0.00  0.00    +0.000 A 
ATOM      6  N   UNL     1      44.016   3.112  10.221  0.00  0.00    +0.000 N 
ATOM      7  C   UNL     1      45.322   4.081   8.421  0.00  0.00    +0.000 A 
ATOM      8  C   UNL     1      46.211   3.894   7.369  0.00  0.00    +0.000 A 
ATOM      9  C   UNL     1      46.688   2.615   7.082  0.00  0.00    +0.000 A 
ATOM     10  H   UNL     1      43.900   2.261  10.760  0.00  0.00    +0.000 HD
BRANCH   9  11
ATOM     11  C   UNL     1      47.613   2.413   5.937  0.00  0.00    +0.000 C 
ATOM     12  N   UNL     1      48.953   2.537   6.185  0.00  0.00    +0.000 N 
ATOM     13  O   UNL     1      47.222   2.160   4.804  0.00  0.00    +0.000 OA
ATOM     14  H   UNL     1      49.331   2.929   7.036  0.00  0.00    +0.000 HD
ATOM     15  H   UNL     1      49.570   2.468   5.385  0.00  0.00    +0.000 HD
ENDBRANCH   9  11
ENDBRANCH   1   6
BRANCH   1  16
ATOM     16  C   UNL     1      43.626   4.633  12.170  0.00  0.00    +0.000 C 
ATOM     17  C   UNL     1      43.839   3.332  12.951  0.00  0.00    +0.000 C 
BRANCH  16  18
ATOM     18  C   UNL     1      44.770   5.616  12.420  0.00  0.00    +0.000 A 
ATOM     19  C   UNL     1      46.094   5.174  12.573  0.00  0.00    +0.000 A 
ATOM     20  C   UNL     1      47.121   6.090  12.776  0.00  0.00    +0.000 A 
ATOM     21  F   UNL     1      48.378   5.649  12.911  0.00  0.00    +0.000 F 
ATOM     22  C   UNL     1      46.864   7.452  12.831  0.00  0.00    +0.000 A 
ATOM     23  C   UNL     1      45.559   7.910  12.667  0.00  0.00    +0.000 A 
ATOM     24  C   UNL     1      44.515   7.000  12.473  0.00  0.00    +0.000 A 
BRANCH  23  25
ATOM     25  O   UNL     1      45.406   9.273  12.738  0.00  0.00    +0.000 OA
BRANCH  25  26
ATOM     26  C   UNL     1      45.002   9.987  11.548  0.00  0.00    +0.000 C 
ATOM     27  C   UNL     1      45.501  11.428  11.368  0.00  0.00    +0.000 C 
ATOM     28  O   UNL     1      44.154  11.919  11.171  0.00  0.00    +0.000 OA
ATOM     29  C   UNL     1      43.618  10.648  11.610  0.00  0.00    +0.000 C 
ENDBRANCH  25  26
ENDBRANCH  23  25
ENDBRANCH  16  18
ENDBRANCH   1  16
TORSDOF 6
ENDMDL
MODEL 4
REMARK VINA RESULT:    -7.462      2.263      2.703
REMARK INTER + INTRA:         -11.134
REMARK INTER:                 -10.118
REMARK INTRA:                  -1.015
REMARK UNBOUND:                -1.054
REMARK  Name = 
REMARK  8 active torsions:
REMARK  status: ('A' for Active; 'I' for Inactive)
REMARK    1  A    between atoms: C_1  and  C_2
REMARK    2  A    between atoms: N_5  and  C_6
REMARK    3  A    between atoms: C_6  and  C_7
REMARK    4  A    between atoms: C_7  and  C_8
REMARK    5  A    between atoms: C_7  and  C_9
REMARK    6  A    between atoms: C_14  and  O_15
REMARK    7  A    between atoms: O_15  and  C_16
REMARK    8  A    between atoms: C_23  and  C_24
REMARK                            x       y       z     vdW  Elec       q    Type
REMARK                         _______ _______ _______ _____ _____    ______ ____
ROOT
ATOM      1  C   UNL     1      43.715   4.083  11.253  0.00  0.00    +0.000 C 
ENDROOT
BRANCH   1   6
ATOM      2  C   UNL     1      46.640   0.172   7.617  0.00  0.00    +0.000 C 
ATOM      3  C   UNL     1      46.232   1.564   8.008  0.00  0.00    +0.000 A 
ATOM      4  N   UNL     1      45.454   1.648   9.131  0.00  0.00    +0.000 NA
ATOM      5  C   UNL     1      45.016   2.855   9.541  0.00  0.00    +0.000 A 
ATOM      6  N   UNL     1      44.193   2.861  10.642  0.00  0.00    +0.000 N 
ATOM      7  C   UNL     1      45.364   4.011   8.856  0.00  0.00    +0.000 A 
ATOM      8  C   UNL     1      46.163   3.933   7.720  0.00  0.00    +0.000 A 
ATOM      9  C   UNL     1      46.594   2.689   7.260  0.00  0.00    +0.000 A 
ATOM     10  H   UNL     1      44.107   1.957  11.094  0.00  0.00    +0.000 HD
BRANCH   9  11
ATOM     11  C   UNL     1      47.421   2.607   6.027  0.00  0.00    +0.000 C 
ATOM     12  N   UNL     1      48.780   2.642   6.181  0.00  0.00    +0.000 N 
ATOM     13  O   UNL     1      46.935   2.525   4.906  0.00  0.00    +0.000 OA
ATOM     14  H   UNL     1      49.239   2.900   7.043  0.00  0.00    +0.000 HD
ATOM     15  H   UNL     1      49.332   2.657   5.332  0.00  0.00    +0.000 HD
ENDBRANCH   9  11
ENDBRANCH   1   6
BRANCH   1  16
ATOM     16  C   UNL     1      44.467   4.465  12.543  0.00  0.00    +0.000 C 
ATOM     17  C   UNL     1      45.413   3.353  13.012  0.00  0.00    +0.000 C 
BRANCH  16  18
ATOM     18  C   UNL     1      45.227   5.773  12.325  0.00  0.00    +0.000 A 
ATOM     19  C   UNL     1      44.554   6.967  12.018  0.00  0.00    +0.000 A 
ATOM     20  C   UNL     1      45.267   8.150  11.848  0.00  0.00    +0.000 A 
ATOM     21  F   UNL     1      44.606   9.280  11.563  0.00  0.00    +0.000 F 
ATOM     22  C   UNL     1      46.647   8.180  11.978  0.00  0.00    +0.000 A 
ATOM     23  C   UNL     1      47.330   7.008  12.296  0.00  0.00    +0.000 A 
ATOM     24  C   UNL     1      46.628   5.809  12.459  0.00  0.00    +0.000 A 
BRANCH  23  25
ATOM     25  O   UNL     1      48.693   7.137  12.402  0.00  0.00    +0.000 OA
BRANCH  25  26
ATOM     26  C   UNL     1      49.233   7.896  13.507  0.00  0.00    +0.000 C 
ATOM     27  C   UNL     1      50.736   8.206  13.502  0.00  0.00    +0.000 C 
ATOM     28  O   UNL     1      50.904   7.646  14.826  0.00  0.00    +0.000 OA
ATOM     29  C   UNL     1      49.571   7.083  14.765  0.00  0.00    +0.000 C 
ENDBRANCH  25  26
ENDBRANCH  23  25
ENDBRANCH  16  18
ENDBRANCH   1  16
TORSDOF 6
ENDMDL
MODEL 5
REMARK VINA RESULT:    -7.123      3.042      7.970
REMARK INTER + INTRA:         -10.676
REMARK INTER:                 -10.098
REMARK INTRA:                  -0.578
REMARK UNBOUND:                -1.054
REMARK  Name = 
REMARK  8 active torsions:
REMARK  status: ('A' for Active; 'I' for Inactive)
REMARK    1  A    between atoms: C_1  and  C_2
REMARK    2  A    between atoms: N_5  and  C_6
REMARK    3  A    between atoms: C_6  and  C_7
REMARK    4  A    between atoms: C_7  and  C_8
REMARK    5  A    between atoms: C_7  and  C_9
REMARK    6  A    between atoms: C_14  and  O_15
REMARK    7  A    between atoms: O_15  and  C_16
REMARK    8  A    between atoms: C_23  and  C_24
REMARK                            x       y       z     vdW  Elec       q    Type
REMARK                         _______ _______ _______ _____ _____    ______ ____
ROOT
ATOM      1  C   UNL     1      46.902   6.676  11.768  0.00  0.00    +0.000 C 
ENDROOT
BRANCH   1   6
ATOM      2  C   UNL     1      49.084   5.767  17.380  0.00  0.00    +0.000 C 
ATOM      3  C   UNL     1      48.374   5.294  16.142  0.00  0.00    +0.000 A 
ATOM      4  N   UNL     1      48.263   6.224  15.145  0.00  0.00    +0.000 NA
ATOM      5  C   UNL     1      47.616   5.898  14.008  0.00  0.00    +0.000 A 
ATOM      6  N   UNL     1      47.492   6.897  13.072  0.00  0.00    +0.000 N 
ATOM      7  C   UNL     1      47.086   4.628  13.828  0.00  0.00    +0.000 A 
ATOM      8  C   UNL     1      47.204   3.675  14.834  0.00  0.00    +0.000 A 
ATOM      9  C   UNL     1      47.838   4.006  16.032  0.00  0.00    +0.000 A 
ATOM     10  H   UNL     1      48.012   7.737  13.298  0.00  0.00    +0.000 HD
BRANCH   9  11
ATOM     11  C   UNL     1      47.935   2.996  17.117  0.00  0.00    +0.000 C 
ATOM     12  N   UNL     1      46.797   2.733  17.831  0.00  0.00    +0.000 N 
ATOM     13  O   UNL     1      48.978   2.417  17.395  0.00  0.00    +0.000 OA
ATOM     14  H   UNL     1      45.965   3.303  17.788  0.00  0.00    +0.000 HD
ATOM     15  H   UNL     1      46.890   2.097  18.614  0.00  0.00    +0.000 HD
ENDBRANCH   9  11
ENDBRANCH   1   6
BRANCH   1  16
ATOM     16  C   UNL     1      45.374   6.483  11.805  0.00  0.00    +0.000 C 
ATOM     17  C   UNL     1      44.623   7.717  11.292  0.00  0.00    +0.000 C 
BRANCH  16  18
ATOM     18  C   UNL     1      44.995   5.239  11.002  0.00  0.00    +0.000 A 
ATOM     19  C   UNL     1      44.253   4.195  11.577  0.00  0.00    +0.000 A 
ATOM     20  C   UNL     1      43.900   3.084  10.817  0.00  0.00    +0.000 A 
ATOM     21  F   UNL     1      43.185   2.102  11.382  0.00  0.00    +0.000 F 
ATOM     22  C   UNL     1      44.268   2.982   9.483  0.00  0.00    +0.000 A 
ATOM     23  C   UNL     1      44.991   4.014   8.892  0.00  0.00    +0.000 A 
ATOM     24  C   UNL     1      45.363   5.133   9.646  0.00  0.00    +0.000 A 
BRANCH  23  25
ATOM     25  O   UNL     1      45.309   3.822   7.570  0.00  0.00    +0.000 OA
BRANCH  25  26
ATOM     26  C   UNL     1      46.639   3.366   7.236  0.00  0.00    +0.000 C 
ATOM     27  C   UNL     1      46.934   3.013   5.772  0.00  0.00    +0.000 C 
ATOM     28  O   UNL     1      47.425   1.703   6.137  0.00  0.00    +0.000 OA
ATOM     29  C   UNL     1      46.908   1.874   7.479  0.00  0.00    +0.000 C 
ENDBRANCH  25  26
ENDBRANCH  23  25
ENDBRANCH  16  18
ENDBRANCH   1  16
TORSDOF 6
ENDMDL
MODEL 6
REMARK VINA RESULT:    -6.421      2.741      4.271
REMARK INTER + INTRA:          -9.728
REMARK INTER:                  -9.125
REMARK INTRA:                  -0.603
REMARK UNBOUND:                -1.054
REMARK  Name = 
REMARK  8 active torsions:
REMARK  status: ('A' for Active; 'I' for Inactive)
REMARK    1  A    between atoms: C_1  and  C_2
REMARK    2  A    between atoms: N_5  and  C_6
REMARK    3  A    between atoms: C_6  and  C_7
REMARK    4  A    between atoms: C_7  and  C_8
REMARK    5  A    between atoms: C_7  and  C_9
REMARK    6  A    between atoms: C_14  and  O_15
REMARK    7  A    between atoms: O_15  and  C_16
REMARK    8  A    between atoms: C_23  and  C_24
REMARK                            x       y       z     vdW  Elec       q    Type
REMARK                         _______ _______ _______ _____ _____    ______ ____
ROOT
ATOM      1  C   UNL     1      45.832   8.563  12.894  0.00  0.00    +0.000 C 
ENDROOT
BRANCH   1   6
ATOM      2  C   UNL     1      43.511   3.023  11.894  0.00  0.00    +0.000 C 
ATOM      3  C   UNL     1      44.329   4.211  11.474  0.00  0.00    +0.000 A 
ATOM      4  N   UNL     1      44.399   5.223  12.393  0.00  0.00    +0.000 NA
ATOM      5  C   UNL     1      45.087   6.342  12.091  0.00  0.00    +0.000 A 
ATOM      6  N   UNL     1      45.069   7.340  13.036  0.00  0.00    +0.000 N 
ATOM      7  C   UNL     1      45.743   6.469  10.874  0.00  0.00    +0.000 A 
ATOM      8  C   UNL     1      45.684   5.441   9.940  0.00  0.00    +0.000 A 
ATOM      9  C   UNL     1      44.945   4.291  10.220  0.00  0.00    +0.000 A 
ATOM     10  H   UNL     1      44.635   7.068  13.910  0.00  0.00    +0.000 HD
BRANCH   9  11
ATOM     11  C   UNL     1      44.857   3.207   9.207  0.00  0.00    +0.000 C 
ATOM     12  N   UNL     1      44.193   3.489   8.045  0.00  0.00    +0.000 N 
ATOM     13  O   UNL     1      45.336   2.093   9.383  0.00  0.00    +0.000 OA
ATOM     14  H   UNL     1      43.615   4.307   7.914  0.00  0.00    +0.000 HD
ATOM     15  H   UNL     1      44.076   2.724   7.392  0.00  0.00    +0.000 HD
ENDBRANCH   9  11
ENDBRANCH   1   6
BRANCH   1  16
ATOM     16  C   UNL     1      47.350   8.333  12.766  0.00  0.00    +0.000 C 
ATOM     17  C   UNL     1      48.063   9.529  12.123  0.00  0.00    +0.000 C 
BRANCH  16  18
ATOM     18  C   UNL     1      47.939   8.020  14.141  0.00  0.00    +0.000 A 
ATOM     19  C   UNL     1      48.174   9.032  15.085  0.00  0.00    +0.000 A 
ATOM     20  C   UNL     1      48.687   8.717  16.339  0.00  0.00    +0.000 A 
ATOM     21  F   UNL     1      48.897   9.697  17.228  0.00  0.00    +0.000 F 
ATOM     22  C   UNL     1      48.977   7.406  16.685  0.00  0.00    +0.000 A 
ATOM     23  C   UNL     1      48.737   6.386  15.767  0.00  0.00    +0.000 A 
ATOM     24  C   UNL     1      48.231   6.689  14.498  0.00  0.00    +0.000 A 
BRANCH  23  25
ATOM     25  O   UNL     1      49.056   5.123  16.201  0.00  0.00    +0.000 OA
BRANCH  25  26
ATOM     26  C   UNL     1      48.009   4.129  16.267  0.00  0.00    +0.000 C 
ATOM     27  C   UNL     1      47.078   4.143  17.487  0.00  0.00    +0.000 C 
ATOM     28  O   UNL     1      47.342   2.748  17.764  0.00  0.00    +0.000 OA
ATOM     29  C   UNL     1      48.432   2.757  16.811  0.00  0.00    +0.000 C 
ENDBRANCH  25  26
ENDBRANCH  23  25
ENDBRANCH  16  18
ENDBRANCH   1  16
TORSDOF 6
ENDMDL
MODEL 7
REMARK VINA RESULT:    -6.213      4.526      6.370
REMARK INTER + INTRA:          -9.446
REMARK INTER:                  -8.425
REMARK INTRA:                  -1.022
REMARK UNBOUND:                -1.054
REMARK  Name = 
REMARK  8 active torsions:
REMARK  status: ('A' for Active; 'I' for Inactive)
REMARK    1  A    between atoms: C_1  and  C_2
REMARK    2  A    between atoms: N_5  and  C_6
REMARK    3  A    between atoms: C_6  and  C_7
REMARK    4  A    between atoms: C_7  and  C_8
REMARK    5  A    between atoms: C_7  and  C_9
REMARK    6  A    between atoms: C_14  and  O_15
REMARK    7  A    between atoms: O_15  and  C_16
REMARK    8  A    between atoms: C_23  and  C_24
REMARK                            x       y       z     vdW  Elec       q    Type
REMARK                         _______ _______ _______ _____ _____    ______ ____
ROOT
ATOM      1  C   UNL     1      49.544   7.413  13.980  0.00  0.00    +0.000 C 
ENDROOT
BRANCH   1   6
ATOM      2  C   UNL     1      44.074   6.629  11.423  0.00  0.00    +0.000 C 
ATOM      3  C   UNL     1      45.176   6.199  12.349  0.00  0.00    +0.000 A 
ATOM      4  N   UNL     1      46.257   7.038  12.395  0.00  0.00    +0.000 NA
ATOM      5  C   UNL     1      47.307   6.718  13.178  0.00  0.00    +0.000 A 
ATOM      6  N   UNL     1      48.381   7.574  13.133  0.00  0.00    +0.000 N 
ATOM      7  C   UNL     1      47.295   5.566  13.952  0.00  0.00    +0.000 A 
ATOM      8  C   UNL     1      46.196   4.715  13.917  0.00  0.00    +0.000 A 
ATOM      9  C   UNL     1      45.116   5.011  13.085  0.00  0.00    +0.000 A 
ATOM     10  H   UNL     1      48.208   8.421  12.602  0.00  0.00    +0.000 HD
BRANCH   9  11
ATOM     11  C   UNL     1      43.957   4.083  13.026  0.00  0.00    +0.000 C 
ATOM     12  N   UNL     1      44.190   2.818  12.559  0.00  0.00    +0.000 N 
ATOM     13  O   UNL     1      42.825   4.412  13.360  0.00  0.00    +0.000 OA
ATOM     14  H   UNL     1      45.042   2.542  12.091  0.00  0.00    +0.000 HD
ATOM     15  H   UNL     1      43.382   2.217  12.454  0.00  0.00    +0.000 HD
ENDBRANCH   9  11
ENDBRANCH   1   6
BRANCH   1  16
ATOM     16  C   UNL     1      49.520   8.302  15.239  0.00  0.00    +0.000 C 
ATOM     17  C   UNL     1      48.444   9.391  15.158  0.00  0.00    +0.000 C 
BRANCH  16  18
ATOM     18  C   UNL     1      49.323   7.429  16.478  0.00  0.00    +0.000 A 
ATOM     19  C   UNL     1      48.422   7.791  17.492  0.00  0.00    +0.000 A 
ATOM     20  C   UNL     1      48.242   6.967  18.598  0.00  0.00    +0.000 A 
ATOM     21  F   UNL     1      47.372   7.326  19.551  0.00  0.00    +0.000 F 
ATOM     22  C   UNL     1      48.943   5.776  18.726  0.00  0.00    +0.000 A 
ATOM     23  C   UNL     1      49.831   5.394  17.723  0.00  0.00    +0.000 A 
ATOM     24  C   UNL     1      50.029   6.218  16.610  0.00  0.00    +0.000 A 
BRANCH  23  25
ATOM     25  O   UNL     1      50.477   4.202  17.940  0.00  0.00    +0.000 OA
BRANCH  25  26
ATOM     26  C   UNL     1      49.736   2.973  17.774  0.00  0.00    +0.000 C 
ATOM     27  C   UNL     1      50.407   1.824  17.007  0.00  0.00    +0.000 C 
ATOM     28  O   UNL     1      49.281   1.706  16.106  0.00  0.00    +0.000 OA
ATOM     29  C   UNL     1      48.740   2.952  16.607  0.00  0.00    +0.000 C 
ENDBRANCH  25  26
ENDBRANCH  23  25
ENDBRANCH  16  18
ENDBRANCH   1  16
TORSDOF 6
ENDMDL
MODEL 8
REMARK VINA RESULT:    -6.071      4.558      8.539
REMARK INTER + INTRA:          -9.255
REMARK INTER:                  -8.128
REMARK INTRA:                  -1.127
REMARK UNBOUND:                -1.054
REMARK  Name = 
REMARK  8 active torsions:
REMARK  status: ('A' for Active; 'I' for Inactive)
REMARK    1  A    between atoms: C_1  and  C_2
REMARK    2  A    between atoms: N_5  and  C_6
REMARK    3  A    between atoms: C_6  and  C_7
REMARK    4  A    between atoms: C_7  and  C_8
REMARK    5  A    between atoms: C_7  and  C_9
REMARK    6  A    between atoms: C_14  and  O_15
REMARK    7  A    between atoms: O_15  and  C_16
REMARK    8  A    between atoms: C_23  and  C_24
REMARK                            x       y       z     vdW  Elec       q    Type
REMARK                         _______ _______ _______ _____ _____    ______ ____
ROOT
ATOM      1  C   UNL     1      49.982   8.916  13.523  0.00  0.00    +0.000 C 
ENDROOT
BRANCH   1   6
ATOM      2  C   UNL     1      50.191   4.336  17.529  0.00  0.00    +0.000 C 
ATOM      3  C   UNL     1      49.700   5.684  17.085  0.00  0.00    +0.000 A 
ATOM      4  N   UNL     1      50.164   6.099  15.866  0.00  0.00    +0.000 NA
ATOM      5  C   UNL     1      49.799   7.309  15.398  0.00  0.00    +0.000 A 
ATOM      6  N   UNL     1      50.346   7.686  14.195  0.00  0.00    +0.000 N 
ATOM      7  C   UNL     1      48.943   8.126  16.124  0.00  0.00    +0.000 A 
ATOM      8  C   UNL     1      48.460   7.706  17.359  0.00  0.00    +0.000 A 
ATOM      9  C   UNL     1      48.857   6.472  17.875  0.00  0.00    +0.000 A 
ATOM     10  H   UNL     1      50.872   6.951  13.736  0.00  0.00    +0.000 HD
BRANCH   9  11
ATOM     11  C   UNL     1      48.365   6.040  19.209  0.00  0.00    +0.000 C 
ATOM     12  N   UNL     1      47.163   5.388  19.253  0.00  0.00    +0.000 N 
ATOM     13  O   UNL     1      48.980   6.257  20.246  0.00  0.00    +0.000 OA
ATOM     14  H   UNL     1      46.519   5.348  18.475  0.00  0.00    +0.000 HD
ATOM     15  H   UNL     1      46.803   5.162  20.172  0.00  0.00    +0.000 HD
ENDBRANCH   9  11
ENDBRANCH   1   6
BRANCH   1  16
ATOM     16  C   UNL     1      49.407   8.702  12.109  0.00  0.00    +0.000 C 
ATOM     17  C   UNL     1      50.205   7.665  11.311  0.00  0.00    +0.000 C 
BRANCH  16  18
ATOM     18  C   UNL     1      47.936   8.300  12.211  0.00  0.00    +0.000 A 
ATOM     19  C   UNL     1      46.935   9.247  12.481  0.00  0.00    +0.000 A 
ATOM     20  C   UNL     1      45.600   8.859  12.543  0.00  0.00    +0.000 A 
ATOM     21  F   UNL     1      44.660   9.780  12.794  0.00  0.00    +0.000 F 
ATOM     22  C   UNL     1      45.228   7.539  12.342  0.00  0.00    +0.000 A 
ATOM     23  C   UNL     1      46.205   6.587  12.059  0.00  0.00    +0.000 A 
ATOM     24  C   UNL     1      47.553   6.961  12.002  0.00  0.00    +0.000 A 
BRANCH  23  25
ATOM     25  O   UNL     1      45.739   5.309  11.875  0.00  0.00    +0.000 OA
BRANCH  25  26
ATOM     26  C   UNL     1      44.312   5.096  11.795  0.00  0.00    +0.000 C 
ATOM     27  C   UNL     1      43.732   3.840  12.460  0.00  0.00    +0.000 C 
ATOM     28  O   UNL     1      43.069   3.442  11.238  0.00  0.00    +0.000 OA
ATOM     29  C   UNL     1      43.811   4.443  10.500  0.00  0.00    +0.000 C 
ENDBRANCH  25  26
ENDBRANCH  23  25
ENDBRANCH  16  18
ENDBRANCH   1  16
TORSDOF 6
ENDMDL
MODEL 9
REMARK VINA RESULT:    -5.973      3.903      8.950
REMARK INTER + INTRA:          -9.122
REMARK INTER:                  -8.508
REMARK INTRA:                  -0.614
REMARK UNBOUND:                -1.054
REMARK  Name = 
REMARK  8 active torsions:
REMARK  status: ('A' for Active; 'I' for Inactive)
REMARK    1  A    between atoms: C_1  and  C_2
REMARK    2  A    between atoms: N_5  and  C_6
REMARK    3  A    between atoms: C_6  and  C_7
REMARK    4  A    between atoms: C_7  and  C_8
REMARK    5  A    between atoms: C_7  and  C_9
REMARK    6  A    between atoms: C_14  and  O_15
REMARK    7  A    between atoms: O_15  and  C_16
REMARK    8  A    between atoms: C_23  and  C_24
REMARK                            x       y       z     vdW  Elec       q    Type
REMARK                         _______ _______ _______ _____ _____    ______ ____
ROOT
ATOM      1  C   UNL     1      47.390   5.971  13.391  0.00  0.00    +0.000 C 
ENDROOT
BRANCH   1   6
ATOM      2  C   UNL     1      49.644   7.608  18.806  0.00  0.00    +0.000 C 
ATOM      3  C   UNL     1      49.107   6.579  17.852  0.00  0.00    +0.000 A 
ATOM      4  N   UNL     1      48.767   7.055  16.614  0.00  0.00    +0.000 NA
ATOM      5  C   UNL     1      48.249   6.209  15.702  0.00  0.00    +0.000 A 
ATOM      6  N   UNL     1      47.878   6.764  14.500  0.00  0.00    +0.000 N 
ATOM      7  C   UNL     1      48.080   4.862  15.993  0.00  0.00    +0.000 A 
ATOM      8  C   UNL     1      48.432   4.371  17.245  0.00  0.00    +0.000 A 
ATOM      9  C   UNL     1      48.935   5.239  18.214  0.00  0.00    +0.000 A 
ATOM     10  H   UNL     1      48.152   7.734  14.396  0.00  0.00    +0.000 HD
BRANCH   9  11
ATOM     11  C   UNL     1      49.280   4.717  19.562  0.00  0.00    +0.000 C 
ATOM     12  N   UNL     1      50.561   4.276  19.754  0.00  0.00    +0.000 N 
ATOM     13  O   UNL     1      48.469   4.658  20.480  0.00  0.00    +0.000 OA
ATOM     14  H   UNL     1      51.216   4.116  19.003  0.00  0.00    +0.000 HD
ATOM     15  H   UNL     1      50.766   3.856  20.653  0.00  0.00    +0.000 HD
ENDBRANCH   9  11
ENDBRANCH   1   6
BRANCH   1  16
ATOM     16  C   UNL     1      45.991   6.390  12.900  0.00  0.00    +0.000 C 
ATOM     17  C   UNL     1      46.028   7.687  12.086  0.00  0.00    +0.000 C 
BRANCH  16  18
ATOM     18  C   UNL     1      45.371   5.252  12.089  0.00  0.00    +0.000 A 
ATOM     19  C   UNL     1      44.618   4.240  12.706  0.00  0.00    +0.000 A 
ATOM     20  C   UNL     1      44.043   3.229  11.942  0.00  0.00    +0.000 A 
ATOM     21  F   UNL     1      43.322   2.277  12.548  0.00  0.00    +0.000 F 
ATOM     22  C   UNL     1      44.198   3.197  10.564  0.00  0.00    +0.000 A 
ATOM     23  C   UNL     1      44.929   4.200   9.933  0.00  0.00    +0.000 A 
ATOM     24  C   UNL     1      45.521   5.218  10.690  0.00  0.00    +0.000 A 
BRANCH  23  25
ATOM     25  O   UNL     1      45.026   4.082   8.569  0.00  0.00    +0.000 OA
BRANCH  25  26
ATOM     26  C   UNL     1      46.248   3.554   8.005  0.00  0.00    +0.000 C 
ATOM     27  C   UNL     1      46.342   3.432   6.477  0.00  0.00    +0.000 C 
ATOM     28  O   UNL     1      46.702   2.033   6.565  0.00  0.00    +0.000 OA
ATOM     29  C   UNL     1      46.354   2.023   7.970  0.00  0.00    +0.000 C 
ENDBRANCH  25  26
ENDBRANCH  23  25
ENDBRANCH  16  18
ENDBRANCH   1  16
TORSDOF 6
ENDMDL
