MODEL 1
REMARK VINA RESULT:    -7.962      0.000      0.000
REMARK INTER + INTRA:         -11.179
REMARK INTER:                 -10.290
REMARK INTRA:                  -0.889
REMARK UNBOUND:                -0.889
REMARK  Name = 
REMARK  5 active torsions:
REMARK  status: ('A' for Active; 'I' for Inactive)
REMARK    1  A    between atoms: C_2  and  C_4
REMARK    2  A    between atoms: C_7  and  C_8
REMARK    3  A    between atoms: C_8  and  O_9
REMARK    4  A    between atoms: O_9  and  C_10
REMARK    5  A    between atoms: C_14  and  C_15
REMARK                            x       y       z     vdW  Elec       q    Type
REMARK                         _______ _______ _______ _____ _____    ______ ____
ROOT
ATOM      1  O   UNL     1      44.405   5.425  10.846  0.00  0.00    +0.000 OA
ENDROOT
BRANCH   1   2
ATOM      2  C   UNL     1      45.308   5.232  11.854  0.00  0.00    +0.000 A 
ATOM      3  C   UNL     1      45.399   4.120  12.684  0.00  0.00    +0.000 A 
ATOM      4  C   UNL     1      46.384   4.072  13.675  0.00  0.00    +0.000 A 
ATOM      5  C   UNL     1      47.322   5.101  13.800  0.00  0.00    +0.000 A 
ATOM      6  C   UNL     1      47.297   6.182  12.918  0.00  0.00    +0.000 A 
ATOM      7  C   UNL     1      46.230   6.266  12.001  0.00  0.00    +0.000 A 
BRANCH   6   8
ATOM      8  C   UNL     1      48.449   7.157  12.723  0.00  0.00    +0.000 C 
ATOM      9  C   UNL     1      48.973   7.546  14.122  0.00  0.00    +0.000 C 
ATOM     10  C   UNL     1      48.157   8.675  14.744  0.00  0.00    +0.000 C 
ATOM     11  N   UNL     1      48.202   9.867  13.896  0.00  0.00    +0.000 NA
ATOM     12  C   UNL     1      47.595   9.601  12.595  0.00  0.00    +0.000 C 
ATOM     13  C   UNL     1      48.227   8.413  11.862  0.00  0.00    +0.000 C 
ATOM     14  H   UNL     1      49.177  10.141  13.766  0.00  0.00    +0.000 HD
ENDBRANCH   6   8
ENDBRANCH   1   2
BRANCH   1  15
ATOM     15  C   UNL     1      43.834   4.254  10.265  0.00  0.00    +0.000 C 
BRANCH  15  19
ATOM     16  C   UNL     1      46.637   2.421   7.516  0.00  0.00    +0.000 A 
ATOM     17  C   UNL     1      46.469   3.811   7.511  0.00  0.00    +0.000 A 
ATOM     18  C   UNL     1      45.565   4.412   8.396  0.00  0.00    +0.000 A 
ATOM     19  C   UNL     1      44.805   3.633   9.283  0.00  0.00    +0.000 A 
ATOM     20  C   UNL     1      44.989   2.244   9.287  0.00  0.00    +0.000 A 
ATOM     21  C   UNL     1      45.889   1.642   8.404  0.00  0.00    +0.000 A 
BRANCH  16  23
ATOM     22  N   UNL     1      48.697   2.401   6.208  0.00  0.00    +0.000 N 
ATOM     23  C   UNL     1      47.568   1.728   6.593  0.00  0.00    +0.000 C 
ATOM     24  O   UNL     1      47.367   0.582   6.215  0.00  0.00    +0.000 OA
ATOM     25  H   UNL     1      49.369   1.867   5.672  0.00  0.00    +0.000 HD
ATOM     26  H   UNL     1      49.023   3.226   6.688  0.00  0.00    +0.000 HD
ENDBRANCH  16  23
ENDBRANCH  15  19
ENDBRANCH   1  15
TORSDOF 5
ENDMDL
MODEL 2
REMARK VINA RESULT:    -7.168      1.401      2.197
REMARK INTER + INTRA:         -10.152
REMARK INTER:                  -9.396
REMARK INTRA:                  -0.756
REMARK UNBOUND:                -0.889
REMARK  Name = 
REMARK  5 active torsions:
REMARK  status: ('A' for Active; 'I' for Inactive)
REMARK    1  A    between atoms: C_2  and  C_4
REMARK    2  A    between atoms: C_7  and  C_8
REMARK    3  A    between atoms: C_8  and  O_9
REMARK    4  A    between atoms: O_9  and  C_10
REMARK    5  A    between atoms: C_14  and  C_15
REMARK                            x       y       z     vdW  Elec       q    Type
REMARK                         _______ _______ _______ _____ _____    ______ ____
ROOT
ATOM      1  O   UNL     1      44.850   4.824  11.393  0.00  0.00    +0.000 OA
ENDROOT
BRANCH   1   2
ATOM      2  C   UNL     1      45.057   6.169  11.516  0.00  0.00    +0.000 A 
ATOM      3  C   UNL     1      44.113   7.174  11.334  0.00  0.00    +0.000 A 
ATOM      4  C   UNL     1      44.482   8.512  11.498  0.00  0.00    +0.000 A 
ATOM      5  C   UNL     1      45.774   8.851  11.909  0.00  0.00    +0.000 A 
ATOM      6  C   UNL     1      46.708   7.850  12.181  0.00  0.00    +0.000 A 
ATOM      7  C   UNL     1      46.351   6.515  11.902  0.00  0.00    +0.000 A 
BRANCH   6   8
ATOM      8  C   UNL     1      47.996   8.067  12.962  0.00  0.00    +0.000 C 
ATOM      9  C   UNL     1      48.339   9.570  12.888  0.00  0.00    +0.000 C 
ATOM     10  C   UNL     1      49.086   9.923  11.606  0.00  0.00    +0.000 C 
ATOM     11  N   UNL     1      50.338   9.168  11.519  0.00  0.00    +0.000 NA
ATOM     12  C   UNL     1      50.074   7.733  11.450  0.00  0.00    +0.000 C 
ATOM     13  C   UNL     1      49.230   7.215  12.619  0.00  0.00    +0.000 C 
ATOM     14  H   UNL     1      50.901   9.370  12.345  0.00  0.00    +0.000 HD
ENDBRANCH   6   8
ENDBRANCH   1   2
BRANCH   1  15
ATOM     15  C   UNL     1      44.070   4.396  10.279  0.00  0.00    +0.000 C 
BRANCH  15  19
ATOM     16  C   UNL     1      46.629   2.431   7.386  0.00  0.00    +0.000 A 
ATOM     17  C   UNL     1      46.552   3.828   7.407  0.00  0.00    +0.000 A 
ATOM     18  C   UNL     1      45.727   4.472   8.339  0.00  0.00    +0.000 A 
ATOM     19  C   UNL     1      44.956   3.730   9.247  0.00  0.00    +0.000 A 
ATOM     20  C   UNL     1      45.049   2.332   9.224  0.00  0.00    +0.000 A 
ATOM     21  C   UNL     1      45.870   1.687   8.294  0.00  0.00    +0.000 A 
BRANCH  16  23
ATOM     22  N   UNL     1      48.682   2.245   6.080  0.00  0.00    +0.000 N 
ATOM     23  C   UNL     1      47.473   1.694   6.414  0.00  0.00    +0.000 C 
ATOM     24  O   UNL     1      47.132   0.614   5.953  0.00  0.00    +0.000 OA
ATOM     25  H   UNL     1      49.286   1.670   5.507  0.00  0.00    +0.000 HD
ATOM     26  H   UNL     1      49.106   2.984   6.620  0.00  0.00    +0.000 HD
ENDBRANCH  16  23
ENDBRANCH  15  19
ENDBRANCH   1  15
TORSDOF 5
ENDMDL
MODEL 3
REMARK VINA RESULT:    -7.025      4.775      7.921
REMARK INTER + INTRA:          -9.967
REMARK INTER:                  -9.808
REMARK INTRA:                  -0.159
REMARK UNBOUND:                -0.889
REMARK  Name = 
REMARK  5 active torsions:
REMARK  status: ('A' for Active; 'I' for Inactive)
REMARK    1  A    between atoms: C_2  and  C_4
REMARK    2  A    between atoms: C_7  and  C_8
REMARK    3  A    between atoms: C_8  and  O_9
REMARK    4  A    between atoms: O_9  and  C_10
REMARK    5  A    between atoms: C_14  and  C_15
REMARK                            x       y       z     vdW  Elec       q    Type
REMARK                         _______ _______ _______ _____ _____    ______ ____
ROOT
ATOM      1  O   UNL     1      46.714   3.942  14.950  0.00  0.00    +0.000 OA
ENDROOT
BRANCH   1   2
ATOM      2  C   UNL     1      46.658   4.851  13.931  0.00  0.00    +0.000 A 
ATOM      3  C   UNL     1      47.644   5.769  13.582  0.00  0.00    +0.000 A 
ATOM      4  C   UNL     1      47.435   6.638  12.507  0.00  0.00    +0.000 A 
ATOM      5  C   UNL     1      46.274   6.552  11.734  0.00  0.00    +0.000 A 
ATOM      6  C   UNL     1      45.315   5.578  12.018  0.00  0.00    +0.000 A 
ATOM      7  C   UNL     1      45.492   4.788  13.171  0.00  0.00    +0.000 A 
BRANCH   6   8
ATOM      8  C   UNL     1      44.212   5.155  11.058  0.00  0.00    +0.000 C 
ATOM      9  C   UNL     1      43.152   4.385  11.875  0.00  0.00    +0.000 C 
ATOM     10  C   UNL     1      43.525   2.917  12.053  0.00  0.00    +0.000 C 
ATOM     11  N   UNL     1      43.658   2.261  10.750  0.00  0.00    +0.000 NA
ATOM     12  C   UNL     1      44.741   2.861   9.976  0.00  0.00    +0.000 C 
ATOM     13  C   UNL     1      44.587   4.373   9.787  0.00  0.00    +0.000 C 
ATOM     14  H   UNL     1      42.779   2.362  10.241  0.00  0.00    +0.000 HD
ENDBRANCH   6   8
ENDBRANCH   1   2
BRANCH   1  15
ATOM     15  C   UNL     1      47.144   4.429  16.219  0.00  0.00    +0.000 C 
BRANCH  15  19
ATOM     16  C   UNL     1      50.806   2.432  17.393  0.00  0.00    +0.000 A 
ATOM     17  C   UNL     1      50.617   3.780  17.718  0.00  0.00    +0.000 A 
ATOM     18  C   UNL     1      49.436   4.434  17.343  0.00  0.00    +0.000 A 
ATOM     19  C   UNL     1      48.440   3.756  16.623  0.00  0.00    +0.000 A 
ATOM     20  C   UNL     1      48.635   2.404  16.312  0.00  0.00    +0.000 A 
ATOM     21  C   UNL     1      49.813   1.750  16.683  0.00  0.00    +0.000 A 
BRANCH  16  23
ATOM     22  N   UNL     1      51.907   0.383  18.131  0.00  0.00    +0.000 N 
ATOM     23  C   UNL     1      52.041   1.692  17.751  0.00  0.00    +0.000 C 
ATOM     24  O   UNL     1      53.147   2.208  17.673  0.00  0.00    +0.000 OA
ATOM     25  H   UNL     1      52.770  -0.131  18.258  0.00  0.00    +0.000 HD
ATOM     26  H   UNL     1      51.063  -0.144  17.964  0.00  0.00    +0.000 HD
ENDBRANCH  16  23
ENDBRANCH  15  19
ENDBRANCH   1  15
TORSDOF 5
ENDMDL
MODEL 4
REMARK VINA RESULT:    -6.889      2.358      4.034
REMARK INTER + INTRA:          -9.792
REMARK INTER:                  -9.365
REMARK INTRA:                  -0.427
REMARK UNBOUND:                -0.889
REMARK  Name = 
REMARK  5 active torsions:
REMARK  status: ('A' for Active; 'I' for Inactive)
REMARK    1  A    between atoms: C_2  and  C_4
REMARK    2  A    between atoms: C_7  and  C_8
REMARK    3  A    between atoms: C_8  and  O_9
REMARK    4  A    between atoms: O_9  and  C_10
REMARK    5  A    between atoms: C_14  and  C_15
REMARK                            x       y       z     vdW  Elec       q    Type
REMARK                         _______ _______ _______ _____ _____    ______ ____
ROOT
ATOM      1  O   UNL     1      45.626   4.311   7.721  0.00  0.00    +0.000 OA
ENDROOT
BRANCH   1   2
ATOM      2  C   UNL     1      45.032   3.891   8.878  0.00  0.00    +0.000 A 
ATOM      3  C   UNL     1      44.601   2.601   9.168  0.00  0.00    +0.000 A 
ATOM      4  C   UNL     1      44.007   2.329  10.405  0.00  0.00    +0.000 A 
ATOM      5  C   UNL     1      43.901   3.323  11.380  0.00  0.00    +0.000 A 
ATOM      6  C   UNL     1      44.409   4.600  11.136  0.00  0.00    +0.000 A 
ATOM      7  C   UNL     1      44.900   4.885   9.846  0.00  0.00    +0.000 A 
BRANCH   6   8
ATOM      8  C   UNL     1      44.675   5.639  12.217  0.00  0.00    +0.000 C 
ATOM      9  C   UNL     1      45.444   6.807  11.563  0.00  0.00    +0.000 C 
ATOM     10  C   UNL     1      46.943   6.534  11.490  0.00  0.00    +0.000 C 
ATOM     11  N   UNL     1      47.491   6.327  12.832  0.00  0.00    +0.000 NA
ATOM     12  C   UNL     1      46.897   5.148  13.458  0.00  0.00    +0.000 C 
ATOM     13  C   UNL     1      45.367   5.200  13.519  0.00  0.00    +0.000 C 
ATOM     14  H   UNL     1      47.290   7.151  13.400  0.00  0.00    +0.000 HD
ENDBRANCH   6   8
ENDBRANCH   1   2
BRANCH   1  15
ATOM     15  C   UNL     1      46.978   3.909   7.514  0.00  0.00    +0.000 C 
BRANCH  15  19
ATOM     16  C   UNL     1      47.069   0.649   4.660  0.00  0.00    +0.000 A 
ATOM     17  C   UNL     1      47.301   0.390   6.016  0.00  0.00    +0.000 A 
ATOM     18  C   UNL     1      47.274   1.438   6.945  0.00  0.00    +0.000 A 
ATOM     19  C   UNL     1      47.033   2.757   6.531  0.00  0.00    +0.000 A 
ATOM     20  C   UNL     1      46.792   3.003   5.173  0.00  0.00    +0.000 A 
ATOM     21  C   UNL     1      46.821   1.960   4.243  0.00  0.00    +0.000 A 
BRANCH  16  23
ATOM     22  N   UNL     1      46.581  -1.639   3.965  0.00  0.00    +0.000 N 
ATOM     23  C   UNL     1      47.100  -0.417   3.629  0.00  0.00    +0.000 C 
ATOM     24  O   UNL     1      47.532  -0.212   2.503  0.00  0.00    +0.000 OA
ATOM     25  H   UNL     1      46.510  -2.311   3.212  0.00  0.00    +0.000 HD
ATOM     26  H   UNL     1      45.994  -1.771   4.775  0.00  0.00    +0.000 HD
ENDBRANCH  16  23
ENDBRANCH  15  19
ENDBRANCH   1  15
TORSDOF 5
ENDMDL
MODEL 5
REMARK VINA RESULT:    -6.385      4.514      8.445
REMARK INTER + INTRA:          -9.140
REMARK INTER:                  -8.558
REMARK INTRA:                  -0.582
REMARK UNBOUND:                -0.889
REMARK  Name = 
REMARK  5 active torsions:
REMARK  status: ('A' for Active; 'I' for Inactive)
REMARK    1  A    between atoms: C_2  and  C_4
REMARK    2  A    between atoms: C_7  and  C_8
REMARK    3  A    between atoms: C_8  and  O_9
REMARK    4  A    between atoms: O_9  and  C_10
REMARK    5  A    between atoms: C_14  and  C_15
REMARK                            x       y       z     vdW  Elec       q    Type
REMARK                         _______ _______ _______ _____ _____    ______ ____
ROOT
ATOM      1  O   UNL     1      47.980   5.197  14.076  0.00  0.00    +0.000 OA
ENDROOT
BRANCH   1   2
ATOM      2  C   UNL     1      47.222   6.152  13.460  0.00  0.00    +0.000 A 
ATOM      3  C   UNL     1      47.403   7.529  13.532  0.00  0.00    +0.000 A 
ATOM      4  C   UNL     1      46.536   8.381  12.839  0.00  0.00    +0.000 A 
ATOM      5  C   UNL     1      45.530   7.863  12.020  0.00  0.00    +0.000 A 
ATOM      6  C   UNL     1      45.391   6.482  11.869  0.00  0.00    +0.000 A 
ATOM      7  C   UNL     1      46.199   5.643  12.661  0.00  0.00    +0.000 A 
BRANCH   6   8
ATOM      8  C   UNL     1      44.593   5.817  10.756  0.00  0.00    +0.000 C 
ATOM      9  C   UNL     1      43.096   5.975  11.097  0.00  0.00    +0.000 C 
ATOM     10  C   UNL     1      42.612   4.893  12.057  0.00  0.00    +0.000 C 
ATOM     11  N   UNL     1      42.806   3.565  11.471  0.00  0.00    +0.000 NA
ATOM     12  C   UNL     1      44.224   3.299  11.247  0.00  0.00    +0.000 C 
ATOM     13  C   UNL     1      44.910   4.359  10.379  0.00  0.00    +0.000 C 
ATOM     14  H   UNL     1      42.307   3.523  10.582  0.00  0.00    +0.000 HD
ENDBRANCH   6   8
ENDBRANCH   1   2
BRANCH   1  15
ATOM     15  C   UNL     1      47.279   4.209  14.828  0.00  0.00    +0.000 C 
BRANCH  15  19
ATOM     16  C   UNL     1      48.696   4.284  18.922  0.00  0.00    +0.000 A 
ATOM     17  C   UNL     1      48.138   3.110  18.403  0.00  0.00    +0.000 A 
ATOM     18  C   UNL     1      47.677   3.077  17.081  0.00  0.00    +0.000 A 
ATOM     19  C   UNL     1      47.751   4.218  16.267  0.00  0.00    +0.000 A 
ATOM     20  C   UNL     1      48.321   5.385  16.793  0.00  0.00    +0.000 A 
ATOM     21  C   UNL     1      48.780   5.421  18.113  0.00  0.00    +0.000 A 
BRANCH  16  23
ATOM     22  N   UNL     1      50.521   4.633  20.505  0.00  0.00    +0.000 N 
ATOM     23  C   UNL     1      49.187   4.383  20.318  0.00  0.00    +0.000 C 
ATOM     24  O   UNL     1      48.431   4.289  21.275  0.00  0.00    +0.000 OA
ATOM     25  H   UNL     1      50.808   4.810  21.459  0.00  0.00    +0.000 HD
ATOM     26  H   UNL     1      51.116   4.968  19.762  0.00  0.00    +0.000 HD
ENDBRANCH  16  23
ENDBRANCH  15  19
ENDBRANCH   1  15
TORSDOF 5
ENDMDL
MODEL 6
REMARK VINA RESULT:    -6.315      3.729      5.856
REMARK INTER + INTRA:          -9.049
REMARK INTER:                  -8.249
REMARK INTRA:                  -0.800
REMARK UNBOUND:                -0.889
REMARK  Name = 
REMARK  5 active torsions:
REMARK  status: ('A' for Active; 'I' for Inactive)
REMARK    1  A    between atoms: C_2  and  C_4
REMARK    2  A    between atoms: C_7  and  C_8
REMARK    3  A    between atoms: C_8  and  O_9
REMARK    4  A    between atoms: O_9  and  C_10
REMARK    5  A    between atoms: C_14  and  C_15
REMARK                            x       y       z     vdW  Elec       q    Type
REMARK                         _______ _______ _______ _____ _____    ______ ____
ROOT
ATOM      1  O   UNL     1      48.851   6.524  13.636  0.00  0.00    +0.000 OA
ENDROOT
BRANCH   1   2
ATOM      2  C   UNL     1      49.066   6.944  14.919  0.00  0.00    +0.000 A 
ATOM      3  C   UNL     1      49.719   8.108  15.313  0.00  0.00    +0.000 A 
ATOM      4  C   UNL     1      49.860   8.399  16.673  0.00  0.00    +0.000 A 
ATOM      5  C   UNL     1      49.294   7.568  17.643  0.00  0.00    +0.000 A 
ATOM      6  C   UNL     1      48.560   6.444  17.261  0.00  0.00    +0.000 A 
ATOM      7  C   UNL     1      48.526   6.107  15.893  0.00  0.00    +0.000 A 
BRANCH   6   8
ATOM      8  C   UNL     1      47.614   5.683  18.179  0.00  0.00    +0.000 C 
ATOM      9  C   UNL     1      48.253   5.651  19.584  0.00  0.00    +0.000 C 
ATOM     10  C   UNL     1      49.263   4.517  19.727  0.00  0.00    +0.000 C 
ATOM     11  N   UNL     1      48.617   3.224  19.493  0.00  0.00    +0.000 NA
ATOM     12  C   UNL     1      48.105   3.139  18.128  0.00  0.00    +0.000 C 
ATOM     13  C   UNL     1      47.144   4.277  17.769  0.00  0.00    +0.000 C 
ATOM     14  H   UNL     1      47.845   3.119  20.153  0.00  0.00    +0.000 HD
ENDBRANCH   6   8
ENDBRANCH   1   2
BRANCH   1  15
ATOM     15  C   UNL     1      47.742   7.102  12.951  0.00  0.00    +0.000 C 
BRANCH  15  19
ATOM     16  C   UNL     1      45.043   4.050  11.476  0.00  0.00    +0.000 A 
ATOM     17  C   UNL     1      45.634   3.902  12.737  0.00  0.00    +0.000 A 
ATOM     18  C   UNL     1      46.508   4.884  13.221  0.00  0.00    +0.000 A 
ATOM     19  C   UNL     1      46.816   6.014  12.448  0.00  0.00    +0.000 A 
ATOM     20  C   UNL     1      46.211   6.156  11.192  0.00  0.00    +0.000 A 
ATOM     21  C   UNL     1      45.341   5.177  10.705  0.00  0.00    +0.000 A 
BRANCH  16  23
ATOM     22  N   UNL     1      44.581   2.284   9.855  0.00  0.00    +0.000 N 
ATOM     23  C   UNL     1      44.123   3.036  10.905  0.00  0.00    +0.000 C 
ATOM     24  O   UNL     1      43.009   2.841  11.371  0.00  0.00    +0.000 OA
ATOM     25  H   UNL     1      43.981   1.526   9.560  0.00  0.00    +0.000 HD
ATOM     26  H   UNL     1      45.560   2.235   9.614  0.00  0.00    +0.000 HD
ENDBRANCH  16  23
ENDBRANCH  15  19
ENDBRANCH   1  15
TORSDOF 5
ENDMDL
MODEL 7
REMARK VINA RESULT:    -5.824      3.213      4.734
REMARK INTER + INTRA:          -8.416
REMARK INTER:                  -7.783
REMARK INTRA:                  -0.632
REMARK UNBOUND:                -0.889
REMARK  Name = 
REMARK  5 active torsions:
REMARK  status: ('A' for Active; 'I' for Inactive)
REMARK    1  A    between atoms: C_2  and  C_4
REMARK    2  A    between atoms: C_7  and  C_8
REMARK    3  A    between atoms: C_8  and  O_9
REMARK    4  A    between atoms: O_9  and  C_10
REMARK    5  A    between atoms: C_14  and  C_15
REMARK                            x       y       z     vdW  Elec       q    Type
REMARK                         _______ _______ _______ _____ _____    ______ ____
ROOT
ATOM      1  O   UNL     1      46.529   3.965  15.117  0.00  0.00    +0.000 OA
ENDROOT
BRANCH   1   2
ATOM      2  C   UNL     1      47.583   3.827  15.976  0.00  0.00    +0.000 A 
ATOM      3  C   UNL     1      48.212   2.638  16.332  0.00  0.00    +0.000 A 
ATOM      4  C   UNL     1      49.284   2.662  17.230  0.00  0.00    +0.000 A 
ATOM      5  C   UNL     1      49.775   3.873  17.724  0.00  0.00    +0.000 A 
ATOM      6  C   UNL     1      49.210   5.080  17.308  0.00  0.00    +0.000 A 
ATOM      7  C   UNL     1      48.062   5.029  16.493  0.00  0.00    +0.000 A 
BRANCH   6   8
ATOM      8  C   UNL     1      49.868   6.441  17.484  0.00  0.00    +0.000 C 
ATOM      9  C   UNL     1      49.374   7.350  16.339  0.00  0.00    +0.000 C 
ATOM     10  C   UNL     1      50.184   7.152  15.061  0.00  0.00    +0.000 C 
ATOM     11  N   UNL     1      51.597   7.452  15.300  0.00  0.00    +0.000 NA
ATOM     12  C   UNL     1      52.163   6.532  16.283  0.00  0.00    +0.000 C 
ATOM     13  C   UNL     1      51.400   6.519  17.611  0.00  0.00    +0.000 C 
ATOM     14  H   UNL     1      51.675   8.409  15.645  0.00  0.00    +0.000 HD
ENDBRANCH   6   8
ENDBRANCH   1   2
BRANCH   1  15
ATOM     15  C   UNL     1      46.452   5.191  14.392  0.00  0.00    +0.000 C 
BRANCH  15  19
ATOM     16  C   UNL     1      45.436   4.490  10.239  0.00  0.00    +0.000 A 
ATOM     17  C   UNL     1      45.257   3.467  11.178  0.00  0.00    +0.000 A 
ATOM     18  C   UNL     1      45.583   3.685  12.523  0.00  0.00    +0.000 A 
ATOM     19  C   UNL     1      46.108   4.918  12.943  0.00  0.00    +0.000 A 
ATOM     20  C   UNL     1      46.272   5.937  11.996  0.00  0.00    +0.000 A 
ATOM     21  C   UNL     1      45.950   5.722  10.653  0.00  0.00    +0.000 A 
BRANCH  16  23
ATOM     22  N   UNL     1      43.959   3.665   8.479  0.00  0.00    +0.000 N 
ATOM     23  C   UNL     1      45.123   4.312   8.799  0.00  0.00    +0.000 C 
ATOM     24  O   UNL     1      45.848   4.760   7.922  0.00  0.00    +0.000 OA
ATOM     25  H   UNL     1      43.712   3.659   7.498  0.00  0.00    +0.000 HD
ATOM     26  H   UNL     1      43.223   3.514   9.153  0.00  0.00    +0.000 HD
ENDBRANCH  16  23
ENDBRANCH  15  19
ENDBRANCH   1  15
TORSDOF 5
ENDMDL
MODEL 8
REMARK VINA RESULT:    -5.742      3.441      4.755
REMARK INTER + INTRA:          -8.310
REMARK INTER:                  -7.687
REMARK INTRA:                  -0.622
REMARK UNBOUND:                -0.889
REMARK  Name = 
REMARK  5 active torsions:
REMARK  status: ('A' for Active; 'I' for Inactive)
REMARK    1  A    between atoms: C_2  and  C_4
REMARK    2  A    between atoms: C_7  and  C_8
REMARK    3  A    between atoms: C_8  and  O_9
REMARK    4  A    between atoms: O_9  and  C_10
REMARK    5  A    between atoms: C_14  and  C_15
REMARK                            x       y       z     vdW  Elec       q    Type
REMARK                         _______ _______ _______ _____ _____    ______ ____
ROOT
ATOM      1  O   UNL     1      46.614   4.291  15.414  0.00  0.00    +0.000 OA
ENDROOT
BRANCH   1   2
ATOM      2  C   UNL     1      47.704   4.007  16.189  0.00  0.00    +0.000 A 
ATOM      3  C   UNL     1      48.131   2.746  16.590  0.00  0.00    +0.000 A 
ATOM      4  C   UNL     1      49.273   2.620  17.387  0.00  0.00    +0.000 A 
ATOM      5  C   UNL     1      50.030   3.742  17.731  0.00  0.00    +0.000 A 
ATOM      6  C   UNL     1      49.664   5.005  17.263  0.00  0.00    +0.000 A 
ATOM      7  C   UNL     1      48.450   5.125  16.557  0.00  0.00    +0.000 A 
BRANCH   6   8
ATOM      8  C   UNL     1      50.580   6.220  17.265  0.00  0.00    +0.000 C 
ATOM      9  C   UNL     1      50.788   6.646  18.734  0.00  0.00    +0.000 C 
ATOM     10  C   UNL     1      49.653   7.533  19.238  0.00  0.00    +0.000 C 
ATOM     11  N   UNL     1      49.552   8.746  18.425  0.00  0.00    +0.000 NA
ATOM     12  C   UNL     1      49.222   8.416  17.041  0.00  0.00    +0.000 C 
ATOM     13  C   UNL     1      50.209   7.436  16.398  0.00  0.00    +0.000 C 
ATOM     14  H   UNL     1      50.447   9.236  18.453  0.00  0.00    +0.000 HD
ENDBRANCH   6   8
ENDBRANCH   1   2
BRANCH   1  15
ATOM     15  C   UNL     1      46.778   5.304  14.424  0.00  0.00    +0.000 C 
BRANCH  15  19
ATOM     16  C   UNL     1      45.035   3.958  10.693  0.00  0.00    +0.000 A 
ATOM     17  C   UNL     1      45.475   5.281  10.815  0.00  0.00    +0.000 A 
ATOM     18  C   UNL     1      46.040   5.725  12.018  0.00  0.00    +0.000 A 
ATOM     19  C   UNL     1      46.155   4.860  13.117  0.00  0.00    +0.000 A 
ATOM     20  C   UNL     1      45.721   3.535  12.981  0.00  0.00    +0.000 A 
ATOM     21  C   UNL     1      45.154   3.090  11.782  0.00  0.00    +0.000 A 
BRANCH  16  23
ATOM     22  N   UNL     1      43.994   4.350   8.520  0.00  0.00    +0.000 N 
ATOM     23  C   UNL     1      44.415   3.436   9.450  0.00  0.00    +0.000 C 
ATOM     24  O   UNL     1      44.317   2.236   9.234  0.00  0.00    +0.000 OA
ATOM     25  H   UNL     1      43.682   3.969   7.636  0.00  0.00    +0.000 HD
ATOM     26  H   UNL     1      44.285   5.316   8.543  0.00  0.00    +0.000 HD
ENDBRANCH  16  23
ENDBRANCH  15  19
ENDBRANCH   1  15
TORSDOF 5
ENDMDL
MODEL 9
REMARK VINA RESULT:    -5.722      4.227      8.528
REMARK INTER + INTRA:          -8.284
REMARK INTER:                  -7.596
REMARK INTRA:                  -0.688
REMARK UNBOUND:                -0.889
REMARK  Name = 
REMARK  5 active torsions:
REMARK  status: ('A' for Active; 'I' for Inactive)
REMARK    1  A    between atoms: C_2  and  C_4
REMARK    2  A    between atoms: C_7  and  C_8
REMARK    3  A    between atoms: C_8  and  O_9
REMARK    4  A    between atoms: O_9  and  C_10
REMARK    5  A    between atoms: C_14  and  C_15
REMARK                            x       y       z     vdW  Elec       q    Type
REMARK                         _______ _______ _______ _____ _____    ______ ____
ROOT
ATOM      1  O   UNL     1      49.100   6.504  13.290  0.00  0.00    +0.000 OA
ENDROOT
BRANCH   1   2
ATOM      2  C   UNL     1      47.806   6.766  12.938  0.00  0.00    +0.000 A 
ATOM      3  C   UNL     1      47.355   7.835  12.170  0.00  0.00    +0.000 A 
ATOM      4  C   UNL     1      45.990   7.966  11.895  0.00  0.00    +0.000 A 
ATOM      5  C   UNL     1      45.079   6.998  12.326  0.00  0.00    +0.000 A 
ATOM      6  C   UNL     1      45.528   5.874  13.022  0.00  0.00    +0.000 A 
ATOM      7  C   UNL     1      46.888   5.818  13.386  0.00  0.00    +0.000 A 
BRANCH   6   8
ATOM      8  C   UNL     1      44.710   4.607  13.224  0.00  0.00    +0.000 C 
ATOM      9  C   UNL     1      45.384   3.482  12.409  0.00  0.00    +0.000 C 
ATOM     10  C   UNL     1      44.952   3.498  10.946  0.00  0.00    +0.000 C 
ATOM     11  N   UNL     1      43.501   3.328  10.840  0.00  0.00    +0.000 NA
ATOM     12  C   UNL     1      42.801   4.438  11.479  0.00  0.00    +0.000 C 
ATOM     13  C   UNL     1      43.197   4.642  12.945  0.00  0.00    +0.000 C 
ATOM     14  H   UNL     1      43.239   2.453  11.295  0.00  0.00    +0.000 HD
ENDBRANCH   6   8
ENDBRANCH   1   2
BRANCH   1  15
ATOM     15  C   UNL     1      49.749   7.473  14.111  0.00  0.00    +0.000 C 
BRANCH  15  19
ATOM     16  C   UNL     1      50.316   5.909  18.112  0.00  0.00    +0.000 A 
ATOM     17  C   UNL     1      51.426   6.318  17.364  0.00  0.00    +0.000 A 
ATOM     18  C   UNL     1      51.252   6.824  16.070  0.00  0.00    +0.000 A 
ATOM     19  C   UNL     1      49.972   6.912  15.500  0.00  0.00    +0.000 A 
ATOM     20  C   UNL     1      48.867   6.510  16.262  0.00  0.00    +0.000 A 
ATOM     21  C   UNL     1      49.038   6.002  17.553  0.00  0.00    +0.000 A 
BRANCH  16  23
ATOM     22  N   UNL     1      49.749   4.202  19.761  0.00  0.00    +0.000 N 
ATOM     23  C   UNL     1      50.439   5.351  19.481  0.00  0.00    +0.000 C 
ATOM     24  O   UNL     1      51.161   5.866  20.324  0.00  0.00    +0.000 OA
ATOM     25  H   UNL     1      49.940   3.780  20.661  0.00  0.00    +0.000 HD
ATOM     26  H   UNL     1      49.360   3.617  19.038  0.00  0.00    +0.000 HD
ENDBRANCH  16  23
ENDBRANCH  15  19
ENDBRANCH   1  15
TORSDOF 5
ENDMDL
