MODEL 1
REMARK VINA RESULT:    -7.519      0.000      0.000
REMARK INTER + INTRA:          -9.705
REMARK INTER:                  -9.717
REMARK INTRA:                   0.012
REMARK UNBOUND:                 0.012
REMARK  Name = 
REMARK  5 active torsions:
REMARK  status: ('A' for Active; 'I' for Inactive)
REMARK    1  A    between atoms: C_2  and  C_3
REMARK    2  A    between atoms: C_6  and  O_7
REMARK    3  A    between atoms: O_7  and  C_8
REMARK    4  A    between atoms: C_8  and  C_9
REMARK    5  A    between atoms: C_14  and  N_15
REMARK                            x       y       z     vdW  Elec       q    Type
REMARK                         _______ _______ _______ _____ _____    ______ ____
ROOT
ATOM      1  C   UNL     1      44.992   5.768  11.548  0.00  0.00    +0.000 A 
ATOM      2  C   UNL     1      44.376   7.020  11.388  0.00  0.00    +0.000 A 
ATOM      3  C   UNL     1      45.023   8.200  11.764  0.00  0.00    +0.000 A 
ATOM      4  C   UNL     1      46.312   8.155  12.292  0.00  0.00    +0.000 A 
ATOM      5  F   UNL     1      46.873   9.313  12.676  0.00  0.00    +0.000 F 
ATOM      6  C   UNL     1      47.012   6.951  12.419  0.00  0.00    +0.000 A 
ATOM      7  C   UNL     1      46.328   5.781  12.022  0.00  0.00    +0.000 A 
ENDROOT
BRANCH   6   8
ATOM      8  N   UNL     1      48.280   6.829  12.976  0.00  0.00    +0.000 N 
ATOM      9  C   UNL     1      48.481   6.829  14.435  0.00  0.00    +0.000 C 
ATOM     10  C   UNL     1      49.146   8.123  14.924  0.00  0.00    +0.000 C 
ATOM     11  O   UNL     1      50.348   8.411  14.188  0.00  0.00    +0.000 OA
ATOM     12  C   UNL     1      50.039   8.567  12.793  0.00  0.00    +0.000 C 
ATOM     13  C   UNL     1      49.444   7.280  12.195  0.00  0.00    +0.000 C 
ENDBRANCH   6   8
BRANCH   1  14
ATOM     14  C   UNL     1      44.186   4.468  11.385  0.00  0.00    +0.000 C 
ATOM     15  C   UNL     1      44.521   3.243  12.219  0.00  0.00    +0.000 C 
ATOM     16  C   UNL     1      43.257   3.996  12.487  0.00  0.00    +0.000 C 
BRANCH  14  17
ATOM     17  O   UNL     1      43.845   4.042  10.035  0.00  0.00    +0.000 OA
BRANCH  17  21
ATOM     18  C   UNL     1      46.633   2.457   7.486  0.00  0.00    +0.000 A 
ATOM     19  C   UNL     1      46.449   3.837   7.545  0.00  0.00    +0.000 A 
ATOM     20  C   UNL     1      45.533   4.357   8.448  0.00  0.00    +0.000 A 
ATOM     21  C   UNL     1      44.839   3.474   9.267  0.00  0.00    +0.000 A 
ATOM     22  N   UNL     1      45.043   2.143   9.282  0.00  0.00    +0.000 NA
ATOM     23  C   UNL     1      45.922   1.660   8.379  0.00  0.00    +0.000 A 
BRANCH  18  25
ATOM     24  N   UNL     1      48.181   1.390   5.717  0.00  0.00    +0.000 NA
ATOM     25  C   UNL     1      47.496   1.864   6.525  0.00  0.00    +0.000 C 
ENDBRANCH  18  25
ENDBRANCH  17  21
ENDBRANCH  14  17
ENDBRANCH   1  14
TORSDOF 5
ENDMDL
MODEL 2
REMARK VINA RESULT:    -7.315      2.897      3.635
REMARK INTER + INTRA:          -9.441
REMARK INTER:                  -9.126
REMARK INTRA:                  -0.315
REMARK UNBOUND:                 0.012
REMARK  Name = 
REMARK  5 active torsions:
REMARK  status: ('A' for Active; 'I' for Inactive)
REMARK    1  A    between atoms: C_2  and  C_3
REMARK    2  A    between atoms: C_6  and  O_7
REMARK    3  A    between atoms: O_7  and  C_8
REMARK    4  A    between atoms: C_8  and  C_9
REMARK    5  A    between atoms: C_14  and  N_15
REMARK                            x       y       z     vdW  Elec       q    Type
REMARK                         _______ _______ _______ _____ _____    ______ ____
ROOT
ATOM      1  C   UNL     1      45.906   5.126  13.110  0.00  0.00    +0.000 A 
ATOM      2  C   UNL     1      46.816   6.140  12.771  0.00  0.00    +0.000 A 
ATOM      3  C   UNL     1      47.880   6.472  13.614  0.00  0.00    +0.000 A 
ATOM      4  C   UNL     1      48.068   5.780  14.809  0.00  0.00    +0.000 A 
ATOM      5  F   UNL     1      49.081   6.164  15.603  0.00  0.00    +0.000 F 
ATOM      6  C   UNL     1      47.241   4.714  15.180  0.00  0.00    +0.000 A 
ATOM      7  C   UNL     1      46.182   4.405  14.299  0.00  0.00    +0.000 A 
ENDROOT
BRANCH   6   8
ATOM      8  N   UNL     1      47.346   4.012  16.374  0.00  0.00    +0.000 N 
ATOM      9  C   UNL     1      47.078   4.657  17.671  0.00  0.00    +0.000 C 
ATOM     10  C   UNL     1      48.362   4.869  18.485  0.00  0.00    +0.000 C 
ATOM     11  O   UNL     1      49.119   3.652  18.605  0.00  0.00    +0.000 OA
ATOM     12  C   UNL     1      49.490   3.178  17.300  0.00  0.00    +0.000 C 
ATOM     13  C   UNL     1      48.255   2.856  16.440  0.00  0.00    +0.000 C 
ENDBRANCH   6   8
BRANCH   1  14
ATOM     14  C   UNL     1      44.598   4.946  12.319  0.00  0.00    +0.000 C 
ATOM     15  C   UNL     1      43.273   5.399  12.908  0.00  0.00    +0.000 C 
ATOM     16  C   UNL     1      43.867   6.151  11.760  0.00  0.00    +0.000 C 
BRANCH  14  17
ATOM     17  O   UNL     1      44.396   3.690  11.612  0.00  0.00    +0.000 OA
BRANCH  17  21
ATOM     18  C   UNL     1      45.843   3.256   7.805  0.00  0.00    +0.000 A 
ATOM     19  C   UNL     1      45.260   2.172   8.455  0.00  0.00    +0.000 A 
ATOM     20  C   UNL     1      44.733   2.350   9.727  0.00  0.00    +0.000 A 
ATOM     21  C   UNL     1      44.804   3.615  10.298  0.00  0.00    +0.000 A 
ATOM     22  N   UNL     1      45.299   4.698   9.670  0.00  0.00    +0.000 NA
ATOM     23  C   UNL     1      45.826   4.493   8.443  0.00  0.00    +0.000 A 
BRANCH  18  25
ATOM     24  N   UNL     1      46.974   2.965   5.502  0.00  0.00    +0.000 NA
ATOM     25  C   UNL     1      46.471   3.113   6.537  0.00  0.00    +0.000 C 
ENDBRANCH  18  25
ENDBRANCH  17  21
ENDBRANCH  14  17
ENDBRANCH   1  14
TORSDOF 5
ENDMDL
MODEL 3
REMARK VINA RESULT:    -7.311      3.249      7.215
REMARK INTER + INTRA:          -9.435
REMARK INTER:                  -8.623
REMARK INTRA:                  -0.812
REMARK UNBOUND:                 0.012
REMARK  Name = 
REMARK  5 active torsions:
REMARK  status: ('A' for Active; 'I' for Inactive)
REMARK    1  A    between atoms: C_2  and  C_3
REMARK    2  A    between atoms: C_6  and  O_7
REMARK    3  A    between atoms: O_7  and  C_8
REMARK    4  A    between atoms: C_8  and  C_9
REMARK    5  A    between atoms: C_14  and  N_15
REMARK                            x       y       z     vdW  Elec       q    Type
REMARK                         _______ _______ _______ _____ _____    ______ ____
ROOT
ATOM      1  C   UNL     1      45.622   5.492  12.258  0.00  0.00    +0.000 A 
ATOM      2  C   UNL     1      44.778   4.998  13.266  0.00  0.00    +0.000 A 
ATOM      3  C   UNL     1      43.854   3.983  13.006  0.00  0.00    +0.000 A 
ATOM      4  C   UNL     1      43.768   3.425  11.732  0.00  0.00    +0.000 A 
ATOM      5  F   UNL     1      42.836   2.480  11.523  0.00  0.00    +0.000 F 
ATOM      6  C   UNL     1      44.621   3.820  10.696  0.00  0.00    +0.000 A 
ATOM      7  C   UNL     1      45.545   4.844  11.000  0.00  0.00    +0.000 A 
ENDROOT
BRANCH   6   8
ATOM      8  N   UNL     1      44.560   3.337   9.394  0.00  0.00    +0.000 N 
ATOM      9  C   UNL     1      44.729   1.905   9.097  0.00  0.00    +0.000 C 
ATOM     10  C   UNL     1      46.069   1.614   8.407  0.00  0.00    +0.000 C 
ATOM     11  O   UNL     1      46.265   2.456   7.258  0.00  0.00    +0.000 OA
ATOM     12  C   UNL     1      46.259   3.837   7.658  0.00  0.00    +0.000 C 
ATOM     13  C   UNL     1      44.913   4.240   8.286  0.00  0.00    +0.000 C 
ENDBRANCH   6   8
BRANCH   1  14
ATOM     14  C   UNL     1      46.441   6.777  12.477  0.00  0.00    +0.000 C 
ATOM     15  C   UNL     1      47.838   6.709  13.070  0.00  0.00    +0.000 C 
ATOM     16  C   UNL     1      47.664   7.063  11.628  0.00  0.00    +0.000 C 
BRANCH  14  17
ATOM     17  O   UNL     1      45.753   7.939  13.020  0.00  0.00    +0.000 OA
BRANCH  17  21
ATOM     18  C   UNL     1      44.173  10.877  10.642  0.00  0.00    +0.000 A 
ATOM     19  C   UNL     1      45.276  11.152  11.448  0.00  0.00    +0.000 A 
ATOM     20  C   UNL     1      45.825  10.131  12.211  0.00  0.00    +0.000 A 
ATOM     21  C   UNL     1      45.253   8.867  12.132  0.00  0.00    +0.000 A 
ATOM     22  N   UNL     1      44.232   8.553  11.313  0.00  0.00    +0.000 NA
ATOM     23  C   UNL     1      43.700   9.569  10.598  0.00  0.00    +0.000 A 
BRANCH  18  25
ATOM     24  N   UNL     1      42.969  12.714   9.284  0.00  0.00    +0.000 NA
ATOM     25  C   UNL     1      43.519  11.901   9.903  0.00  0.00    +0.000 C 
ENDBRANCH  18  25
ENDBRANCH  17  21
ENDBRANCH  14  17
ENDBRANCH   1  14
TORSDOF 5
ENDMDL
MODEL 4
REMARK VINA RESULT:    -7.230      1.600      2.379
REMARK INTER + INTRA:          -9.331
REMARK INTER:                  -8.725
REMARK INTRA:                  -0.606
REMARK UNBOUND:                 0.012
REMARK  Name = 
REMARK  5 active torsions:
REMARK  status: ('A' for Active; 'I' for Inactive)
REMARK    1  A    between atoms: C_2  and  C_3
REMARK    2  A    between atoms: C_6  and  O_7
REMARK    3  A    between atoms: O_7  and  C_8
REMARK    4  A    between atoms: C_8  and  C_9
REMARK    5  A    between atoms: C_14  and  N_15
REMARK                            x       y       z     vdW  Elec       q    Type
REMARK                         _______ _______ _______ _____ _____    ______ ____
ROOT
ATOM      1  C   UNL     1      45.216   5.498  12.620  0.00  0.00    +0.000 A 
ATOM      2  C   UNL     1      45.791   4.719  13.637  0.00  0.00    +0.000 A 
ATOM      3  C   UNL     1      47.032   5.047  14.188  0.00  0.00    +0.000 A 
ATOM      4  C   UNL     1      47.718   6.177  13.746  0.00  0.00    +0.000 A 
ATOM      5  F   UNL     1      48.925   6.426  14.279  0.00  0.00    +0.000 F 
ATOM      6  C   UNL     1      47.176   7.036  12.784  0.00  0.00    +0.000 A 
ATOM      7  C   UNL     1      45.917   6.674  12.256  0.00  0.00    +0.000 A 
ENDROOT
BRANCH   6   8
ATOM      8  N   UNL     1      47.823   8.153  12.268  0.00  0.00    +0.000 N 
ATOM      9  C   UNL     1      49.023   8.024  11.423  0.00  0.00    +0.000 C 
ATOM     10  C   UNL     1      50.293   8.483  12.153  0.00  0.00    +0.000 C 
ATOM     11  O   UNL     1      50.135   9.798  12.712  0.00  0.00    +0.000 OA
ATOM     12  C   UNL     1      49.051   9.799  13.657  0.00  0.00    +0.000 C 
ATOM     13  C   UNL     1      47.715   9.432  12.989  0.00  0.00    +0.000 C 
ENDBRANCH   6   8
BRANCH   1  14
ATOM     14  C   UNL     1      43.991   4.991  11.838  0.00  0.00    +0.000 C 
ATOM     15  C   UNL     1      42.586   5.242  12.359  0.00  0.00    +0.000 C 
ATOM     16  C   UNL     1      43.064   5.969  11.143  0.00  0.00    +0.000 C 
BRANCH  14  17
ATOM     17  O   UNL     1      44.051   3.652  11.270  0.00  0.00    +0.000 OA
BRANCH  17  21
ATOM     18  C   UNL     1      46.017   3.032   7.730  0.00  0.00    +0.000 A 
ATOM     19  C   UNL     1      45.459   1.955   8.414  0.00  0.00    +0.000 A 
ATOM     20  C   UNL     1      44.757   2.190   9.587  0.00  0.00    +0.000 A 
ATOM     21  C   UNL     1      44.633   3.502  10.029  0.00  0.00    +0.000 A 
ATOM     22  N   UNL     1      45.101   4.570   9.357  0.00  0.00    +0.000 NA
ATOM     23  C   UNL     1      45.800   4.313   8.230  0.00  0.00    +0.000 A 
BRANCH  18  25
ATOM     24  N   UNL     1      47.439   2.686   5.603  0.00  0.00    +0.000 NA
ATOM     25  C   UNL     1      46.815   2.842   6.569  0.00  0.00    +0.000 C 
ENDBRANCH  18  25
ENDBRANCH  17  21
ENDBRANCH  14  17
ENDBRANCH   1  14
TORSDOF 5
ENDMDL
MODEL 5
REMARK VINA RESULT:    -6.994      2.688      7.972
REMARK INTER + INTRA:          -9.026
REMARK INTER:                  -8.015
REMARK INTRA:                  -1.011
REMARK UNBOUND:                 0.012
REMARK  Name = 
REMARK  5 active torsions:
REMARK  status: ('A' for Active; 'I' for Inactive)
REMARK    1  A    between atoms: C_2  and  C_3
REMARK    2  A    between atoms: C_6  and  O_7
REMARK    3  A    between atoms: O_7  and  C_8
REMARK    4  A    between atoms: C_8  and  C_9
REMARK    5  A    between atoms: C_14  and  N_15
REMARK                            x       y       z     vdW  Elec       q    Type
REMARK                         _______ _______ _______ _____ _____    ______ ____
ROOT
ATOM      1  C   UNL     1      47.704   7.444  13.159  0.00  0.00    +0.000 A 
ATOM      2  C   UNL     1      46.768   8.491  13.221  0.00  0.00    +0.000 A 
ATOM      3  C   UNL     1      45.465   8.327  12.747  0.00  0.00    +0.000 A 
ATOM      4  C   UNL     1      45.061   7.103  12.216  0.00  0.00    +0.000 A 
ATOM      5  F   UNL     1      43.810   7.009  11.737  0.00  0.00    +0.000 F 
ATOM      6  C   UNL     1      45.918   5.997  12.183  0.00  0.00    +0.000 A 
ATOM      7  C   UNL     1      47.225   6.201  12.677  0.00  0.00    +0.000 A 
ENDROOT
BRANCH   6   8
ATOM      8  N   UNL     1      45.595   4.764  11.630  0.00  0.00    +0.000 N 
ATOM      9  C   UNL     1      45.160   4.640  10.228  0.00  0.00    +0.000 C 
ATOM     10  C   UNL     1      43.667   4.305  10.116  0.00  0.00    +0.000 C 
ATOM     11  O   UNL     1      43.320   3.163  10.917  0.00  0.00    +0.000 OA
ATOM     12  C   UNL     1      43.615   3.429  12.299  0.00  0.00    +0.000 C 
ATOM     13  C   UNL     1      45.115   3.692  12.518  0.00  0.00    +0.000 C 
ENDBRANCH   6   8
BRANCH   1  14
ATOM     14  C   UNL     1      49.196   7.706  13.432  0.00  0.00    +0.000 C 
ATOM     15  C   UNL     1      50.166   7.909  12.280  0.00  0.00    +0.000 C 
ATOM     16  C   UNL     1      49.800   9.068  13.151  0.00  0.00    +0.000 C 
BRANCH  14  17
ATOM     17  O   UNL     1      49.848   6.917  14.466  0.00  0.00    +0.000 OA
BRANCH  17  21
ATOM     18  C   UNL     1      48.135   6.458  18.159  0.00  0.00    +0.000 A 
ATOM     19  C   UNL     1      48.529   7.722  17.727  0.00  0.00    +0.000 A 
ATOM     20  C   UNL     1      49.064   7.864  16.454  0.00  0.00    +0.000 A 
ATOM     21  C   UNL     1      49.179   6.732  15.656  0.00  0.00    +0.000 A 
ATOM     22  N   UNL     1      48.745   5.510  16.018  0.00  0.00    +0.000 NA
ATOM     23  C   UNL     1      48.250   5.393  17.269  0.00  0.00    +0.000 A 
BRANCH  18  25
ATOM     24  N   UNL     1      47.282   6.089  20.568  0.00  0.00    +0.000 NA
ATOM     25  C   UNL     1      47.657   6.239  19.480  0.00  0.00    +0.000 C 
ENDBRANCH  18  25
ENDBRANCH  17  21
ENDBRANCH  14  17
ENDBRANCH   1  14
TORSDOF 5
ENDMDL
MODEL 6
REMARK VINA RESULT:    -6.580      3.481      5.868
REMARK INTER + INTRA:          -8.491
REMARK INTER:                  -7.681
REMARK INTRA:                  -0.809
REMARK UNBOUND:                 0.012
REMARK  Name = 
REMARK  5 active torsions:
REMARK  status: ('A' for Active; 'I' for Inactive)
REMARK    1  A    between atoms: C_2  and  C_3
REMARK    2  A    between atoms: C_6  and  O_7
REMARK    3  A    between atoms: O_7  and  C_8
REMARK    4  A    between atoms: C_8  and  C_9
REMARK    5  A    between atoms: C_14  and  N_15
REMARK                            x       y       z     vdW  Elec       q    Type
REMARK                         _______ _______ _______ _____ _____    ______ ____
ROOT
ATOM      1  C   UNL     1      48.524   7.620  15.041  0.00  0.00    +0.000 A 
ATOM      2  C   UNL     1      48.408   8.826  15.753  0.00  0.00    +0.000 A 
ATOM      3  C   UNL     1      48.403   8.847  17.150  0.00  0.00    +0.000 A 
ATOM      4  C   UNL     1      48.532   7.660  17.868  0.00  0.00    +0.000 A 
ATOM      5  F   UNL     1      48.480   7.729  19.209  0.00  0.00    +0.000 F 
ATOM      6  C   UNL     1      48.718   6.430  17.228  0.00  0.00    +0.000 A 
ATOM      7  C   UNL     1      48.725   6.451  15.816  0.00  0.00    +0.000 A 
ENDROOT
BRANCH   6   8
ATOM      8  N   UNL     1      48.811   5.206  17.880  0.00  0.00    +0.000 N 
ATOM      9  C   UNL     1      50.107   4.668  18.325  0.00  0.00    +0.000 C 
ATOM     10  C   UNL     1      50.554   3.468  17.478  0.00  0.00    +0.000 C 
ATOM     11  O   UNL     1      49.526   2.467  17.397  0.00  0.00    +0.000 OA
ATOM     12  C   UNL     1      48.348   3.026  16.792  0.00  0.00    +0.000 C 
ATOM     13  C   UNL     1      47.778   4.187  17.626  0.00  0.00    +0.000 C 
ENDBRANCH   6   8
BRANCH   1  14
ATOM     14  C   UNL     1      48.264   7.574  13.526  0.00  0.00    +0.000 C 
ATOM     15  C   UNL     1      49.164   8.333  12.566  0.00  0.00    +0.000 C 
ATOM     16  C   UNL     1      49.219   6.839  12.605  0.00  0.00    +0.000 C 
BRANCH  14  17
ATOM     17  O   UNL     1      46.887   7.680  13.066  0.00  0.00    +0.000 OA
BRANCH  17  21
ATOM     18  C   UNL     1      44.650   4.409  12.029  0.00  0.00    +0.000 A 
ATOM     19  C   UNL     1      44.921   5.394  11.083  0.00  0.00    +0.000 A 
ATOM     20  C   UNL     1      45.720   6.471  11.441  0.00  0.00    +0.000 A 
ATOM     21  C   UNL     1      46.225   6.517  12.735  0.00  0.00    +0.000 A 
ATOM     22  N   UNL     1      46.037   5.549  13.651  0.00  0.00    +0.000 NA
ATOM     23  C   UNL     1      45.238   4.523  13.286  0.00  0.00    +0.000 A 
BRANCH  18  25
ATOM     24  N   UNL     1      43.032   2.465  11.509  0.00  0.00    +0.000 NA
ATOM     25  C   UNL     1      43.772   3.326  11.744  0.00  0.00    +0.000 C 
ENDBRANCH  18  25
ENDBRANCH  17  21
ENDBRANCH  14  17
ENDBRANCH   1  14
TORSDOF 5
ENDMDL
MODEL 7
REMARK VINA RESULT:    -6.478      4.801      8.161
REMARK INTER + INTRA:          -8.359
REMARK INTER:                  -8.172
REMARK INTRA:                  -0.187
REMARK UNBOUND:                 0.012
REMARK  Name = 
REMARK  5 active torsions:
REMARK  status: ('A' for Active; 'I' for Inactive)
REMARK    1  A    between atoms: C_2  and  C_3
REMARK    2  A    between atoms: C_6  and  O_7
REMARK    3  A    between atoms: O_7  and  C_8
REMARK    4  A    between atoms: C_8  and  C_9
REMARK    5  A    between atoms: C_14  and  N_15
REMARK                            x       y       z     vdW  Elec       q    Type
REMARK                         _______ _______ _______ _____ _____    ______ ____
ROOT
ATOM      1  C   UNL     1      44.713   9.489  11.367  0.00  0.00    +0.000 A 
ATOM      2  C   UNL     1      45.703   9.609  12.358  0.00  0.00    +0.000 A 
ATOM      3  C   UNL     1      46.128   8.502  13.095  0.00  0.00    +0.000 A 
ATOM      4  C   UNL     1      45.586   7.242  12.845  0.00  0.00    +0.000 A 
ATOM      5  F   UNL     1      46.000   6.218  13.609  0.00  0.00    +0.000 F 
ATOM      6  C   UNL     1      44.646   7.036  11.829  0.00  0.00    +0.000 A 
ATOM      7  C   UNL     1      44.246   8.178  11.102  0.00  0.00    +0.000 A 
ENDROOT
BRANCH   6   8
ATOM      8  N   UNL     1      44.034   5.818  11.555  0.00  0.00    +0.000 N 
ATOM      9  C   UNL     1      42.876   5.348  12.333  0.00  0.00    +0.000 C 
ATOM     10  C   UNL     1      43.237   4.173  13.252  0.00  0.00    +0.000 C 
ATOM     11  O   UNL     1      43.896   3.119  12.528  0.00  0.00    +0.000 OA
ATOM     12  C   UNL     1      45.110   3.617  11.941  0.00  0.00    +0.000 C 
ATOM     13  C   UNL     1      44.832   4.748  10.934  0.00  0.00    +0.000 C 
ENDBRANCH   6   8
BRANCH   1  14
ATOM     14  C   UNL     1      44.063  10.739  10.750  0.00  0.00    +0.000 C 
ATOM     15  C   UNL     1      44.824  11.587   9.745  0.00  0.00    +0.000 C 
ATOM     16  C   UNL     1      43.669  10.757   9.286  0.00  0.00    +0.000 C 
BRANCH  14  17
ATOM     17  O   UNL     1      43.302  11.616  11.628  0.00  0.00    +0.000 OA
BRANCH  17  21
ATOM     18  C   UNL     1      39.284  10.882  11.936  0.00  0.00    +0.000 A 
ATOM     19  C   UNL     1      40.044  10.205  10.986  0.00  0.00    +0.000 A 
ATOM     20  C   UNL     1      41.411  10.433  10.928  0.00  0.00    +0.000 A 
ATOM     21  C   UNL     1      41.970  11.328  11.833  0.00  0.00    +0.000 A 
ATOM     22  N   UNL     1      41.275  11.945  12.807  0.00  0.00    +0.000 NA
ATOM     23  C   UNL     1      39.943  11.724  12.827  0.00  0.00    +0.000 A 
BRANCH  18  25
ATOM     24  N   UNL     1      36.714  10.660  12.058  0.00  0.00    +0.000 NA
ATOM     25  C   UNL     1      37.869  10.750  11.988  0.00  0.00    +0.000 C 
ENDBRANCH  18  25
ENDBRANCH  17  21
ENDBRANCH  14  17
ENDBRANCH   1  14
TORSDOF 5
ENDMDL
MODEL 8
REMARK VINA RESULT:    -6.067      4.063      8.205
REMARK INTER + INTRA:          -7.828
REMARK INTER:                  -7.566
REMARK INTRA:                  -0.261
REMARK UNBOUND:                 0.012
REMARK  Name = 
REMARK  5 active torsions:
REMARK  status: ('A' for Active; 'I' for Inactive)
REMARK    1  A    between atoms: C_2  and  C_3
REMARK    2  A    between atoms: C_6  and  O_7
REMARK    3  A    between atoms: O_7  and  C_8
REMARK    4  A    between atoms: C_8  and  C_9
REMARK    5  A    between atoms: C_14  and  N_15
REMARK                            x       y       z     vdW  Elec       q    Type
REMARK                         _______ _______ _______ _____ _____    ______ ____
ROOT
ATOM      1  C   UNL     1      47.438   5.101  15.303  0.00  0.00    +0.000 A 
ATOM      2  C   UNL     1      48.163   6.133  14.685  0.00  0.00    +0.000 A 
ATOM      3  C   UNL     1      47.820   6.601  13.415  0.00  0.00    +0.000 A 
ATOM      4  C   UNL     1      46.727   6.059  12.740  0.00  0.00    +0.000 A 
ATOM      5  F   UNL     1      46.463   6.515  11.505  0.00  0.00    +0.000 F 
ATOM      6  C   UNL     1      45.919   5.075  13.321  0.00  0.00    +0.000 A 
ATOM      7  C   UNL     1      46.295   4.633  14.609  0.00  0.00    +0.000 A 
ENDROOT
BRANCH   6   8
ATOM      8  N   UNL     1      44.844   4.462  12.690  0.00  0.00    +0.000 N 
ATOM      9  C   UNL     1      45.036   3.585  11.522  0.00  0.00    +0.000 C 
ATOM     10  C   UNL     1      44.536   4.236  10.225  0.00  0.00    +0.000 C 
ATOM     11  O   UNL     1      43.186   4.710  10.358  0.00  0.00    +0.000 OA
ATOM     12  C   UNL     1      43.115   5.692  11.406  0.00  0.00    +0.000 C 
ATOM     13  C   UNL     1      43.518   5.098  12.768  0.00  0.00    +0.000 C 
ENDBRANCH   6   8
BRANCH   1  14
ATOM     14  C   UNL     1      47.974   4.413  16.571  0.00  0.00    +0.000 C 
ATOM     15  C   UNL     1      47.143   3.362  17.288  0.00  0.00    +0.000 C 
ATOM     16  C   UNL     1      48.372   2.950  16.541  0.00  0.00    +0.000 C 
BRANCH  14  17
ATOM     17  O   UNL     1      48.648   5.239  17.562  0.00  0.00    +0.000 OA
BRANCH  17  21
ATOM     18  C   UNL     1      52.698   4.647  17.738  0.00  0.00    +0.000 A 
ATOM     19  C   UNL     1      52.177   5.662  16.939  0.00  0.00    +0.000 A 
ATOM     20  C   UNL     1      50.807   5.877  16.929  0.00  0.00    +0.000 A 
ATOM     21  C   UNL     1      50.006   5.070  17.728  0.00  0.00    +0.000 A 
ATOM     22  N   UNL     1      50.483   4.127  18.562  0.00  0.00    +0.000 NA
ATOM     23  C   UNL     1      51.818   3.922  18.537  0.00  0.00    +0.000 A 
BRANCH  18  25
ATOM     24  N   UNL     1      55.221   4.100  17.708  0.00  0.00    +0.000 NA
ATOM     25  C   UNL     1      54.084   4.329  17.726  0.00  0.00    +0.000 C 
ENDBRANCH  18  25
ENDBRANCH  17  21
ENDBRANCH  14  17
ENDBRANCH   1  14
TORSDOF 5
ENDMDL
MODEL 9
REMARK VINA RESULT:    -5.834      3.899      6.024
REMARK INTER + INTRA:          -7.527
REMARK INTER:                  -6.635
REMARK INTRA:                  -0.892
REMARK UNBOUND:                 0.012
REMARK  Name = 
REMARK  5 active torsions:
REMARK  status: ('A' for Active; 'I' for Inactive)
REMARK    1  A    between atoms: C_2  and  C_3
REMARK    2  A    between atoms: C_6  and  O_7
REMARK    3  A    between atoms: O_7  and  C_8
REMARK    4  A    between atoms: C_8  and  C_9
REMARK    5  A    between atoms: C_14  and  N_15
REMARK                            x       y       z     vdW  Elec       q    Type
REMARK                         _______ _______ _______ _____ _____    ______ ____
ROOT
ATOM      1  C   UNL     1      49.678   8.363  12.396  0.00  0.00    +0.000 A 
ATOM      2  C   UNL     1      49.175   9.654  12.163  0.00  0.00    +0.000 A 
ATOM      3  C   UNL     1      49.837  10.549  11.319  0.00  0.00    +0.000 A 
ATOM      4  C   UNL     1      51.011  10.165  10.672  0.00  0.00    +0.000 A 
ATOM      5  F   UNL     1      51.631  11.075   9.904  0.00  0.00    +0.000 F 
ATOM      6  C   UNL     1      51.534   8.874  10.805  0.00  0.00    +0.000 A 
ATOM      7  C   UNL     1      50.833   7.997  11.661  0.00  0.00    +0.000 A 
ENDROOT
BRANCH   6   8
ATOM      8  N   UNL     1      52.720   8.439  10.225  0.00  0.00    +0.000 N 
ATOM      9  C   UNL     1      52.739   7.337   9.249  0.00  0.00    +0.000 C 
ATOM     10  C   UNL     1      53.363   6.062   9.832  0.00  0.00    +0.000 C 
ATOM     11  O   UNL     1      54.652   6.323  10.413  0.00  0.00    +0.000 OA
ATOM     12  C   UNL     1      54.522   7.282  11.476  0.00  0.00    +0.000 C 
ATOM     13  C   UNL     1      53.981   8.628  10.962  0.00  0.00    +0.000 C 
ENDBRANCH   6   8
BRANCH   1  14
ATOM     14  C   UNL     1      49.099   7.485  13.519  0.00  0.00    +0.000 C 
ATOM     15  C   UNL     1      49.720   7.500  14.906  0.00  0.00    +0.000 C 
ATOM     16  C   UNL     1      48.375   8.117  14.692  0.00  0.00    +0.000 C 
BRANCH  14  17
ATOM     17  O   UNL     1      48.714   6.121  13.188  0.00  0.00    +0.000 OA
BRANCH  17  21
ATOM     18  C   UNL     1      44.755   5.749  12.205  0.00  0.00    +0.000 A 
ATOM     19  C   UNL     1      45.610   6.481  11.384  0.00  0.00    +0.000 A 
ATOM     20  C   UNL     1      46.956   6.557  11.710  0.00  0.00    +0.000 A 
ATOM     21  C   UNL     1      47.400   5.887  12.844  0.00  0.00    +0.000 A 
ATOM     22  N   UNL     1      46.614   5.116  13.618  0.00  0.00    +0.000 NA
ATOM     23  C   UNL     1      45.303   5.077  13.294  0.00  0.00    +0.000 A 
BRANCH  18  25
ATOM     24  N   UNL     1      42.209   5.639  11.788  0.00  0.00    +0.000 NA
ATOM     25  C   UNL     1      43.354   5.704  11.967  0.00  0.00    +0.000 C 
ENDBRANCH  18  25
ENDBRANCH  17  21
ENDBRANCH  14  17
ENDBRANCH   1  14
TORSDOF 5
ENDMDL
