MODEL 1
REMARK VINA RESULT:    -8.535      0.000      0.000
REMARK INTER + INTRA:         -13.576
REMARK INTER:                 -12.527
REMARK INTRA:                  -1.049
REMARK UNBOUND:                -1.049
REMARK  Name = 
REMARK  9 active torsions:
REMARK  status: ('A' for Active; 'I' for Inactive)
REMARK    1  A    between atoms: C_1  and  N_2
REMARK    2  A    between atoms: C_4  and  C_5
REMARK    3  A    between atoms: C_5  and  O_7
REMARK    4  A    between atoms: O_7  and  C_8
REMARK    5  A    between atoms: C_8  and  C_9
REMARK    6  A    between atoms: C_12  and  C_13
REMARK    7  A    between atoms: C_13  and  C_14
REMARK    8  A    between atoms: C_14  and  O_15
REMARK    9  A    between atoms: O_15  and  C_16
REMARK                            x       y       z     vdW  Elec       q    Type
REMARK                         _______ _______ _______ _____ _____    ______ ____
ROOT
ATOM      1  C   UNL     1      47.309   4.703  14.698  0.00  0.00    +0.000 C 
ENDROOT
BRANCH   1   2
ATOM      2  C   UNL     1      46.470   4.705  13.448  0.00  0.00    +0.000 A 
ATOM      3  C   UNL     1      46.239   5.899  12.762  0.00  0.00    +0.000 A 
ATOM      4  C   UNL     1      45.435   5.918  11.622  0.00  0.00    +0.000 A 
ATOM      5  C   UNL     1      44.843   4.743  11.136  0.00  0.00    +0.000 A 
ATOM      6  C   UNL     1      45.076   3.547  11.830  0.00  0.00    +0.000 A 
ATOM      7  C   UNL     1      45.880   3.528  12.974  0.00  0.00    +0.000 A 
BRANCH   5   8
ATOM      8  C   UNL     1      43.960   4.712   9.905  0.00  0.00    +0.000 C 
BRANCH   8   9
ATOM      9  C   UNL     1      44.400   3.718   8.830  0.00  0.00    +0.000 C 
BRANCH   9  10
ATOM     10  O   UNL     1      45.556   4.199   8.143  0.00  0.00    +0.000 OA
BRANCH  10  11
ATOM     11  C   UNL     1      46.203   3.243   7.400  0.00  0.00    +0.000 A 
ATOM     12  C   UNL     1      46.697   3.430   6.105  0.00  0.00    +0.000 A 
ATOM     13  C   UNL     1      47.352   2.391   5.441  0.00  0.00    +0.000 A 
ATOM     14  C   UNL     1      47.521   1.160   6.070  0.00  0.00    +0.000 A 
ATOM     15  C   UNL     1      47.042   0.971   7.365  0.00  0.00    +0.000 A 
ATOM     16  C   UNL     1      46.390   2.013   8.030  0.00  0.00    +0.000 A 
ENDBRANCH  10  11
ENDBRANCH   9  10
ENDBRANCH   8   9
ENDBRANCH   5   8
ENDBRANCH   1   2
BRANCH   1  17
ATOM     17  O   UNL     1      47.449   3.369  15.201  0.00  0.00    +0.000 OA
BRANCH  17  18
ATOM     18  C   UNL     1      47.543   3.283  16.562  0.00  0.00    +0.000 C 
ATOM     19  O   UNL     1      46.578   3.330  17.310  0.00  0.00    +0.000 OA
BRANCH  18  23
ATOM     20  C   UNL     1      52.035   1.304  17.415  0.00  0.00    +0.000 C 
ATOM     21  N   UNL     1      50.938   2.244  17.386  0.00  0.00    +0.000 N 
ATOM     22  C   UNL     1      49.688   2.003  16.892  0.00  0.00    +0.000 A 
ATOM     23  C   UNL     1      48.926   3.161  17.019  0.00  0.00    +0.000 A 
ATOM     24  C   UNL     1      49.772   4.142  17.650  0.00  0.00    +0.000 A 
ATOM     25  C   UNL     1      49.731   5.464  18.096  0.00  0.00    +0.000 A 
ATOM     26 CL   UNL     1      48.330   6.409  17.989  0.00  0.00    +0.000 Cl
ATOM     27  N   UNL     1      50.793   6.069  18.655  0.00  0.00    +0.000 NA
ATOM     28  C   UNL     1      51.913   5.347  18.772  0.00  0.00    +0.000 A 
ATOM     29  N   UNL     1      52.107   4.076  18.399  0.00  0.00    +0.000 NA
ATOM     30  C   UNL     1      51.009   3.528  17.849  0.00  0.00    +0.000 A 
ENDBRANCH  18  23
ENDBRANCH  17  18
ENDBRANCH   1  17
TORSDOF 8
ENDMDL
MODEL 2
REMARK VINA RESULT:    -8.095      2.524      3.538
REMARK INTER + INTRA:         -12.930
REMARK INTER:                 -11.207
REMARK INTRA:                  -1.723
REMARK UNBOUND:                -1.049
REMARK  Name = 
REMARK  9 active torsions:
REMARK  status: ('A' for Active; 'I' for Inactive)
REMARK    1  A    between atoms: C_1  and  N_2
REMARK    2  A    between atoms: C_4  and  C_5
REMARK    3  A    between atoms: C_5  and  O_7
REMARK    4  A    between atoms: O_7  and  C_8
REMARK    5  A    between atoms: C_8  and  C_9
REMARK    6  A    between atoms: C_12  and  C_13
REMARK    7  A    between atoms: C_13  and  C_14
REMARK    8  A    between atoms: C_14  and  O_15
REMARK    9  A    between atoms: O_15  and  C_16
REMARK                            x       y       z     vdW  Elec       q    Type
REMARK                         _______ _______ _______ _____ _____    ______ ____
ROOT
ATOM      1  C   UNL     1      47.356   8.362  12.998  0.00  0.00    +0.000 C 
ENDROOT
BRANCH   1   2
ATOM      2  C   UNL     1      46.424   7.341  12.403  0.00  0.00    +0.000 A 
ATOM      3  C   UNL     1      46.833   6.570  11.313  0.00  0.00    +0.000 A 
ATOM      4  C   UNL     1      45.966   5.645  10.732  0.00  0.00    +0.000 A 
ATOM      5  C   UNL     1      44.665   5.465  11.228  0.00  0.00    +0.000 A 
ATOM      6  C   UNL     1      44.258   6.243  12.320  0.00  0.00    +0.000 A 
ATOM      7  C   UNL     1      45.128   7.172  12.902  0.00  0.00    +0.000 A 
BRANCH   5   8
ATOM      8  C   UNL     1      43.685   4.476  10.631  0.00  0.00    +0.000 C 
BRANCH   8   9
ATOM      9  C   UNL     1      44.232   3.058  10.462  0.00  0.00    +0.000 C 
BRANCH   9  10
ATOM     10  O   UNL     1      44.027   2.596   9.127  0.00  0.00    +0.000 OA
BRANCH  10  11
ATOM     11  C   UNL     1      45.181   2.489   8.390  0.00  0.00    +0.000 A 
ATOM     12  C   UNL     1      45.980   1.344   8.310  0.00  0.00    +0.000 A 
ATOM     13  C   UNL     1      47.131   1.339   7.519  0.00  0.00    +0.000 A 
ATOM     14  C   UNL     1      47.486   2.476   6.799  0.00  0.00    +0.000 A 
ATOM     15  C   UNL     1      46.687   3.616   6.864  0.00  0.00    +0.000 A 
ATOM     16  C   UNL     1      45.534   3.620   7.652  0.00  0.00    +0.000 A 
ENDBRANCH  10  11
ENDBRANCH   9  10
ENDBRANCH   8   9
ENDBRANCH   5   8
ENDBRANCH   1   2
BRANCH   1  17
ATOM     17  O   UNL     1      47.700   8.000  14.340  0.00  0.00    +0.000 OA
BRANCH  17  18
ATOM     18  C   UNL     1      48.801   7.195  14.446  0.00  0.00    +0.000 C 
ATOM     19  O   UNL     1      49.606   7.028  13.543  0.00  0.00    +0.000 OA
BRANCH  18  23
ATOM     20  C   UNL     1      50.041   6.356  19.198  0.00  0.00    +0.000 C 
ATOM     21  N   UNL     1      49.457   6.187  17.887  0.00  0.00    +0.000 N 
ATOM     22  C   UNL     1      49.628   7.023  16.821  0.00  0.00    +0.000 A 
ATOM     23  C   UNL     1      48.885   6.536  15.748  0.00  0.00    +0.000 A 
ATOM     24  C   UNL     1      48.255   5.322  16.203  0.00  0.00    +0.000 A 
ATOM     25  C   UNL     1      47.413   4.313  15.735  0.00  0.00    +0.000 A 
ATOM     26 CL   UNL     1      46.841   4.282  14.141  0.00  0.00    +0.000 Cl
ATOM     27  N   UNL     1      47.013   3.291  16.511  0.00  0.00    +0.000 NA
ATOM     28  C   UNL     1      47.459   3.273  17.772  0.00  0.00    +0.000 A 
ATOM     29  N   UNL     1      48.270   4.159  18.362  0.00  0.00    +0.000 NA
ATOM     30  C   UNL     1      48.634   5.155  17.535  0.00  0.00    +0.000 A 
ENDBRANCH  18  23
ENDBRANCH  17  18
ENDBRANCH   1  17
TORSDOF 8
ENDMDL
MODEL 3
REMARK VINA RESULT:    -7.927      1.303      2.365
REMARK INTER + INTRA:         -12.684
REMARK INTER:                 -11.898
REMARK INTRA:                  -0.786
REMARK UNBOUND:                -1.049
REMARK  Name = 
REMARK  9 active torsions:
REMARK  status: ('A' for Active; 'I' for Inactive)
REMARK    1  A    between atoms: C_1  and  N_2
REMARK    2  A    between atoms: C_4  and  C_5
REMARK    3  A    between atoms: C_5  and  O_7
REMARK    4  A    between atoms: O_7  and  C_8
REMARK    5  A    between atoms: C_8  and  C_9
REMARK    6  A    between atoms: C_12  and  C_13
REMARK    7  A    between atoms: C_13  and  C_14
REMARK    8  A    between atoms: C_14  and  O_15
REMARK    9  A    between atoms: O_15  and  C_16
REMARK                            x       y       z     vdW  Elec       q    Type
REMARK                         _______ _______ _______ _____ _____    ______ ____
ROOT
ATOM      1  C   UNL     1      47.374   5.120  14.767  0.00  0.00    +0.000 C 
ENDROOT
BRANCH   1   2
ATOM      2  C   UNL     1      46.524   4.955  13.535  0.00  0.00    +0.000 A 
ATOM      3  C   UNL     1      46.498   5.956  12.562  0.00  0.00    +0.000 A 
ATOM      4  C   UNL     1      45.688   5.828  11.434  0.00  0.00    +0.000 A 
ATOM      5  C   UNL     1      44.884   4.693  11.247  0.00  0.00    +0.000 A 
ATOM      6  C   UNL     1      44.911   3.692  12.228  0.00  0.00    +0.000 A 
ATOM      7  C   UNL     1      45.722   3.821  13.360  0.00  0.00    +0.000 A 
BRANCH   5   8
ATOM      8  C   UNL     1      43.985   4.508  10.041  0.00  0.00    +0.000 C 
BRANCH   8   9
ATOM      9  C   UNL     1      44.711   4.086   8.764  0.00  0.00    +0.000 C 
BRANCH   9  10
ATOM     10  O   UNL     1      45.370   2.833   8.951  0.00  0.00    +0.000 OA
BRANCH  10  11
ATOM     11  C   UNL     1      46.098   2.416   7.864  0.00  0.00    +0.000 A 
ATOM     12  C   UNL     1      46.667   1.147   7.717  0.00  0.00    +0.000 A 
ATOM     13  C   UNL     1      47.381   0.822   6.561  0.00  0.00    +0.000 A 
ATOM     14  C   UNL     1      47.524   1.761   5.544  0.00  0.00    +0.000 A 
ATOM     15  C   UNL     1      46.948   3.023   5.679  0.00  0.00    +0.000 A 
ATOM     16  C   UNL     1      46.231   3.347   6.833  0.00  0.00    +0.000 A 
ENDBRANCH  10  11
ENDBRANCH   9  10
ENDBRANCH   8   9
ENDBRANCH   5   8
ENDBRANCH   1   2
BRANCH   1  17
ATOM     17  O   UNL     1      47.662   3.844  15.348  0.00  0.00    +0.000 OA
BRANCH  17  18
ATOM     18  C   UNL     1      47.455   3.775  16.698  0.00  0.00    +0.000 C 
ATOM     19  O   UNL     1      46.531   3.160  17.210  0.00  0.00    +0.000 OA
BRANCH  18  23
ATOM     20  C   UNL     1      49.461   7.471  19.369  0.00  0.00    +0.000 C 
ATOM     21  N   UNL     1      49.315   6.224  18.655  0.00  0.00    +0.000 N 
ATOM     22  C   UNL     1      48.199   5.810  17.985  0.00  0.00    +0.000 A 
ATOM     23  C   UNL     1      48.441   4.547  17.452  0.00  0.00    +0.000 A 
ATOM     24  C   UNL     1      49.794   4.202  17.810  0.00  0.00    +0.000 A 
ATOM     25  C   UNL     1      50.715   3.167  17.644  0.00  0.00    +0.000 A 
ATOM     26 CL   UNL     1      50.357   1.776  16.747  0.00  0.00    +0.000 Cl
ATOM     27  N   UNL     1      51.952   3.212  18.170  0.00  0.00    +0.000 NA
ATOM     28  C   UNL     1      52.276   4.304  18.871  0.00  0.00    +0.000 A 
ATOM     29  N   UNL     1      51.510   5.375  19.112  0.00  0.00    +0.000 NA
ATOM     30  C   UNL     1      50.289   5.270  18.560  0.00  0.00    +0.000 A 
ENDBRANCH  18  23
ENDBRANCH  17  18
ENDBRANCH   1  17
TORSDOF 8
ENDMDL
MODEL 4
REMARK VINA RESULT:    -7.535      2.618      3.656
REMARK INTER + INTRA:         -12.107
REMARK INTER:                 -10.795
REMARK INTRA:                  -1.313
REMARK UNBOUND:                -1.049
REMARK  Name = 
REMARK  9 active torsions:
REMARK  status: ('A' for Active; 'I' for Inactive)
REMARK    1  A    between atoms: C_1  and  N_2
REMARK    2  A    between atoms: C_4  and  C_5
REMARK    3  A    between atoms: C_5  and  O_7
REMARK    4  A    between atoms: O_7  and  C_8
REMARK    5  A    between atoms: C_8  and  C_9
REMARK    6  A    between atoms: C_12  and  C_13
REMARK    7  A    between atoms: C_13  and  C_14
REMARK    8  A    between atoms: C_14  and  O_15
REMARK    9  A    between atoms: O_15  and  C_16
REMARK                            x       y       z     vdW  Elec       q    Type
REMARK                         _______ _______ _______ _____ _____    ______ ____
ROOT
ATOM      1  C   UNL     1      46.440   7.860  13.086  0.00  0.00    +0.000 C 
ENDROOT
BRANCH   1   2
ATOM      2  C   UNL     1      45.793   6.636  12.495  0.00  0.00    +0.000 A 
ATOM      3  C   UNL     1      45.133   5.725  13.321  0.00  0.00    +0.000 A 
ATOM      4  C   UNL     1      44.559   4.571  12.788  0.00  0.00    +0.000 A 
ATOM      5  C   UNL     1      44.628   4.298  11.414  0.00  0.00    +0.000 A 
ATOM      6  C   UNL     1      45.295   5.215  10.589  0.00  0.00    +0.000 A 
ATOM      7  C   UNL     1      45.872   6.372  11.123  0.00  0.00    +0.000 A 
BRANCH   5   8
ATOM      8  C   UNL     1      44.024   3.058  10.787  0.00  0.00    +0.000 C 
BRANCH   8   9
ATOM      9  C   UNL     1      44.338   2.876   9.302  0.00  0.00    +0.000 C 
BRANCH   9  10
ATOM     10  O   UNL     1      45.449   1.996   9.128  0.00  0.00    +0.000 OA
BRANCH  10  11
ATOM     11  C   UNL     1      46.106   2.154   7.933  0.00  0.00    +0.000 A 
ATOM     12  C   UNL     1      46.046   3.296   7.127  0.00  0.00    +0.000 A 
ATOM     13  C   UNL     1      46.766   3.357   5.932  0.00  0.00    +0.000 A 
ATOM     14  C   UNL     1      47.553   2.279   5.538  0.00  0.00    +0.000 A 
ATOM     15  C   UNL     1      47.627   1.143   6.342  0.00  0.00    +0.000 A 
ATOM     16  C   UNL     1      46.911   1.084   7.540  0.00  0.00    +0.000 A 
ENDBRANCH  10  11
ENDBRANCH   9  10
ENDBRANCH   8   9
ENDBRANCH   5   8
ENDBRANCH   1   2
BRANCH   1  17
ATOM     17  O   UNL     1      47.849   7.852  12.829  0.00  0.00    +0.000 OA
BRANCH  17  18
ATOM     18  C   UNL     1      48.534   6.846  13.454  0.00  0.00    +0.000 C 
ATOM     19  O   UNL     1      48.881   5.816  12.896  0.00  0.00    +0.000 OA
BRANCH  18  23
ATOM     20  C   UNL     1      49.895   9.299  17.571  0.00  0.00    +0.000 C 
ATOM     21  N   UNL     1      49.392   8.260  16.702  0.00  0.00    +0.000 N 
ATOM     22  C   UNL     1      49.349   8.308  15.338  0.00  0.00    +0.000 A 
ATOM     23  C   UNL     1      48.773   7.131  14.867  0.00  0.00    +0.000 A 
ATOM     24  C   UNL     1      48.479   6.326  16.027  0.00  0.00    +0.000 A 
ATOM     25  C   UNL     1      47.938   5.083  16.358  0.00  0.00    +0.000 A 
ATOM     26 CL   UNL     1      47.413   3.985  15.181  0.00  0.00    +0.000 Cl
ATOM     27  N   UNL     1      47.812   4.669  17.631  0.00  0.00    +0.000 NA
ATOM     28  C   UNL     1      48.233   5.504  18.588  0.00  0.00    +0.000 A 
ATOM     29  N   UNL     1      48.775   6.717  18.430  0.00  0.00    +0.000 NA
ATOM     30  C   UNL     1      48.874   7.073  17.137  0.00  0.00    +0.000 A 
ENDBRANCH  18  23
ENDBRANCH  17  18
ENDBRANCH   1  17
TORSDOF 8
ENDMDL
MODEL 5
REMARK VINA RESULT:    -7.442      2.633      4.005
REMARK INTER + INTRA:         -11.971
REMARK INTER:                 -10.550
REMARK INTRA:                  -1.421
REMARK UNBOUND:                -1.049
REMARK  Name = 
REMARK  9 active torsions:
REMARK  status: ('A' for Active; 'I' for Inactive)
REMARK    1  A    between atoms: C_1  and  N_2
REMARK    2  A    between atoms: C_4  and  C_5
REMARK    3  A    between atoms: C_5  and  O_7
REMARK    4  A    between atoms: O_7  and  C_8
REMARK    5  A    between atoms: C_8  and  C_9
REMARK    6  A    between atoms: C_12  and  C_13
REMARK    7  A    between atoms: C_13  and  C_14
REMARK    8  A    between atoms: C_14  and  O_15
REMARK    9  A    between atoms: O_15  and  C_16
REMARK                            x       y       z     vdW  Elec       q    Type
REMARK                         _______ _______ _______ _____ _____    ______ ____
ROOT
ATOM      1  C   UNL     1      48.507   7.220  13.683  0.00  0.00    +0.000 C 
ENDROOT
BRANCH   1   2
ATOM      2  C   UNL     1      47.430   6.288  13.193  0.00  0.00    +0.000 A 
ATOM      3  C   UNL     1      46.816   6.514  11.960  0.00  0.00    +0.000 A 
ATOM      4  C   UNL     1      45.794   5.677  11.513  0.00  0.00    +0.000 A 
ATOM      5  C   UNL     1      45.360   4.590  12.287  0.00  0.00    +0.000 A 
ATOM      6  C   UNL     1      45.978   4.369  13.525  0.00  0.00    +0.000 A 
ATOM      7  C   UNL     1      47.002   5.209  13.975  0.00  0.00    +0.000 A 
BRANCH   5   8
ATOM      8  C   UNL     1      44.252   3.654  11.847  0.00  0.00    +0.000 C 
BRANCH   8   9
ATOM      9  C   UNL     1      43.917   3.719  10.357  0.00  0.00    +0.000 C 
BRANCH   9  10
ATOM     10  O   UNL     1      44.284   2.502   9.706  0.00  0.00    +0.000 OA
BRANCH  10  11
ATOM     11  C   UNL     1      45.264   2.649   8.756  0.00  0.00    +0.000 A 
ATOM     12  C   UNL     1      45.639   3.862   8.169  0.00  0.00    +0.000 A 
ATOM     13  C   UNL     1      46.660   3.901   7.217  0.00  0.00    +0.000 A 
ATOM     14  C   UNL     1      47.315   2.729   6.850  0.00  0.00    +0.000 A 
ATOM     15  C   UNL     1      46.954   1.519   7.439  0.00  0.00    +0.000 A 
ATOM     16  C   UNL     1      45.936   1.481   8.395  0.00  0.00    +0.000 A 
ENDBRANCH  10  11
ENDBRANCH   9  10
ENDBRANCH   8   9
ENDBRANCH   5   8
ENDBRANCH   1   2
BRANCH   1  17
ATOM     17  O   UNL     1      49.413   6.524  14.546  0.00  0.00    +0.000 OA
BRANCH  17  18
ATOM     18  C   UNL     1      50.128   7.331  15.387  0.00  0.00    +0.000 C 
ATOM     19  O   UNL     1      51.296   7.638  15.199  0.00  0.00    +0.000 OA
BRANCH  18  23
ATOM     20  C   UNL     1      47.735  10.309  18.585  0.00  0.00    +0.000 C 
ATOM     21  N   UNL     1      48.278   9.121  17.967  0.00  0.00    +0.000 N 
ATOM     22  C   UNL     1      49.046   9.084  16.839  0.00  0.00    +0.000 A 
ATOM     23  C   UNL     1      49.348   7.756  16.548  0.00  0.00    +0.000 A 
ATOM     24  C   UNL     1      48.739   6.960  17.584  0.00  0.00    +0.000 A 
ATOM     25  C   UNL     1      48.610   5.626  17.972  0.00  0.00    +0.000 A 
ATOM     26 CL   UNL     1      49.342   4.362  17.116  0.00  0.00    +0.000 Cl
ATOM     27  N   UNL     1      47.909   5.257  19.059  0.00  0.00    +0.000 NA
ATOM     28  C   UNL     1      47.330   6.231  19.770  0.00  0.00    +0.000 A 
ATOM     29  N   UNL     1      47.367   7.547  19.530  0.00  0.00    +0.000 NA
ATOM     30  C   UNL     1      48.082   7.851  18.433  0.00  0.00    +0.000 A 
ENDBRANCH  18  23
ENDBRANCH  17  18
ENDBRANCH   1  17
TORSDOF 8
ENDMDL
MODEL 6
REMARK VINA RESULT:    -7.437      2.388      3.051
REMARK INTER + INTRA:         -11.964
REMARK INTER:                 -10.720
REMARK INTRA:                  -1.244
REMARK UNBOUND:                -1.049
REMARK  Name = 
REMARK  9 active torsions:
REMARK  status: ('A' for Active; 'I' for Inactive)
REMARK    1  A    between atoms: C_1  and  N_2
REMARK    2  A    between atoms: C_4  and  C_5
REMARK    3  A    between atoms: C_5  and  O_7
REMARK    4  A    between atoms: O_7  and  C_8
REMARK    5  A    between atoms: C_8  and  C_9
REMARK    6  A    between atoms: C_12  and  C_13
REMARK    7  A    between atoms: C_13  and  C_14
REMARK    8  A    between atoms: C_14  and  O_15
REMARK    9  A    between atoms: O_15  and  C_16
REMARK                            x       y       z     vdW  Elec       q    Type
REMARK                         _______ _______ _______ _____ _____    ______ ____
ROOT
ATOM      1  C   UNL     1      48.627   7.089  13.196  0.00  0.00    +0.000 C 
ENDROOT
BRANCH   1   2
ATOM      2  C   UNL     1      47.265   6.457  13.081  0.00  0.00    +0.000 A 
ATOM      3  C   UNL     1      47.126   5.071  13.173  0.00  0.00    +0.000 A 
ATOM      4  C   UNL     1      45.874   4.473  13.034  0.00  0.00    +0.000 A 
ATOM      5  C   UNL     1      44.726   5.245  12.800  0.00  0.00    +0.000 A 
ATOM      6  C   UNL     1      44.872   6.636  12.705  0.00  0.00    +0.000 A 
ATOM      7  C   UNL     1      46.127   7.237  12.844  0.00  0.00    +0.000 A 
BRANCH   5   8
ATOM      8  C   UNL     1      43.345   4.643  12.639  0.00  0.00    +0.000 C 
BRANCH   8   9
ATOM      9  C   UNL     1      43.121   3.907  11.318  0.00  0.00    +0.000 C 
BRANCH   9  10
ATOM     10  O   UNL     1      43.665   4.652  10.229  0.00  0.00    +0.000 OA
BRANCH  10  11
ATOM     11  C   UNL     1      44.507   3.927   9.420  0.00  0.00    +0.000 A 
ATOM     12  C   UNL     1      45.372   4.472   8.466  0.00  0.00    +0.000 A 
ATOM     13  C   UNL     1      46.195   3.642   7.703  0.00  0.00    +0.000 A 
ATOM     14  C   UNL     1      46.163   2.263   7.893  0.00  0.00    +0.000 A 
ATOM     15  C   UNL     1      45.311   1.715   8.850  0.00  0.00    +0.000 A 
ATOM     16  C   UNL     1      44.491   2.546   9.617  0.00  0.00    +0.000 A 
ENDBRANCH  10  11
ENDBRANCH   9  10
ENDBRANCH   8   9
ENDBRANCH   5   8
ENDBRANCH   1   2
BRANCH   1  17
ATOM     17  O   UNL     1      49.312   6.588  14.349  0.00  0.00    +0.000 OA
BRANCH  17  18
ATOM     18  C   UNL     1      48.899   7.128  15.535  0.00  0.00    +0.000 C 
ATOM     19  O   UNL     1      48.737   8.327  15.712  0.00  0.00    +0.000 OA
BRANCH  18  23
ATOM     20  C   UNL     1      47.453   2.901  17.739  0.00  0.00    +0.000 C 
ATOM     21  N   UNL     1      48.044   4.203  17.535  0.00  0.00    +0.000 N 
ATOM     22  C   UNL     1      48.000   4.931  16.380  0.00  0.00    +0.000 A 
ATOM     23  C   UNL     1      48.706   6.116  16.571  0.00  0.00    +0.000 A 
ATOM     24  C   UNL     1      49.178   6.097  17.933  0.00  0.00    +0.000 A 
ATOM     25  C   UNL     1      49.906   6.886  18.825  0.00  0.00    +0.000 A 
ATOM     26 CL   UNL     1      50.510   8.409  18.397  0.00  0.00    +0.000 Cl
ATOM     27  N   UNL     1      50.164   6.496  20.086  0.00  0.00    +0.000 NA
ATOM     28  C   UNL     1      49.688   5.305  20.464  0.00  0.00    +0.000 A 
ATOM     29  N   UNL     1      48.973   4.443  19.732  0.00  0.00    +0.000 NA
ATOM     30  C   UNL     1      48.748   4.889  18.484  0.00  0.00    +0.000 A 
ENDBRANCH  18  23
ENDBRANCH  17  18
ENDBRANCH   1  17
TORSDOF 8
ENDMDL
MODEL 7
REMARK VINA RESULT:    -7.355      2.641      3.732
REMARK INTER + INTRA:         -11.844
REMARK INTER:                 -10.369
REMARK INTRA:                  -1.474
REMARK UNBOUND:                -1.049
REMARK  Name = 
REMARK  9 active torsions:
REMARK  status: ('A' for Active; 'I' for Inactive)
REMARK    1  A    between atoms: C_1  and  N_2
REMARK    2  A    between atoms: C_4  and  C_5
REMARK    3  A    between atoms: C_5  and  O_7
REMARK    4  A    between atoms: O_7  and  C_8
REMARK    5  A    between atoms: C_8  and  C_9
REMARK    6  A    between atoms: C_12  and  C_13
REMARK    7  A    between atoms: C_13  and  C_14
REMARK    8  A    between atoms: C_14  and  O_15
REMARK    9  A    between atoms: O_15  and  C_16
REMARK                            x       y       z     vdW  Elec       q    Type
REMARK                         _______ _______ _______ _____ _____    ______ ____
ROOT
ATOM      1  C   UNL     1      48.732   7.200  13.263  0.00  0.00    +0.000 C 
ENDROOT
BRANCH   1   2
ATOM      2  C   UNL     1      47.371   6.566  13.155  0.00  0.00    +0.000 A 
ATOM      3  C   UNL     1      46.301   7.289  12.623  0.00  0.00    +0.000 A 
ATOM      4  C   UNL     1      45.029   6.723  12.550  0.00  0.00    +0.000 A 
ATOM      5  C   UNL     1      44.792   5.417  13.006  0.00  0.00    +0.000 A 
ATOM      6  C   UNL     1      45.868   4.697  13.543  0.00  0.00    +0.000 A 
ATOM      7  C   UNL     1      47.144   5.264  13.617  0.00  0.00    +0.000 A 
BRANCH   5   8
ATOM      8  C   UNL     1      43.428   4.759  12.952  0.00  0.00    +0.000 C 
BRANCH   8   9
ATOM      9  C   UNL     1      42.888   4.527  11.541  0.00  0.00    +0.000 C 
BRANCH   9  10
ATOM     10  O   UNL     1      43.195   3.205  11.097  0.00  0.00    +0.000 OA
BRANCH  10  11
ATOM     11  C   UNL     1      44.115   3.156  10.079  0.00  0.00    +0.000 A 
ATOM     12  C   UNL     1      44.661   1.984   9.544  0.00  0.00    +0.000 A 
ATOM     13  C   UNL     1      45.584   2.048   8.498  0.00  0.00    +0.000 A 
ATOM     14  C   UNL     1      45.964   3.283   7.978  0.00  0.00    +0.000 A 
ATOM     15  C   UNL     1      45.414   4.453   8.499  0.00  0.00    +0.000 A 
ATOM     16  C   UNL     1      44.487   4.389   9.542  0.00  0.00    +0.000 A 
ENDBRANCH  10  11
ENDBRANCH   9  10
ENDBRANCH   8   9
ENDBRANCH   5   8
ENDBRANCH   1   2
BRANCH   1  17
ATOM     17  O   UNL     1      49.514   6.535  14.261  0.00  0.00    +0.000 OA
BRANCH  17  18
ATOM     18  C   UNL     1      49.809   7.302  15.354  0.00  0.00    +0.000 C 
ATOM     19  O   UNL     1      50.468   8.330  15.301  0.00  0.00    +0.000 OA
BRANCH  18  23
ATOM     20  C   UNL     1      48.710   3.957  18.880  0.00  0.00    +0.000 C 
ATOM     21  N   UNL     1      48.799   5.208  18.162  0.00  0.00    +0.000 N 
ATOM     22  C   UNL     1      49.362   5.387  16.931  0.00  0.00    +0.000 A 
ATOM     23  C   UNL     1      49.277   6.735  16.592  0.00  0.00    +0.000 A 
ATOM     24  C   UNL     1      48.600   7.390  17.683  0.00  0.00    +0.000 A 
ATOM     25  C   UNL     1      48.157   8.658  18.061  0.00  0.00    +0.000 A 
ATOM     26 CL   UNL     1      48.342  10.013  17.063  0.00  0.00    +0.000 Cl
ATOM     27  N   UNL     1      47.540   8.885  19.234  0.00  0.00    +0.000 NA
ATOM     28  C   UNL     1      47.362   7.834  20.042  0.00  0.00    +0.000 A 
ATOM     29  N   UNL     1      47.724   6.565  19.820  0.00  0.00    +0.000 NA
ATOM     30  C   UNL     1      48.333   6.403  18.633  0.00  0.00    +0.000 A 
ENDBRANCH  18  23
ENDBRANCH  17  18
ENDBRANCH   1  17
TORSDOF 8
ENDMDL
MODEL 8
REMARK VINA RESULT:    -7.257      2.331      3.350
REMARK INTER + INTRA:         -11.700
REMARK INTER:                 -10.362
REMARK INTRA:                  -1.338
REMARK UNBOUND:                -1.049
REMARK  Name = 
REMARK  9 active torsions:
REMARK  status: ('A' for Active; 'I' for Inactive)
REMARK    1  A    between atoms: C_1  and  N_2
REMARK    2  A    between atoms: C_4  and  C_5
REMARK    3  A    between atoms: C_5  and  O_7
REMARK    4  A    between atoms: O_7  and  C_8
REMARK    5  A    between atoms: C_8  and  C_9
REMARK    6  A    between atoms: C_12  and  C_13
REMARK    7  A    between atoms: C_13  and  C_14
REMARK    8  A    between atoms: C_14  and  O_15
REMARK    9  A    between atoms: O_15  and  C_16
REMARK                            x       y       z     vdW  Elec       q    Type
REMARK                         _______ _______ _______ _____ _____    ______ ____
ROOT
ATOM      1  C   UNL     1      48.097   7.431  13.294  0.00  0.00    +0.000 C 
ENDROOT
BRANCH   1   2
ATOM      2  C   UNL     1      46.907   6.513  13.210  0.00  0.00    +0.000 A 
ATOM      3  C   UNL     1      47.055   5.149  13.468  0.00  0.00    +0.000 A 
ATOM      4  C   UNL     1      45.967   4.284  13.360  0.00  0.00    +0.000 A 
ATOM      5  C   UNL     1      44.700   4.760  12.991  0.00  0.00    +0.000 A 
ATOM      6  C   UNL     1      44.556   6.129  12.729  0.00  0.00    +0.000 A 
ATOM      7  C   UNL     1      45.648   6.997  12.837  0.00  0.00    +0.000 A 
BRANCH   5   8
ATOM      8  C   UNL     1      43.487   3.861  12.856  0.00  0.00    +0.000 C 
BRANCH   8   9
ATOM      9  C   UNL     1      43.489   2.971  11.613  0.00  0.00    +0.000 C 
BRANCH   9  10
ATOM     10  O   UNL     1      43.451   3.764  10.427  0.00  0.00    +0.000 OA
BRANCH  10  11
ATOM     11  C   UNL     1      44.407   3.430   9.499  0.00  0.00    +0.000 A 
ATOM     12  C   UNL     1      45.068   4.336   8.664  0.00  0.00    +0.000 A 
ATOM     13  C   UNL     1      46.035   3.889   7.761  0.00  0.00    +0.000 A 
ATOM     14  C   UNL     1      46.350   2.535   7.692  0.00  0.00    +0.000 A 
ATOM     15  C   UNL     1      45.704   1.628   8.531  0.00  0.00    +0.000 A 
ATOM     16  C   UNL     1      44.740   2.076   9.437  0.00  0.00    +0.000 A 
ENDBRANCH  10  11
ENDBRANCH   9  10
ENDBRANCH   8   9
ENDBRANCH   5   8
ENDBRANCH   1   2
BRANCH   1  17
ATOM     17  O   UNL     1      49.140   6.825  14.065  0.00  0.00    +0.000 OA
BRANCH  17  18
ATOM     18  C   UNL     1      49.777   7.676  14.926  0.00  0.00    +0.000 C 
ATOM     19  O   UNL     1      49.509   8.864  15.024  0.00  0.00    +0.000 OA
BRANCH  18  23
ATOM     20  C   UNL     1      54.313   6.576  16.668  0.00  0.00    +0.000 C 
ATOM     21  N   UNL     1      52.885   6.540  16.455  0.00  0.00    +0.000 N 
ATOM     22  C   UNL     1      52.184   7.324  15.583  0.00  0.00    +0.000 A 
ATOM     23  C   UNL     1      50.832   7.010  15.688  0.00  0.00    +0.000 A 
ATOM     24  C   UNL     1      50.729   5.956  16.667  0.00  0.00    +0.000 A 
ATOM     25  C   UNL     1      49.766   5.151  17.275  0.00  0.00    +0.000 A 
ATOM     26 CL   UNL     1      48.124   5.247  16.874  0.00  0.00    +0.000 Cl
ATOM     27  N   UNL     1      50.080   4.234  18.208  0.00  0.00    +0.000 NA
ATOM     28  C   UNL     1      51.370   4.118  18.539  0.00  0.00    +0.000 A 
ATOM     29  N   UNL     1      52.404   4.810  18.044  0.00  0.00    +0.000 NA
ATOM     30  C   UNL     1      52.027   5.707  17.117  0.00  0.00    +0.000 A 
ENDBRANCH  18  23
ENDBRANCH  17  18
ENDBRANCH   1  17
TORSDOF 8
ENDMDL
MODEL 9
REMARK VINA RESULT:    -7.086      2.537      3.625
REMARK INTER + INTRA:         -11.449
REMARK INTER:                 -10.444
REMARK INTRA:                  -1.005
REMARK UNBOUND:                -1.049
REMARK  Name = 
REMARK  9 active torsions:
REMARK  status: ('A' for Active; 'I' for Inactive)
REMARK    1  A    between atoms: C_1  and  N_2
REMARK    2  A    between atoms: C_4  and  C_5
REMARK    3  A    between atoms: C_5  and  O_7
REMARK    4  A    between atoms: O_7  and  C_8
REMARK    5  A    between atoms: C_8  and  C_9
REMARK    6  A    between atoms: C_12  and  C_13
REMARK    7  A    between atoms: C_13  and  C_14
REMARK    8  A    between atoms: C_14  and  O_15
REMARK    9  A    between atoms: O_15  and  C_16
REMARK                            x       y       z     vdW  Elec       q    Type
REMARK                         _______ _______ _______ _____ _____    ______ ____
ROOT
ATOM      1  C   UNL     1      47.294   4.534  15.203  0.00  0.00    +0.000 C 
ENDROOT
BRANCH   1   2
ATOM      2  C   UNL     1      46.553   4.689  13.902  0.00  0.00    +0.000 A 
ATOM      3  C   UNL     1      46.362   5.958  13.352  0.00  0.00    +0.000 A 
ATOM      4  C   UNL     1      45.647   6.117  12.165  0.00  0.00    +0.000 A 
ATOM      5  C   UNL     1      45.105   5.010  11.495  0.00  0.00    +0.000 A 
ATOM      6  C   UNL     1      45.297   3.738  12.053  0.00  0.00    +0.000 A 
ATOM      7  C   UNL     1      46.012   3.579  13.244  0.00  0.00    +0.000 A 
BRANCH   5   8
ATOM      8  C   UNL     1      44.319   5.130  10.205  0.00  0.00    +0.000 C 
BRANCH   8   9
ATOM      9  C   UNL     1      44.492   3.956   9.241  0.00  0.00    +0.000 C 
BRANCH   9  10
ATOM     10  O   UNL     1      45.426   4.285   8.213  0.00  0.00    +0.000 OA
BRANCH  10  11
ATOM     11  C   UNL     1      46.054   3.196   7.658  0.00  0.00    +0.000 A 
ATOM     12  C   UNL     1      46.179   1.944   8.268  0.00  0.00    +0.000 A 
ATOM     13  C   UNL     1      46.829   0.899   7.608  0.00  0.00    +0.000 A 
ATOM     14  C   UNL     1      47.353   1.098   6.334  0.00  0.00    +0.000 A 
ATOM     15  C   UNL     1      47.221   2.340   5.716  0.00  0.00    +0.000 A 
ATOM     16  C   UNL     1      46.567   3.384   6.374  0.00  0.00    +0.000 A 
ENDBRANCH  10  11
ENDBRANCH   9  10
ENDBRANCH   8   9
ENDBRANCH   5   8
ENDBRANCH   1   2
BRANCH   1  17
ATOM     17  O   UNL     1      48.317   5.530  15.315  0.00  0.00    +0.000 OA
BRANCH  17  18
ATOM     18  C   UNL     1      49.039   5.473  16.475  0.00  0.00    +0.000 C 
ATOM     19  O   UNL     1      49.929   4.661  16.678  0.00  0.00    +0.000 OA
BRANCH  18  23
ATOM     20  C   UNL     1      47.495   7.448  20.781  0.00  0.00    +0.000 C 
ATOM     21  N   UNL     1      47.912   7.330  19.402  0.00  0.00    +0.000 N 
ATOM     22  C   UNL     1      48.224   6.167  18.756  0.00  0.00    +0.000 A 
ATOM     23  C   UNL     1      48.604   6.470  17.451  0.00  0.00    +0.000 A 
ATOM     24  C   UNL     1      48.486   7.900  17.310  0.00  0.00    +0.000 A 
ATOM     25  C   UNL     1      48.666   8.900  16.354  0.00  0.00    +0.000 A 
ATOM     26 CL   UNL     1      49.149   8.555  14.768  0.00  0.00    +0.000 Cl
ATOM     27  N   UNL     1      48.452  10.200  16.622  0.00  0.00    +0.000 NA
ATOM     28  C   UNL     1      48.052  10.508  17.861  0.00  0.00    +0.000 A 
ATOM     29  N   UNL     1      47.832   9.668  18.879  0.00  0.00    +0.000 NA
ATOM     30  C   UNL     1      48.062   8.385  18.548  0.00  0.00    +0.000 A 
ENDBRANCH  18  23
ENDBRANCH  17  18
ENDBRANCH   1  17
TORSDOF 8
ENDMDL
