MODEL 1
REMARK VINA RESULT:    -7.630      0.000      0.000
REMARK INTER + INTRA:         -13.621
REMARK INTER:                 -12.314
REMARK INTRA:                  -1.306
REMARK UNBOUND:                -1.306
REMARK  Name = 
REMARK  12 active torsions:
REMARK  status: ('A' for Active; 'I' for Inactive)
REMARK    1  A    between atoms: C_1  and  N_2
REMARK    2  A    between atoms: N_2  and  C_3
REMARK    3  A    between atoms: N_2  and  C_14
REMARK    4  A    between atoms: C_3  and  C_4
REMARK    5  A    between atoms: C_7  and  O_8
REMARK    6  A    between atoms: O_8  and  C_9
REMARK    7  A    between atoms: C_9  and  C_10
REMARK    8  A    between atoms: C_10  and  O_11
REMARK    9  A    between atoms: C_14  and  C_15
REMARK   10  A    between atoms: C_18  and  C_19
REMARK   11  A    between atoms: C_19  and  N_20
REMARK   12  A    between atoms: C_21  and  C_23
REMARK                            x       y       z     vdW  Elec       q    Type
REMARK                         _______ _______ _______ _____ _____    ______ ____
ROOT
ATOM      1  C   UNL     1      45.533   5.522  12.311  0.00  0.00    +0.000 A 
ATOM      2  C   UNL     1      46.178   6.532  11.601  0.00  0.00    +0.000 A 
ATOM      3  C   UNL     1      47.396   7.017  12.075  0.00  0.00    +0.000 A 
ATOM      4  C   UNL     1      47.948   6.485  13.242  0.00  0.00    +0.000 A 
ATOM      5  C   UNL     1      47.221   5.497  13.896  0.00  0.00    +0.000 A 
ATOM      6  N   UNL     1      46.040   5.004  13.459  0.00  0.00    +0.000 NA
ENDROOT
BRANCH   1   7
ATOM      7  C   UNL     1      44.211   4.953  11.822  0.00  0.00    +0.000 C 
BRANCH   7   9
ATOM      8  C   UNL     1      43.297   2.713  11.805  0.00  0.00    +0.000 C 
ATOM      9  N   UNL     1      44.291   3.608  11.195  0.00  0.00    +0.000 NA
BRANCH   9  10
ATOM     10  C   UNL     1      44.044   3.763   9.746  0.00  0.00    +0.000 C 
BRANCH  10  11
ATOM     11  C   UNL     1      45.117   3.185   8.846  0.00  0.00    +0.000 A 
ATOM     12  C   UNL     1      45.377   1.808   8.862  0.00  0.00    +0.000 A 
ATOM     13  C   UNL     1      46.336   1.248   8.012  0.00  0.00    +0.000 A 
ATOM     14  C   UNL     1      47.052   2.054   7.125  0.00  0.00    +0.000 A 
ATOM     15  C   UNL     1      46.804   3.430   7.112  0.00  0.00    +0.000 A 
ATOM     16  C   UNL     1      45.844   3.993   7.962  0.00  0.00    +0.000 A 
BRANCH  14  17
ATOM     17  O   UNL     1      48.000   1.619   6.237  0.00  0.00    +0.000 OA
BRANCH  17  18
ATOM     18  C   UNL     1      47.761   1.922   4.855  0.00  0.00    +0.000 C 
BRANCH  18  19
ATOM     19  C   UNL     1      46.941   0.793   4.239  0.00  0.00    +0.000 C 
BRANCH  19  20
ATOM     20  O   UNL     1      47.504   0.384   2.995  0.00  0.00    +0.000 OA
ATOM     21  H   UNL     1      46.983  -0.388   2.706  0.00  0.00    +0.000 HD
ENDBRANCH  19  20
ENDBRANCH  18  19
ENDBRANCH  17  18
ENDBRANCH  14  17
ENDBRANCH  10  11
ENDBRANCH   9  10
ENDBRANCH   7   9
ENDBRANCH   1   7
BRANCH   4  22
ATOM     22  C   UNL     1      49.247   6.979  13.803  0.00  0.00    +0.000 C 
BRANCH  22  23
ATOM     23  N   UNL     1      49.262   6.887  15.241  0.00  0.00    +0.000 N 
ATOM     24  C   UNL     1      50.410   7.122  15.954  0.00  0.00    +0.000 C 
ATOM     25  O   UNL     1      51.458   7.457  15.404  0.00  0.00    +0.000 OA
ATOM     26  H   UNL     1      48.486   6.412  15.690  0.00  0.00    +0.000 HD
BRANCH  24  27
ATOM     27  C   UNL     1      50.313   7.015  17.414  0.00  0.00    +0.000 A 
ATOM     28  C   UNL     1      50.760   8.061  18.210  0.00  0.00    +0.000 A 
ATOM     29  S   UNL     1      50.519   7.804  19.878  0.00  0.00    +0.000 S 
ATOM     30  C   UNL     1      49.864   6.259  19.601  0.00  0.00    +0.000 A 
ATOM     31  N   UNL     1      49.467   5.472  20.637  0.00  0.00    +0.000 NA
ATOM     32  C   UNL     1      49.029   4.309  20.288  0.00  0.00    +0.000 A 
ATOM     33  N   UNL     1      48.942   3.865  18.993  0.00  0.00    +0.000 N 
ATOM     34  C   UNL     1      49.293   4.639  17.913  0.00  0.00    +0.000 A 
ATOM     35  O   UNL     1      49.154   4.233  16.763  0.00  0.00    +0.000 OA
ATOM     36  C   UNL     1      49.812   5.950  18.252  0.00  0.00    +0.000 A 
ATOM     37  H   UNL     1      48.581   2.945  18.786  0.00  0.00    +0.000 HD
ENDBRANCH  24  27
ENDBRANCH  22  23
ENDBRANCH   4  22
TORSDOF 11
ENDMDL
MODEL 2
REMARK VINA RESULT:    -7.565      2.361      3.041
REMARK INTER + INTRA:         -13.516
REMARK INTER:                 -13.346
REMARK INTRA:                  -0.170
REMARK UNBOUND:                -1.306
REMARK  Name = 
REMARK  12 active torsions:
REMARK  status: ('A' for Active; 'I' for Inactive)
REMARK    1  A    between atoms: C_1  and  N_2
REMARK    2  A    between atoms: N_2  and  C_3
REMARK    3  A    between atoms: N_2  and  C_14
REMARK    4  A    between atoms: C_3  and  C_4
REMARK    5  A    between atoms: C_7  and  O_8
REMARK    6  A    between atoms: O_8  and  C_9
REMARK    7  A    between atoms: C_9  and  C_10
REMARK    8  A    between atoms: C_10  and  O_11
REMARK    9  A    between atoms: C_14  and  C_15
REMARK   10  A    between atoms: C_18  and  C_19
REMARK   11  A    between atoms: C_19  and  N_20
REMARK   12  A    between atoms: C_21  and  C_23
REMARK                            x       y       z     vdW  Elec       q    Type
REMARK                         _______ _______ _______ _____ _____    ______ ____
ROOT
ATOM      1  C   UNL     1      46.395   4.256  13.481  0.00  0.00    +0.000 A 
ATOM      2  C   UNL     1      46.939   5.437  12.983  0.00  0.00    +0.000 A 
ATOM      3  C   UNL     1      47.736   6.218  13.818  0.00  0.00    +0.000 A 
ATOM      4  C   UNL     1      47.979   5.805  15.130  0.00  0.00    +0.000 A 
ATOM      5  C   UNL     1      47.375   4.625  15.546  0.00  0.00    +0.000 A 
ATOM      6  N   UNL     1      46.601   3.845  14.759  0.00  0.00    +0.000 NA
ENDROOT
BRANCH   1   7
ATOM      7  C   UNL     1      45.533   3.366  12.601  0.00  0.00    +0.000 C 
BRANCH   7   9
ATOM      8  C   UNL     1      43.723   4.819  13.284  0.00  0.00    +0.000 C 
ATOM      9  N   UNL     1      44.069   3.461  12.841  0.00  0.00    +0.000 NA
BRANCH   9  10
ATOM     10  C   UNL     1      43.375   3.123  11.581  0.00  0.00    +0.000 C 
BRANCH  10  11
ATOM     11  C   UNL     1      44.188   3.343  10.322  0.00  0.00    +0.000 A 
ATOM     12  C   UNL     1      44.617   4.634   9.982  0.00  0.00    +0.000 A 
ATOM     13  C   UNL     1      45.400   4.855   8.845  0.00  0.00    +0.000 A 
ATOM     14  C   UNL     1      45.776   3.788   8.027  0.00  0.00    +0.000 A 
ATOM     15  C   UNL     1      45.344   2.500   8.356  0.00  0.00    +0.000 A 
ATOM     16  C   UNL     1      44.559   2.276   9.494  0.00  0.00    +0.000 A 
BRANCH  14  17
ATOM     17  O   UNL     1      46.552   3.879   6.902  0.00  0.00    +0.000 OA
BRANCH  17  18
ATOM     18  C   UNL     1      47.550   2.862   6.736  0.00  0.00    +0.000 C 
BRANCH  18  19
ATOM     19  C   UNL     1      47.184   2.007   5.526  0.00  0.00    +0.000 C 
BRANCH  19  20
ATOM     20  O   UNL     1      48.355   1.467   4.919  0.00  0.00    +0.000 OA
ATOM     21  H   UNL     1      48.088   0.611   4.534  0.00  0.00    +0.000 HD
ENDBRANCH  19  20
ENDBRANCH  18  19
ENDBRANCH  17  18
ENDBRANCH  14  17
ENDBRANCH  10  11
ENDBRANCH   9  10
ENDBRANCH   7   9
ENDBRANCH   1   7
BRANCH   4  22
ATOM     22  C   UNL     1      48.816   6.613  16.074  0.00  0.00    +0.000 C 
BRANCH  22  23
ATOM     23  N   UNL     1      49.943   5.853  16.553  0.00  0.00    +0.000 N 
ATOM     24  C   UNL     1      49.938   5.290  17.804  0.00  0.00    +0.000 C 
ATOM     25  O   UNL     1      48.964   5.375  18.549  0.00  0.00    +0.000 OA
ATOM     26  H   UNL     1      50.822   5.950  16.054  0.00  0.00    +0.000 HD
BRANCH  24  27
ATOM     27  C   UNL     1      51.130   4.525  18.186  0.00  0.00    +0.000 A 
ATOM     28  C   UNL     1      52.143   5.149  18.904  0.00  0.00    +0.000 A 
ATOM     29  S   UNL     1      53.427   4.107  19.321  0.00  0.00    +0.000 S 
ATOM     30  C   UNL     1      52.705   2.801  18.506  0.00  0.00    +0.000 A 
ATOM     31  N   UNL     1      53.315   1.586  18.453  0.00  0.00    +0.000 NA
ATOM     32  C   UNL     1      52.679   0.697  17.767  0.00  0.00    +0.000 A 
ATOM     33  N   UNL     1      51.480   0.910  17.136  0.00  0.00    +0.000 N 
ATOM     34  C   UNL     1      50.807   2.108  17.195  0.00  0.00    +0.000 A 
ATOM     35  O   UNL     1      49.710   2.252  16.664  0.00  0.00    +0.000 OA
ATOM     36  C   UNL     1      51.491   3.149  17.938  0.00  0.00    +0.000 A 
ATOM     37  H   UNL     1      51.028   0.168  16.621  0.00  0.00    +0.000 HD
ENDBRANCH  24  27
ENDBRANCH  22  23
ENDBRANCH   4  22
TORSDOF 11
ENDMDL
MODEL 3
REMARK VINA RESULT:    -7.239      2.261      3.116
REMARK INTER + INTRA:         -12.989
REMARK INTER:                 -11.732
REMARK INTRA:                  -1.257
REMARK UNBOUND:                -1.306
REMARK  Name = 
REMARK  12 active torsions:
REMARK  status: ('A' for Active; 'I' for Inactive)
REMARK    1  A    between atoms: C_1  and  N_2
REMARK    2  A    between atoms: N_2  and  C_3
REMARK    3  A    between atoms: N_2  and  C_14
REMARK    4  A    between atoms: C_3  and  C_4
REMARK    5  A    between atoms: C_7  and  O_8
REMARK    6  A    between atoms: O_8  and  C_9
REMARK    7  A    between atoms: C_9  and  C_10
REMARK    8  A    between atoms: C_10  and  O_11
REMARK    9  A    between atoms: C_14  and  C_15
REMARK   10  A    between atoms: C_18  and  C_19
REMARK   11  A    between atoms: C_19  and  N_20
REMARK   12  A    between atoms: C_21  and  C_23
REMARK                            x       y       z     vdW  Elec       q    Type
REMARK                         _______ _______ _______ _____ _____    ______ ____
ROOT
ATOM      1  C   UNL     1      46.019   5.053  12.472  0.00  0.00    +0.000 A 
ATOM      2  C   UNL     1      46.197   3.778  13.005  0.00  0.00    +0.000 A 
ATOM      3  C   UNL     1      46.860   3.642  14.222  0.00  0.00    +0.000 A 
ATOM      4  C   UNL     1      47.330   4.777  14.887  0.00  0.00    +0.000 A 
ATOM      5  C   UNL     1      47.129   6.005  14.268  0.00  0.00    +0.000 A 
ATOM      6  N   UNL     1      46.486   6.168  13.090  0.00  0.00    +0.000 NA
ENDROOT
BRANCH   1   7
ATOM      7  C   UNL     1      45.288   5.249  11.155  0.00  0.00    +0.000 C 
BRANCH   7   9
ATOM      8  C   UNL     1      42.947   4.816  11.584  0.00  0.00    +0.000 C 
ATOM      9  N   UNL     1      44.155   4.317  10.912  0.00  0.00    +0.000 NA
BRANCH   9  10
ATOM     10  C   UNL     1      43.947   4.221   9.452  0.00  0.00    +0.000 C 
BRANCH  10  11
ATOM     11  C   UNL     1      45.053   3.520   8.691  0.00  0.00    +0.000 A 
ATOM     12  C   UNL     1      45.261   2.144   8.865  0.00  0.00    +0.000 A 
ATOM     13  C   UNL     1      46.251   1.471   8.144  0.00  0.00    +0.000 A 
ATOM     14  C   UNL     1      47.052   2.158   7.229  0.00  0.00    +0.000 A 
ATOM     15  C   UNL     1      46.855   3.531   7.058  0.00  0.00    +0.000 A 
ATOM     16  C   UNL     1      45.864   4.209   7.779  0.00  0.00    +0.000 A 
BRANCH  14  17
ATOM     17  O   UNL     1      48.038   1.603   6.456  0.00  0.00    +0.000 OA
BRANCH  17  18
ATOM     18  C   UNL     1      47.976   1.885   5.051  0.00  0.00    +0.000 C 
BRANCH  18  19
ATOM     19  C   UNL     1      46.978   0.930   4.402  0.00  0.00    +0.000 C 
BRANCH  19  20
ATOM     20  O   UNL     1      47.472   0.464   3.149  0.00  0.00    +0.000 OA
ATOM     21  H   UNL     1      47.023   0.999   2.468  0.00  0.00    +0.000 HD
ENDBRANCH  19  20
ENDBRANCH  18  19
ENDBRANCH  17  18
ENDBRANCH  14  17
ENDBRANCH  10  11
ENDBRANCH   9  10
ENDBRANCH   7   9
ENDBRANCH   1   7
BRANCH   4  22
ATOM     22  C   UNL     1      48.063   4.687  16.191  0.00  0.00    +0.000 C 
BRANCH  22  23
ATOM     23  N   UNL     1      47.756   5.810  17.041  0.00  0.00    +0.000 N 
ATOM     24  C   UNL     1      48.521   6.095  18.143  0.00  0.00    +0.000 C 
ATOM     25  O   UNL     1      49.518   5.434  18.428  0.00  0.00    +0.000 OA
ATOM     26  H   UNL     1      46.835   6.228  16.952  0.00  0.00    +0.000 HD
BRANCH  24  27
ATOM     27  C   UNL     1      48.128   7.269  18.931  0.00  0.00    +0.000 A 
ATOM     28  C   UNL     1      47.841   7.121  20.282  0.00  0.00    +0.000 A 
ATOM     29  S   UNL     1      47.462   8.588  21.065  0.00  0.00    +0.000 S 
ATOM     30  C   UNL     1      47.608   9.464  19.614  0.00  0.00    +0.000 A 
ATOM     31  N   UNL     1      47.381  10.804  19.581  0.00  0.00    +0.000 NA
ATOM     32  C   UNL     1      47.485  11.336  18.409  0.00  0.00    +0.000 A 
ATOM     33  N   UNL     1      47.806  10.648  17.267  0.00  0.00    +0.000 N 
ATOM     34  C   UNL     1      48.083   9.301  17.259  0.00  0.00    +0.000 A 
ATOM     35  O   UNL     1      48.419   8.723  16.229  0.00  0.00    +0.000 OA
ATOM     36  C   UNL     1      47.960   8.651  18.550  0.00  0.00    +0.000 A 
ATOM     37  H   UNL     1      47.880  11.125  16.380  0.00  0.00    +0.000 HD
ENDBRANCH  24  27
ENDBRANCH  22  23
ENDBRANCH   4  22
TORSDOF 11
ENDMDL
MODEL 4
REMARK VINA RESULT:    -6.717      2.498      2.907
REMARK INTER + INTRA:         -12.146
REMARK INTER:                 -11.018
REMARK INTRA:                  -1.128
REMARK UNBOUND:                -1.306
REMARK  Name = 
REMARK  12 active torsions:
REMARK  status: ('A' for Active; 'I' for Inactive)
REMARK    1  A    between atoms: C_1  and  N_2
REMARK    2  A    between atoms: N_2  and  C_3
REMARK    3  A    between atoms: N_2  and  C_14
REMARK    4  A    between atoms: C_3  and  C_4
REMARK    5  A    between atoms: C_7  and  O_8
REMARK    6  A    between atoms: O_8  and  C_9
REMARK    7  A    between atoms: C_9  and  C_10
REMARK    8  A    between atoms: C_10  and  O_11
REMARK    9  A    between atoms: C_14  and  C_15
REMARK   10  A    between atoms: C_18  and  C_19
REMARK   11  A    between atoms: C_19  and  N_20
REMARK   12  A    between atoms: C_21  and  C_23
REMARK                            x       y       z     vdW  Elec       q    Type
REMARK                         _______ _______ _______ _____ _____    ______ ____
ROOT
ATOM      1  C   UNL     1      45.338   6.657  12.054  0.00  0.00    +0.000 A 
ATOM      2  C   UNL     1      46.648   6.267  11.788  0.00  0.00    +0.000 A 
ATOM      3  C   UNL     1      47.694   7.082  12.216  0.00  0.00    +0.000 A 
ATOM      4  C   UNL     1      47.416   8.265  12.903  0.00  0.00    +0.000 A 
ATOM      5  C   UNL     1      46.078   8.585  13.102  0.00  0.00    +0.000 A 
ATOM      6  N   UNL     1      45.042   7.813  12.702  0.00  0.00    +0.000 NA
ENDROOT
BRANCH   1   7
ATOM      7  C   UNL     1      44.167   5.791  11.619  0.00  0.00    +0.000 C 
BRANCH   7   9
ATOM      8  C   UNL     1      43.891   3.506  12.365  0.00  0.00    +0.000 C 
ATOM      9  N   UNL     1      44.497   4.368  11.341  0.00  0.00    +0.000 NA
BRANCH   9  10
ATOM     10  C   UNL     1      43.983   4.035   9.996  0.00  0.00    +0.000 C 
BRANCH  10  11
ATOM     11  C   UNL     1      44.989   3.386   9.067  0.00  0.00    +0.000 A 
ATOM     12  C   UNL     1      45.757   4.180   8.204  0.00  0.00    +0.000 A 
ATOM     13  C   UNL     1      46.718   3.606   7.365  0.00  0.00    +0.000 A 
ATOM     14  C   UNL     1      46.934   2.227   7.377  0.00  0.00    +0.000 A 
ATOM     15  C   UNL     1      46.164   1.430   8.229  0.00  0.00    +0.000 A 
ATOM     16  C   UNL     1      45.201   2.001   9.069  0.00  0.00    +0.000 A 
BRANCH  14  17
ATOM     17  O   UNL     1      47.855   1.556   6.616  0.00  0.00    +0.000 OA
BRANCH  17  18
ATOM     18  C   UNL     1      47.329   0.691   5.600  0.00  0.00    +0.000 C 
BRANCH  18  19
ATOM     19  C   UNL     1      47.264   1.462   4.284  0.00  0.00    +0.000 C 
BRANCH  19  20
ATOM     20  O   UNL     1      47.238   0.565   3.177  0.00  0.00    +0.000 OA
ATOM     21  H   UNL     1      46.297   0.364   3.017  0.00  0.00    +0.000 HD
ENDBRANCH  19  20
ENDBRANCH  18  19
ENDBRANCH  17  18
ENDBRANCH  14  17
ENDBRANCH  10  11
ENDBRANCH   9  10
ENDBRANCH   7   9
ENDBRANCH   1   7
BRANCH   4  22
ATOM     22  C   UNL     1      48.502   9.185  13.373  0.00  0.00    +0.000 C 
BRANCH  22  23
ATOM     23  N   UNL     1      48.171   9.775  14.645  0.00  0.00    +0.000 N 
ATOM     24  C   UNL     1      48.909   9.497  15.768  0.00  0.00    +0.000 C 
ATOM     25  O   UNL     1      49.899   8.769  15.729  0.00  0.00    +0.000 OA
ATOM     26  H   UNL     1      47.253  10.195  14.744  0.00  0.00    +0.000 HD
BRANCH  24  27
ATOM     27  C   UNL     1      48.494  10.161  17.009  0.00  0.00    +0.000 A 
ATOM     28  C   UNL     1      48.479  11.548  17.072  0.00  0.00    +0.000 A 
ATOM     29  S   UNL     1      47.916  12.160  18.561  0.00  0.00    +0.000 S 
ATOM     30  C   UNL     1      47.730  10.593  19.196  0.00  0.00    +0.000 A 
ATOM     31  N   UNL     1      47.295  10.403  20.471  0.00  0.00    +0.000 NA
ATOM     32  C   UNL     1      47.241   9.167  20.839  0.00  0.00    +0.000 A 
ATOM     33  N   UNL     1      47.572   8.101  20.042  0.00  0.00    +0.000 N 
ATOM     34  C   UNL     1      47.977   8.242  18.736  0.00  0.00    +0.000 A 
ATOM     35  O   UNL     1      48.216   7.266  18.031  0.00  0.00    +0.000 OA
ATOM     36  C   UNL     1      48.075   9.615  18.279  0.00  0.00    +0.000 A 
ATOM     37  H   UNL     1      47.498   7.155  20.388  0.00  0.00    +0.000 HD
ENDBRANCH  24  27
ENDBRANCH  22  23
ENDBRANCH   4  22
TORSDOF 11
ENDMDL
MODEL 5
REMARK VINA RESULT:    -6.591      4.345      9.578
REMARK INTER + INTRA:         -11.943
REMARK INTER:                 -10.428
REMARK INTRA:                  -1.515
REMARK UNBOUND:                -1.306
REMARK  Name = 
REMARK  12 active torsions:
REMARK  status: ('A' for Active; 'I' for Inactive)
REMARK    1  A    between atoms: C_1  and  N_2
REMARK    2  A    between atoms: N_2  and  C_3
REMARK    3  A    between atoms: N_2  and  C_14
REMARK    4  A    between atoms: C_3  and  C_4
REMARK    5  A    between atoms: C_7  and  O_8
REMARK    6  A    between atoms: O_8  and  C_9
REMARK    7  A    between atoms: C_9  and  C_10
REMARK    8  A    between atoms: C_10  and  O_11
REMARK    9  A    between atoms: C_14  and  C_15
REMARK   10  A    between atoms: C_18  and  C_19
REMARK   11  A    between atoms: C_19  and  N_20
REMARK   12  A    between atoms: C_21  and  C_23
REMARK                            x       y       z     vdW  Elec       q    Type
REMARK                         _______ _______ _______ _____ _____    ______ ____
ROOT
ATOM      1  C   UNL     1      49.170   9.641  18.107  0.00  0.00    +0.000 A 
ATOM      2  C   UNL     1      48.251   9.798  17.072  0.00  0.00    +0.000 A 
ATOM      3  C   UNL     1      48.460   9.112  15.876  0.00  0.00    +0.000 A 
ATOM      4  C   UNL     1      49.575   8.283  15.737  0.00  0.00    +0.000 A 
ATOM      5  C   UNL     1      50.449   8.208  16.814  0.00  0.00    +0.000 A 
ATOM      6  N   UNL     1      50.271   8.857  17.987  0.00  0.00    +0.000 NA
ENDROOT
BRANCH   1   7
ATOM      7  C   UNL     1      48.973  10.357  19.433  0.00  0.00    +0.000 C 
BRANCH   7   9
ATOM      8  C   UNL     1      49.086  10.318  21.849  0.00  0.00    +0.000 C 
ATOM      9  N   UNL     1      49.017   9.488  20.638  0.00  0.00    +0.000 NA
BRANCH   9  10
ATOM     10  C   UNL     1      47.802   8.648  20.641  0.00  0.00    +0.000 C 
BRANCH  10  11
ATOM     11  C   UNL     1      48.008   7.218  20.186  0.00  0.00    +0.000 A 
ATOM     12  C   UNL     1      48.818   6.354  20.938  0.00  0.00    +0.000 A 
ATOM     13  C   UNL     1      48.991   5.020  20.557  0.00  0.00    +0.000 A 
ATOM     14  C   UNL     1      48.354   4.520  19.420  0.00  0.00    +0.000 A 
ATOM     15  C   UNL     1      47.554   5.379  18.662  0.00  0.00    +0.000 A 
ATOM     16  C   UNL     1      47.378   6.716  19.040  0.00  0.00    +0.000 A 
BRANCH  14  17
ATOM     17  O   UNL     1      48.435   3.232  18.960  0.00  0.00    +0.000 OA
BRANCH  17  18
ATOM     18  C   UNL     1      48.410   3.064  17.536  0.00  0.00    +0.000 C 
BRANCH  18  19
ATOM     19  C   UNL     1      49.755   2.501  17.084  0.00  0.00    +0.000 C 
BRANCH  19  20
ATOM     20  O   UNL     1      49.587   1.633  15.967  0.00  0.00    +0.000 OA
ATOM     21  H   UNL     1      48.658   1.735  15.686  0.00  0.00    +0.000 HD
ENDBRANCH  19  20
ENDBRANCH  18  19
ENDBRANCH  17  18
ENDBRANCH  14  17
ENDBRANCH  10  11
ENDBRANCH   9  10
ENDBRANCH   7   9
ENDBRANCH   1   7
BRANCH   4  22
ATOM     22  C   UNL     1      49.854   7.534  14.469  0.00  0.00    +0.000 C 
BRANCH  22  23
ATOM     23  N   UNL     1      48.645   7.312  13.717  0.00  0.00    +0.000 N 
ATOM     24  C   UNL     1      47.840   6.232  13.973  0.00  0.00    +0.000 C 
ATOM     25  O   UNL     1      48.092   5.435  14.874  0.00  0.00    +0.000 OA
ATOM     26  H   UNL     1      48.532   7.822  12.847  0.00  0.00    +0.000 HD
BRANCH  24  27
ATOM     27  C   UNL     1      46.626   6.107  13.159  0.00  0.00    +0.000 A 
ATOM     28  C   UNL     1      46.013   7.251  12.664  0.00  0.00    +0.000 A 
ATOM     29  S   UNL     1      44.651   6.930  11.688  0.00  0.00    +0.000 S 
ATOM     30  C   UNL     1      44.796   5.255  11.942  0.00  0.00    +0.000 A 
ATOM     31  N   UNL     1      43.906   4.384  11.393  0.00  0.00    +0.000 NA
ATOM     32  C   UNL     1      44.108   3.147  11.701  0.00  0.00    +0.000 A 
ATOM     33  N   UNL     1      45.127   2.699  12.501  0.00  0.00    +0.000 N 
ATOM     34  C   UNL     1      46.073   3.536  13.044  0.00  0.00    +0.000 A 
ATOM     35  O   UNL     1      47.005   3.099  13.714  0.00  0.00    +0.000 OA
ATOM     36  C   UNL     1      45.879   4.942  12.746  0.00  0.00    +0.000 A 
ATOM     37  H   UNL     1      45.236   1.715  12.697  0.00  0.00    +0.000 HD
ENDBRANCH  24  27
ENDBRANCH  22  23
ENDBRANCH   4  22
TORSDOF 11
ENDMDL
MODEL 6
REMARK VINA RESULT:    -6.393      3.889      9.762
REMARK INTER + INTRA:         -11.623
REMARK INTER:                 -10.061
REMARK INTRA:                  -1.562
REMARK UNBOUND:                -1.306
REMARK  Name = 
REMARK  12 active torsions:
REMARK  status: ('A' for Active; 'I' for Inactive)
REMARK    1  A    between atoms: C_1  and  N_2
REMARK    2  A    between atoms: N_2  and  C_3
REMARK    3  A    between atoms: N_2  and  C_14
REMARK    4  A    between atoms: C_3  and  C_4
REMARK    5  A    between atoms: C_7  and  O_8
REMARK    6  A    between atoms: O_8  and  C_9
REMARK    7  A    between atoms: C_9  and  C_10
REMARK    8  A    between atoms: C_10  and  O_11
REMARK    9  A    between atoms: C_14  and  C_15
REMARK   10  A    between atoms: C_18  and  C_19
REMARK   11  A    between atoms: C_19  and  N_20
REMARK   12  A    between atoms: C_21  and  C_23
REMARK                            x       y       z     vdW  Elec       q    Type
REMARK                         _______ _______ _______ _____ _____    ______ ____
ROOT
ATOM      1  C   UNL     1      50.503   8.919  12.860  0.00  0.00    +0.000 A 
ATOM      2  C   UNL     1      50.021   7.691  12.413  0.00  0.00    +0.000 A 
ATOM      3  C   UNL     1      48.646   7.518  12.271  0.00  0.00    +0.000 A 
ATOM      4  C   UNL     1      47.779   8.570  12.572  0.00  0.00    +0.000 A 
ATOM      5  C   UNL     1      48.349   9.750  13.034  0.00  0.00    +0.000 A 
ATOM      6  N   UNL     1      49.679   9.949  13.179  0.00  0.00    +0.000 NA
ENDROOT
BRANCH   1   7
ATOM      7  C   UNL     1      51.996   9.156  13.015  0.00  0.00    +0.000 C 
BRANCH   7   9
ATOM      8  C   UNL     1      54.158   8.159  13.442  0.00  0.00    +0.000 C 
ATOM      9  N   UNL     1      52.729   8.116  13.784  0.00  0.00    +0.000 NA
BRANCH   9  10
ATOM     10  C   UNL     1      52.521   8.379  15.223  0.00  0.00    +0.000 C 
BRANCH  10  11
ATOM     11  C   UNL     1      51.900   7.238  16.001  0.00  0.00    +0.000 A 
ATOM     12  C   UNL     1      52.720   6.311  16.660  0.00  0.00    +0.000 A 
ATOM     13  C   UNL     1      52.167   5.272  17.415  0.00  0.00    +0.000 A 
ATOM     14  C   UNL     1      50.782   5.141  17.531  0.00  0.00    +0.000 A 
ATOM     15  C   UNL     1      49.959   6.056  16.868  0.00  0.00    +0.000 A 
ATOM     16  C   UNL     1      50.510   7.098  16.111  0.00  0.00    +0.000 A 
BRANCH  14  17
ATOM     17  O   UNL     1      50.128   4.178  18.254  0.00  0.00    +0.000 OA
BRANCH  17  18
ATOM     18  C   UNL     1      49.269   3.302  17.512  0.00  0.00    +0.000 C 
BRANCH  18  19
ATOM     19  C   UNL     1      50.097   2.135  16.980  0.00  0.00    +0.000 C 
BRANCH  19  20
ATOM     20  O   UNL     1      49.474   1.558  15.836  0.00  0.00    +0.000 OA
ATOM     21  H   UNL     1      50.068   0.842  15.541  0.00  0.00    +0.000 HD
ENDBRANCH  19  20
ENDBRANCH  18  19
ENDBRANCH  17  18
ENDBRANCH  14  17
ENDBRANCH  10  11
ENDBRANCH   9  10
ENDBRANCH   7   9
ENDBRANCH   1   7
BRANCH   4  22
ATOM     22  C   UNL     1      46.291   8.433  12.451  0.00  0.00    +0.000 C 
BRANCH  22  23
ATOM     23  N   UNL     1      45.910   7.061  12.234  0.00  0.00    +0.000 N 
ATOM     24  C   UNL     1      44.730   6.743  11.610  0.00  0.00    +0.000 C 
ATOM     25  O   UNL     1      43.972   7.609  11.178  0.00  0.00    +0.000 OA
ATOM     26  H   UNL     1      46.402   6.347  12.762  0.00  0.00    +0.000 HD
BRANCH  24  27
ATOM     27  C   UNL     1      44.445   5.315  11.428  0.00  0.00    +0.000 A 
ATOM     28  C   UNL     1      43.762   4.621  12.419  0.00  0.00    +0.000 A 
ATOM     29  S   UNL     1      43.459   2.990  12.025  0.00  0.00    +0.000 S 
ATOM     30  C   UNL     1      44.282   3.136  10.544  0.00  0.00    +0.000 A 
ATOM     31  N   UNL     1      44.416   2.070   9.710  0.00  0.00    +0.000 NA
ATOM     32  C   UNL     1      45.099   2.309   8.642  0.00  0.00    +0.000 A 
ATOM     33  N   UNL     1      45.653   3.524   8.326  0.00  0.00    +0.000 N 
ATOM     34  C   UNL     1      45.509   4.639   9.117  0.00  0.00    +0.000 A 
ATOM     35  O   UNL     1      45.972   5.725   8.782  0.00  0.00    +0.000 OA
ATOM     36  C   UNL     1      44.766   4.418  10.343  0.00  0.00    +0.000 A 
ATOM     37  H   UNL     1      46.169   3.648   7.467  0.00  0.00    +0.000 HD
ENDBRANCH  24  27
ENDBRANCH  22  23
ENDBRANCH   4  22
TORSDOF 11
ENDMDL
MODEL 7
REMARK VINA RESULT:    -6.370      1.998      2.652
REMARK INTER + INTRA:         -11.586
REMARK INTER:                 -10.466
REMARK INTRA:                  -1.120
REMARK UNBOUND:                -1.306
REMARK  Name = 
REMARK  12 active torsions:
REMARK  status: ('A' for Active; 'I' for Inactive)
REMARK    1  A    between atoms: C_1  and  N_2
REMARK    2  A    between atoms: N_2  and  C_3
REMARK    3  A    between atoms: N_2  and  C_14
REMARK    4  A    between atoms: C_3  and  C_4
REMARK    5  A    between atoms: C_7  and  O_8
REMARK    6  A    between atoms: O_8  and  C_9
REMARK    7  A    between atoms: C_9  and  C_10
REMARK    8  A    between atoms: C_10  and  O_11
REMARK    9  A    between atoms: C_14  and  C_15
REMARK   10  A    between atoms: C_18  and  C_19
REMARK   11  A    between atoms: C_19  and  N_20
REMARK   12  A    between atoms: C_21  and  C_23
REMARK                            x       y       z     vdW  Elec       q    Type
REMARK                         _______ _______ _______ _____ _____    ______ ____
ROOT
ATOM      1  C   UNL     1      46.025   6.907  12.581  0.00  0.00    +0.000 A 
ATOM      2  C   UNL     1      46.261   8.120  13.223  0.00  0.00    +0.000 A 
ATOM      3  C   UNL     1      47.490   8.326  13.847  0.00  0.00    +0.000 A 
ATOM      4  C   UNL     1      48.461   7.322  13.815  0.00  0.00    +0.000 A 
ATOM      5  C   UNL     1      48.128   6.136  13.173  0.00  0.00    +0.000 A 
ATOM      6  N   UNL     1      46.946   5.909  12.556  0.00  0.00    +0.000 NA
ENDROOT
BRANCH   1   7
ATOM      7  C   UNL     1      44.705   6.646  11.875  0.00  0.00    +0.000 C 
BRANCH   7   9
ATOM      8  C   UNL     1      43.269   5.131  13.097  0.00  0.00    +0.000 C 
ATOM      9  N   UNL     1      44.200   5.250  11.966  0.00  0.00    +0.000 NA
BRANCH   9  10
ATOM     10  C   UNL     1      43.529   4.923  10.692  0.00  0.00    +0.000 C 
BRANCH  10  11
ATOM     11  C   UNL     1      44.357   4.105   9.722  0.00  0.00    +0.000 A 
ATOM     12  C   UNL     1      45.202   4.748   8.807  0.00  0.00    +0.000 A 
ATOM     13  C   UNL     1      46.004   4.012   7.929  0.00  0.00    +0.000 A 
ATOM     14  C   UNL     1      45.980   2.616   7.951  0.00  0.00    +0.000 A 
ATOM     15  C   UNL     1      45.132   1.970   8.855  0.00  0.00    +0.000 A 
ATOM     16  C   UNL     1      44.328   2.704   9.735  0.00  0.00    +0.000 A 
BRANCH  14  17
ATOM     17  O   UNL     1      46.730   1.793   7.154  0.00  0.00    +0.000 OA
BRANCH  17  18
ATOM     18  C   UNL     1      46.923   2.224   5.800  0.00  0.00    +0.000 C 
BRANCH  18  19
ATOM     19  C   UNL     1      47.835   1.226   5.092  0.00  0.00    +0.000 C 
BRANCH  19  20
ATOM     20  O   UNL     1      47.233   0.762   3.886  0.00  0.00    +0.000 OA
ATOM     21  H   UNL     1      47.564  -0.146   3.754  0.00  0.00    +0.000 HD
ENDBRANCH  19  20
ENDBRANCH  18  19
ENDBRANCH  17  18
ENDBRANCH  14  17
ENDBRANCH  10  11
ENDBRANCH   9  10
ENDBRANCH   7   9
ENDBRANCH   1   7
BRANCH   4  22
ATOM     22  C   UNL     1      49.793   7.485  14.482  0.00  0.00    +0.000 C 
BRANCH  22  23
ATOM     23  N   UNL     1      49.648   7.634  15.908  0.00  0.00    +0.000 N 
ATOM     24  C   UNL     1      49.413   6.549  16.713  0.00  0.00    +0.000 C 
ATOM     25  O   UNL     1      49.356   5.407  16.262  0.00  0.00    +0.000 OA
ATOM     26  H   UNL     1      49.479   8.567  16.268  0.00  0.00    +0.000 HD
BRANCH  24  27
ATOM     27  C   UNL     1      49.295   6.810  18.152  0.00  0.00    +0.000 A 
ATOM     28  C   UNL     1      49.878   5.934  19.058  0.00  0.00    +0.000 A 
ATOM     29  S   UNL     1      49.702   6.413  20.685  0.00  0.00    +0.000 S 
ATOM     30  C   UNL     1      48.787   7.777  20.241  0.00  0.00    +0.000 A 
ATOM     31  N   UNL     1      48.289   8.622  21.183  0.00  0.00    +0.000 NA
ATOM     32  C   UNL     1      47.578   9.590  20.712  0.00  0.00    +0.000 A 
ATOM     33  N   UNL     1      47.328   9.797  19.379  0.00  0.00    +0.000 N 
ATOM     34  C   UNL     1      47.843   8.993  18.389  0.00  0.00    +0.000 A 
ATOM     35  O   UNL     1      47.645   9.234  17.202  0.00  0.00    +0.000 OA
ATOM     36  C   UNL     1      48.633   7.875  18.869  0.00  0.00    +0.000 A 
ATOM     37  H   UNL     1      46.770  10.580  19.074  0.00  0.00    +0.000 HD
ENDBRANCH  24  27
ENDBRANCH  22  23
ENDBRANCH   4  22
TORSDOF 11
ENDMDL
MODEL 8
REMARK VINA RESULT:    -6.282      3.708      9.984
REMARK INTER + INTRA:         -11.445
REMARK INTER:                 -10.038
REMARK INTRA:                  -1.407
REMARK UNBOUND:                -1.306
REMARK  Name = 
REMARK  12 active torsions:
REMARK  status: ('A' for Active; 'I' for Inactive)
REMARK    1  A    between atoms: C_1  and  N_2
REMARK    2  A    between atoms: N_2  and  C_3
REMARK    3  A    between atoms: N_2  and  C_14
REMARK    4  A    between atoms: C_3  and  C_4
REMARK    5  A    between atoms: C_7  and  O_8
REMARK    6  A    between atoms: O_8  and  C_9
REMARK    7  A    between atoms: C_9  and  C_10
REMARK    8  A    between atoms: C_10  and  O_11
REMARK    9  A    between atoms: C_14  and  C_15
REMARK   10  A    between atoms: C_18  and  C_19
REMARK   11  A    between atoms: C_19  and  N_20
REMARK   12  A    between atoms: C_21  and  C_23
REMARK                            x       y       z     vdW  Elec       q    Type
REMARK                         _______ _______ _______ _____ _____    ______ ____
ROOT
ATOM      1  C   UNL     1      51.406   8.142  14.455  0.00  0.00    +0.000 A 
ATOM      2  C   UNL     1      50.219   7.523  14.841  0.00  0.00    +0.000 A 
ATOM      3  C   UNL     1      49.143   7.518  13.956  0.00  0.00    +0.000 A 
ATOM      4  C   UNL     1      49.270   8.124  12.704  0.00  0.00    +0.000 A 
ATOM      5  C   UNL     1      50.483   8.737  12.416  0.00  0.00    +0.000 A 
ATOM      6  N   UNL     1      51.546   8.756  13.252  0.00  0.00    +0.000 NA
ENDROOT
BRANCH   1   7
ATOM      7  C   UNL     1      52.610   8.158  15.382  0.00  0.00    +0.000 C 
BRANCH   7   9
ATOM      8  C   UNL     1      54.669   6.971  14.934  0.00  0.00    +0.000 C 
ATOM      9  N   UNL     1      53.325   6.862  15.518  0.00  0.00    +0.000 NA
BRANCH   9  10
ATOM     10  C   UNL     1      53.398   6.529  16.955  0.00  0.00    +0.000 C 
BRANCH  10  11
ATOM     11  C   UNL     1      52.110   6.011  17.560  0.00  0.00    +0.000 A 
ATOM     12  C   UNL     1      51.297   6.867  18.318  0.00  0.00    +0.000 A 
ATOM     13  C   UNL     1      50.086   6.420  18.853  0.00  0.00    +0.000 A 
ATOM     14  C   UNL     1      49.658   5.108  18.638  0.00  0.00    +0.000 A 
ATOM     15  C   UNL     1      50.468   4.248  17.892  0.00  0.00    +0.000 A 
ATOM     16  C   UNL     1      51.682   4.692  17.355  0.00  0.00    +0.000 A 
BRANCH  14  17
ATOM     17  O   UNL     1      48.487   4.565  19.096  0.00  0.00    +0.000 OA
BRANCH  17  18
ATOM     18  C   UNL     1      47.297   4.929  18.382  0.00  0.00    +0.000 C 
BRANCH  18  19
ATOM     19  C   UNL     1      47.117   3.971  17.208  0.00  0.00    +0.000 C 
BRANCH  19  20
ATOM     20  O   UNL     1      46.456   2.780  17.627  0.00  0.00    +0.000 OA
ATOM     21  H   UNL     1      45.642   2.723  17.092  0.00  0.00    +0.000 HD
ENDBRANCH  19  20
ENDBRANCH  18  19
ENDBRANCH  17  18
ENDBRANCH  14  17
ENDBRANCH  10  11
ENDBRANCH   9  10
ENDBRANCH   7   9
ENDBRANCH   1   7
BRANCH   4  22
ATOM     22  C   UNL     1      48.139   8.160  11.721  0.00  0.00    +0.000 C 
BRANCH  22  23
ATOM     23  N   UNL     1      47.348   6.957  11.792  0.00  0.00    +0.000 N 
ATOM     24  C   UNL     1      45.986   6.995  11.631  0.00  0.00    +0.000 C 
ATOM     25  O   UNL     1      45.392   8.042  11.382  0.00  0.00    +0.000 OA
ATOM     26  H   UNL     1      47.779   6.135  12.202  0.00  0.00    +0.000 HD
BRANCH  24  27
ATOM     27  C   UNL     1      45.278   5.712  11.709  0.00  0.00    +0.000 A 
ATOM     28  C   UNL     1      44.700   5.321  12.909  0.00  0.00    +0.000 A 
ATOM     29  S   UNL     1      43.865   3.837  12.815  0.00  0.00    +0.000 S 
ATOM     30  C   UNL     1      44.298   3.634  11.183  0.00  0.00    +0.000 A 
ATOM     31  N   UNL     1      43.917   2.527  10.490  0.00  0.00    +0.000 NA
ATOM     32  C   UNL     1      44.350   2.481   9.275  0.00  0.00    +0.000 A 
ATOM     33  N   UNL     1      45.122   3.448   8.685  0.00  0.00    +0.000 N 
ATOM     34  C   UNL     1      45.498   4.601   9.332  0.00  0.00    +0.000 A 
ATOM     35  O   UNL     1      46.146   5.473   8.761  0.00  0.00    +0.000 OA
ATOM     36  C   UNL     1      45.055   4.693  10.710  0.00  0.00    +0.000 A 
ATOM     37  H   UNL     1      45.421   3.356   7.725  0.00  0.00    +0.000 HD
ENDBRANCH  24  27
ENDBRANCH  22  23
ENDBRANCH   4  22
TORSDOF 11
ENDMDL
MODEL 9
REMARK VINA RESULT:    -6.101      2.641      4.163
REMARK INTER + INTRA:         -11.152
REMARK INTER:                 -10.332
REMARK INTRA:                  -0.819
REMARK UNBOUND:                -1.306
REMARK  Name = 
REMARK  12 active torsions:
REMARK  status: ('A' for Active; 'I' for Inactive)
REMARK    1  A    between atoms: C_1  and  N_2
REMARK    2  A    between atoms: N_2  and  C_3
REMARK    3  A    between atoms: N_2  and  C_14
REMARK    4  A    between atoms: C_3  and  C_4
REMARK    5  A    between atoms: C_7  and  O_8
REMARK    6  A    between atoms: O_8  and  C_9
REMARK    7  A    between atoms: C_9  and  C_10
REMARK    8  A    between atoms: C_10  and  O_11
REMARK    9  A    between atoms: C_14  and  C_15
REMARK   10  A    between atoms: C_18  and  C_19
REMARK   11  A    between atoms: C_19  and  N_20
REMARK   12  A    between atoms: C_21  and  C_23
REMARK                            x       y       z     vdW  Elec       q    Type
REMARK                         _______ _______ _______ _____ _____    ______ ____
ROOT
ATOM      1  C   UNL     1      47.199   4.358  14.671  0.00  0.00    +0.000 A 
ATOM      2  C   UNL     1      47.349   5.323  15.665  0.00  0.00    +0.000 A 
ATOM      3  C   UNL     1      47.867   4.942  16.902  0.00  0.00    +0.000 A 
ATOM      4  C   UNL     1      48.228   3.612  17.123  0.00  0.00    +0.000 A 
ATOM      5  C   UNL     1      48.020   2.715  16.083  0.00  0.00    +0.000 A 
ATOM      6  N   UNL     1      47.524   3.055  14.871  0.00  0.00    +0.000 NA
ENDROOT
BRANCH   1   7
ATOM      7  C   UNL     1      46.653   4.731  13.303  0.00  0.00    +0.000 C 
BRANCH   7   9
ATOM      8  C   UNL     1      46.552   7.069  12.688  0.00  0.00    +0.000 C 
ATOM      9  N   UNL     1      45.800   5.948  13.270  0.00  0.00    +0.000 NA
BRANCH   9  10
ATOM     10  C   UNL     1      44.600   5.642  12.464  0.00  0.00    +0.000 C 
BRANCH  10  11
ATOM     11  C   UNL     1      44.862   4.866  11.190  0.00  0.00    +0.000 A 
ATOM     12  C   UNL     1      44.594   3.490  11.140  0.00  0.00    +0.000 A 
ATOM     13  C   UNL     1      44.793   2.762   9.963  0.00  0.00    +0.000 A 
ATOM     14  C   UNL     1      45.260   3.395   8.810  0.00  0.00    +0.000 A 
ATOM     15  C   UNL     1      45.538   4.764   8.856  0.00  0.00    +0.000 A 
ATOM     16  C   UNL     1      45.340   5.496  10.033  0.00  0.00    +0.000 A 
BRANCH  14  17
ATOM     17  O   UNL     1      45.476   2.791   7.599  0.00  0.00    +0.000 OA
BRANCH  17  18
ATOM     18  C   UNL     1      46.635   3.222   6.873  0.00  0.00    +0.000 C 
BRANCH  18  19
ATOM     19  C   UNL     1      47.704   2.138   6.965  0.00  0.00    +0.000 C 
BRANCH  19  20
ATOM     20  O   UNL     1      48.908   2.564   6.333  0.00  0.00    +0.000 OA
ATOM     21  H   UNL     1      48.637   3.194   5.639  0.00  0.00    +0.000 HD
ENDBRANCH  19  20
ENDBRANCH  18  19
ENDBRANCH  17  18
ENDBRANCH  14  17
ENDBRANCH  10  11
ENDBRANCH   9  10
ENDBRANCH   7   9
ENDBRANCH   1   7
BRANCH   4  22
ATOM     22  C   UNL     1      48.776   3.146  18.439  0.00  0.00    +0.000 C 
BRANCH  22  23
ATOM     23  N   UNL     1      50.145   3.563  18.611  0.00  0.00    +0.000 N 
ATOM     24  C   UNL     1      50.477   4.554  19.500  0.00  0.00    +0.000 C 
ATOM     25  O   UNL     1      49.634   5.096  20.210  0.00  0.00    +0.000 OA
ATOM     26  H   UNL     1      50.812   3.290  17.897  0.00  0.00    +0.000 HD
BRANCH  24  27
ATOM     27  C   UNL     1      51.901   4.892  19.606  0.00  0.00    +0.000 A 
ATOM     28  C   UNL     1      52.535   4.806  20.839  0.00  0.00    +0.000 A 
ATOM     29  S   UNL     1      54.200   5.173  20.779  0.00  0.00    +0.000 S 
ATOM     30  C   UNL     1      54.119   5.519  19.116  0.00  0.00    +0.000 A 
ATOM     31  N   UNL     1      55.221   5.930  18.432  0.00  0.00    +0.000 NA
ATOM     32  C   UNL     1      55.011   6.199  17.188  0.00  0.00    +0.000 A 
ATOM     33  N   UNL     1      53.796   6.085  16.560  0.00  0.00    +0.000 N 
ATOM     34  C   UNL     1      52.665   5.637  17.199  0.00  0.00    +0.000 A 
ATOM     35  O   UNL     1      51.604   5.495  16.598  0.00  0.00    +0.000 OA
ATOM     36  C   UNL     1      52.843   5.340  18.608  0.00  0.00    +0.000 A 
ATOM     37  H   UNL     1      53.700   6.303  15.580  0.00  0.00    +0.000 HD
ENDBRANCH  24  27
ENDBRANCH  22  23
ENDBRANCH   4  22
TORSDOF 11
ENDMDL
