MODEL 1
REMARK VINA RESULT:    -8.410      0.000      0.000
REMARK INTER + INTRA:         -11.786
REMARK INTER:                 -10.868
REMARK INTRA:                  -0.918
REMARK UNBOUND:                -0.918
REMARK  Name = 
REMARK  5 active torsions:
REMARK  status: ('A' for Active; 'I' for Inactive)
REMARK    1  A    between atoms: C_2  and  C_19
REMARK    2  A    between atoms: N_3  and  C_4
REMARK    3  A    between atoms: C_4  and  C_5
REMARK    4  A    between atoms: C_8  and  C_9
REMARK    5  A    between atoms: C_9  and  N_10
REMARK                            x       y       z     vdW  Elec       q    Type
REMARK                         _______ _______ _______ _____ _____    ______ ____
ROOT
ATOM      1  C   UNL     1      44.244   3.927   9.915  0.00  0.00    +0.000 C 
ENDROOT
BRANCH   1   2
ATOM      2  C   UNL     1      45.152   3.297   8.890  0.00  0.00    +0.000 A 
ATOM      3  C   UNL     1      45.718   4.080   7.876  0.00  0.00    +0.000 A 
ATOM      4  C   UNL     1      46.552   3.505   6.915  0.00  0.00    +0.000 A 
ATOM      5  C   UNL     1      46.821   2.130   6.934  0.00  0.00    +0.000 A 
ATOM      6  C   UNL     1      46.253   1.345   7.948  0.00  0.00    +0.000 A 
ATOM      7  C   UNL     1      45.418   1.921   8.910  0.00  0.00    +0.000 A 
BRANCH   5   8
ATOM      8  C   UNL     1      47.698   1.505   5.873  0.00  0.00    +0.000 C 
BRANCH   8   9
ATOM      9  N   UNL     1      47.087   1.675   4.560  0.00  0.00    +0.000 N 
ATOM     10  C   UNL     1      46.746   0.453   3.943  0.00  0.00    +0.000 A 
ATOM     11  C   UNL     1      46.171   0.487   2.679  0.00  0.00    +0.000 A 
ATOM     12  C   UNL     1      45.819  -0.704   2.048  0.00  0.00    +0.000 A 
ATOM     13  C   UNL     1      46.055  -1.887   2.716  0.00  0.00    +0.000 A 
ATOM     14  N   UNL     1      46.597  -1.916   3.945  0.00  0.00    +0.000 NA
ATOM     15  N   UNL     1      46.931  -0.734   4.560  0.00  0.00    +0.000 NA
ATOM     16  H   UNL     1      47.678   2.215   3.935  0.00  0.00    +0.000 HD
ENDBRANCH   8   9
ENDBRANCH   5   8
ENDBRANCH   1   2
BRANCH   1  19
ATOM     17  O   UNL     1      42.864   5.939  11.323  0.00  0.00    +0.000 OA
ATOM     18  C   UNL     1      44.077   6.051  11.160  0.00  0.00    +0.000 C 
ATOM     19  N   UNL     1      44.809   5.147  10.436  0.00  0.00    +0.000 N 
ATOM     20  H   UNL     1      45.821   5.181  10.484  0.00  0.00    +0.000 HD
BRANCH  18  21
ATOM     21  C   UNL     1      44.813   7.206  11.688  0.00  0.00    +0.000 A 
ATOM     22  C   UNL     1      44.430   8.492  11.330  0.00  0.00    +0.000 A 
ATOM     23  S   UNL     1      45.411   9.712  12.008  0.00  0.00    +0.000 S 
ATOM     24  C   UNL     1      46.350   8.568  12.848  0.00  0.00    +0.000 A 
ATOM     25  N   UNL     1      47.369   8.957  13.660  0.00  0.00    +0.000 NA
ATOM     26  C   UNL     1      47.958   7.990  14.278  0.00  0.00    +0.000 A 
ATOM     27  N   UNL     1      47.631   6.667  14.150  0.00  0.00    +0.000 N 
ATOM     28  C   UNL     1      46.671   6.220  13.272  0.00  0.00    +0.000 A 
ATOM     29  O   UNL     1      46.508   5.021  13.070  0.00  0.00    +0.000 OA
ATOM     30  C   UNL     1      45.939   7.271  12.594  0.00  0.00    +0.000 A 
ATOM     31  H   UNL     1      48.152   5.954  14.638  0.00  0.00    +0.000 HD
ENDBRANCH  18  21
ENDBRANCH   1  19
TORSDOF 5
ENDMDL
MODEL 2
REMARK VINA RESULT:    -8.341      3.280      5.577
REMARK INTER + INTRA:         -11.696
REMARK INTER:                 -10.606
REMARK INTRA:                  -1.091
REMARK UNBOUND:                -0.918
REMARK  Name = 
REMARK  5 active torsions:
REMARK  status: ('A' for Active; 'I' for Inactive)
REMARK    1  A    between atoms: C_2  and  C_19
REMARK    2  A    between atoms: N_3  and  C_4
REMARK    3  A    between atoms: C_4  and  C_5
REMARK    4  A    between atoms: C_8  and  C_9
REMARK    5  A    between atoms: C_9  and  N_10
REMARK                            x       y       z     vdW  Elec       q    Type
REMARK                         _______ _______ _______ _____ _____    ______ ____
ROOT
ATOM      1  C   UNL     1      46.688   7.782  13.232  0.00  0.00    +0.000 C 
ENDROOT
BRANCH   1   2
ATOM      2  C   UNL     1      46.062   6.823  12.252  0.00  0.00    +0.000 A 
ATOM      3  C   UNL     1      44.963   6.045  12.635  0.00  0.00    +0.000 A 
ATOM      4  C   UNL     1      44.381   5.145  11.738  0.00  0.00    +0.000 A 
ATOM      5  C   UNL     1      44.900   4.988  10.446  0.00  0.00    +0.000 A 
ATOM      6  C   UNL     1      46.003   5.766  10.063  0.00  0.00    +0.000 A 
ATOM      7  C   UNL     1      46.585   6.666  10.961  0.00  0.00    +0.000 A 
BRANCH   5   8
ATOM      8  C   UNL     1      44.289   3.991   9.489  0.00  0.00    +0.000 C 
BRANCH   8   9
ATOM      9  N   UNL     1      44.871   4.156   8.161  0.00  0.00    +0.000 N 
ATOM     10  C   UNL     1      45.664   3.061   7.762  0.00  0.00    +0.000 A 
ATOM     11  C   UNL     1      46.286   3.111   6.521  0.00  0.00    +0.000 A 
ATOM     12  C   UNL     1      47.071   2.040   6.098  0.00  0.00    +0.000 A 
ATOM     13  C   UNL     1      47.197   0.956   6.940  0.00  0.00    +0.000 A 
ATOM     14  N   UNL     1      46.582   0.903   8.132  0.00  0.00    +0.000 NA
ATOM     15  N   UNL     1      45.803   1.961   8.534  0.00  0.00    +0.000 NA
ATOM     16  H   UNL     1      45.416   5.010   8.092  0.00  0.00    +0.000 HD
ENDBRANCH   8   9
ENDBRANCH   5   8
ENDBRANCH   1   2
BRANCH   1  19
ATOM     17  O   UNL     1      49.333   6.853  13.512  0.00  0.00    +0.000 OA
ATOM     18  C   UNL     1      48.551   6.716  14.450  0.00  0.00    +0.000 C 
ATOM     19  N   UNL     1      47.233   7.086  14.370  0.00  0.00    +0.000 N 
ATOM     20  H   UNL     1      46.680   7.124  15.219  0.00  0.00    +0.000 HD
BRANCH  18  21
ATOM     21  C   UNL     1      48.971   6.085  15.707  0.00  0.00    +0.000 A 
ATOM     22  C   UNL     1      50.047   6.604  16.415  0.00  0.00    +0.000 A 
ATOM     23  S   UNL     1      50.418   5.732  17.833  0.00  0.00    +0.000 S 
ATOM     24  C   UNL     1      49.120   4.660  17.580  0.00  0.00    +0.000 A 
ATOM     25  N   UNL     1      48.852   3.662  18.465  0.00  0.00    +0.000 NA
ATOM     26  C   UNL     1      47.808   2.962  18.179  0.00  0.00    +0.000 A 
ATOM     27  N   UNL     1      47.012   3.159  17.082  0.00  0.00    +0.000 N 
ATOM     28  C   UNL     1      47.297   4.093  16.114  0.00  0.00    +0.000 A 
ATOM     29  O   UNL     1      46.653   4.140  15.071  0.00  0.00    +0.000 OA
ATOM     30  C   UNL     1      48.430   4.946  16.415  0.00  0.00    +0.000 A 
ATOM     31  H   UNL     1      46.224   2.555  16.897  0.00  0.00    +0.000 HD
ENDBRANCH  18  21
ENDBRANCH   1  19
TORSDOF 5
ENDMDL
MODEL 3
REMARK VINA RESULT:    -7.829      4.126      6.238
REMARK INTER + INTRA:         -11.035
REMARK INTER:                 -10.307
REMARK INTRA:                  -0.728
REMARK UNBOUND:                -0.918
REMARK  Name = 
REMARK  5 active torsions:
REMARK  status: ('A' for Active; 'I' for Inactive)
REMARK    1  A    between atoms: C_2  and  C_19
REMARK    2  A    between atoms: N_3  and  C_4
REMARK    3  A    between atoms: C_4  and  C_5
REMARK    4  A    between atoms: C_8  and  C_9
REMARK    5  A    between atoms: C_9  and  N_10
REMARK                            x       y       z     vdW  Elec       q    Type
REMARK                         _______ _______ _______ _____ _____    ______ ____
ROOT
ATOM      1  C   UNL     1      47.524   6.719  13.704  0.00  0.00    +0.000 C 
ENDROOT
BRANCH   1   2
ATOM      2  C   UNL     1      46.688   6.019  12.663  0.00  0.00    +0.000 A 
ATOM      3  C   UNL     1      46.074   4.796  12.960  0.00  0.00    +0.000 A 
ATOM      4  C   UNL     1      45.305   4.134  12.000  0.00  0.00    +0.000 A 
ATOM      5  C   UNL     1      45.151   4.670  10.714  0.00  0.00    +0.000 A 
ATOM      6  C   UNL     1      45.767   5.895  10.416  0.00  0.00    +0.000 A 
ATOM      7  C   UNL     1      46.537   6.557  11.377  0.00  0.00    +0.000 A 
BRANCH   5   8
ATOM      8  C   UNL     1      44.345   3.936   9.668  0.00  0.00    +0.000 C 
BRANCH   8   9
ATOM      9  N   UNL     1      44.897   4.197   8.343  0.00  0.00    +0.000 N 
ATOM     10  C   UNL     1      45.682   3.136   7.848  0.00  0.00    +0.000 A 
ATOM     11  C   UNL     1      46.275   3.276   6.600  0.00  0.00    +0.000 A 
ATOM     12  C   UNL     1      47.051   2.241   6.084  0.00  0.00    +0.000 A 
ATOM     13  C   UNL     1      47.198   1.099   6.842  0.00  0.00    +0.000 A 
ATOM     14  N   UNL     1      46.610   0.960   8.042  0.00  0.00    +0.000 NA
ATOM     15  N   UNL     1      45.840   1.983   8.536  0.00  0.00    +0.000 NA
ATOM     16  H   UNL     1      45.439   5.056   8.323  0.00  0.00    +0.000 HD
ENDBRANCH   8   9
ENDBRANCH   5   8
ENDBRANCH   1   2
BRANCH   1  19
ATOM     17  O   UNL     1      49.742   6.573  15.434  0.00  0.00    +0.000 OA
ATOM     18  C   UNL     1      48.714   5.968  15.731  0.00  0.00    +0.000 C 
ATOM     19  N   UNL     1      47.614   5.940  14.913  0.00  0.00    +0.000 N 
ATOM     20  H   UNL     1      46.737   5.587  15.279  0.00  0.00    +0.000 HD
BRANCH  18  21
ATOM     21  C   UNL     1      48.623   5.181  16.966  0.00  0.00    +0.000 A 
ATOM     22  C   UNL     1      48.404   3.811  16.898  0.00  0.00    +0.000 A 
ATOM     23  S   UNL     1      48.296   3.059  18.425  0.00  0.00    +0.000 S 
ATOM     24  C   UNL     1      48.590   4.528  19.232  0.00  0.00    +0.000 A 
ATOM     25  N   UNL     1      48.657   4.581  20.590  0.00  0.00    +0.000 NA
ATOM     26  C   UNL     1      48.943   5.746  21.064  0.00  0.00    +0.000 A 
ATOM     27  N   UNL     1      49.156   6.867  20.307  0.00  0.00    +0.000 N 
ATOM     28  C   UNL     1      49.008   6.881  18.940  0.00  0.00    +0.000 A 
ATOM     29  O   UNL     1      49.055   7.932  18.310  0.00  0.00    +0.000 OA
ATOM     30  C   UNL     1      48.742   5.584  18.350  0.00  0.00    +0.000 A 
ATOM     31  H   UNL     1      49.346   7.758  20.742  0.00  0.00    +0.000 HD
ENDBRANCH  18  21
ENDBRANCH   1  19
TORSDOF 5
ENDMDL
MODEL 4
REMARK VINA RESULT:    -7.694      3.150      5.275
REMARK INTER + INTRA:         -10.861
REMARK INTER:                  -9.861
REMARK INTRA:                  -0.999
REMARK UNBOUND:                -0.918
REMARK  Name = 
REMARK  5 active torsions:
REMARK  status: ('A' for Active; 'I' for Inactive)
REMARK    1  A    between atoms: C_2  and  C_19
REMARK    2  A    between atoms: N_3  and  C_4
REMARK    3  A    between atoms: C_4  and  C_5
REMARK    4  A    between atoms: C_8  and  C_9
REMARK    5  A    between atoms: C_9  and  N_10
REMARK                            x       y       z     vdW  Elec       q    Type
REMARK                         _______ _______ _______ _____ _____    ______ ____
ROOT
ATOM      1  C   UNL     1      47.305   5.371  14.406  0.00  0.00    +0.000 C 
ENDROOT
BRANCH   1   2
ATOM      2  C   UNL     1      46.464   5.030  13.203  0.00  0.00    +0.000 A 
ATOM      3  C   UNL     1      45.963   3.733  13.038  0.00  0.00    +0.000 A 
ATOM      4  C   UNL     1      45.191   3.405  11.921  0.00  0.00    +0.000 A 
ATOM      5  C   UNL     1      44.922   4.361  10.933  0.00  0.00    +0.000 A 
ATOM      6  C   UNL     1      45.425   5.660  11.096  0.00  0.00    +0.000 A 
ATOM      7  C   UNL     1      46.198   5.989  12.215  0.00  0.00    +0.000 A 
BRANCH   5   8
ATOM      8  C   UNL     1      44.113   3.994   9.710  0.00  0.00    +0.000 C 
BRANCH   8   9
ATOM      9  N   UNL     1      44.862   4.326   8.502  0.00  0.00    +0.000 N 
ATOM     10  C   UNL     1      45.646   3.256   8.023  0.00  0.00    +0.000 A 
ATOM     11  C   UNL     1      46.417   3.459   6.885  0.00  0.00    +0.000 A 
ATOM     12  C   UNL     1      47.197   2.419   6.385  0.00  0.00    +0.000 A 
ATOM     13  C   UNL     1      47.168   1.210   7.047  0.00  0.00    +0.000 A 
ATOM     14  N   UNL     1      46.409   1.012   8.137  0.00  0.00    +0.000 NA
ATOM     15  N   UNL     1      45.637   2.042   8.615  0.00  0.00    +0.000 NA
ATOM     16  H   UNL     1      45.450   5.142   8.636  0.00  0.00    +0.000 HD
ENDBRANCH   8   9
ENDBRANCH   5   8
ENDBRANCH   1   2
BRANCH   1  19
ATOM     17  O   UNL     1      49.709   6.426  15.427  0.00  0.00    +0.000 OA
ATOM     18  C   UNL     1      48.919   7.180  14.861  0.00  0.00    +0.000 C 
ATOM     19  N   UNL     1      47.703   6.755  14.392  0.00  0.00    +0.000 N 
ATOM     20  H   UNL     1      47.173   7.363  13.777  0.00  0.00    +0.000 HD
BRANCH  18  21
ATOM     21  C   UNL     1      49.210   8.610  14.706  0.00  0.00    +0.000 A 
ATOM     22  C   UNL     1      49.433   9.397  15.829  0.00  0.00    +0.000 A 
ATOM     23  S   UNL     1      49.725  11.038  15.469  0.00  0.00    +0.000 S 
ATOM     24  C   UNL     1      49.618  10.747  13.796  0.00  0.00    +0.000 A 
ATOM     25  N   UNL     1      49.802  11.751  12.896  0.00  0.00    +0.000 NA
ATOM     26  C   UNL     1      49.749  11.379  11.663  0.00  0.00    +0.000 A 
ATOM     27  N   UNL     1      49.516  10.096  11.243  0.00  0.00    +0.000 N 
ATOM     28  C   UNL     1      49.233   9.069  12.113  0.00  0.00    +0.000 A 
ATOM     29  O   UNL     1      48.879   7.970  11.700  0.00  0.00    +0.000 OA
ATOM     30  C   UNL     1      49.335   9.422  13.515  0.00  0.00    +0.000 A 
ATOM     31  H   UNL     1      49.456   9.874  10.261  0.00  0.00    +0.000 HD
ENDBRANCH  18  21
ENDBRANCH   1  19
TORSDOF 5
ENDMDL
MODEL 5
REMARK VINA RESULT:    -7.503      4.029      6.814
REMARK INTER + INTRA:         -10.614
REMARK INTER:                  -9.776
REMARK INTRA:                  -0.838
REMARK UNBOUND:                -0.918
REMARK  Name = 
REMARK  5 active torsions:
REMARK  status: ('A' for Active; 'I' for Inactive)
REMARK    1  A    between atoms: C_2  and  C_19
REMARK    2  A    between atoms: N_3  and  C_4
REMARK    3  A    between atoms: C_4  and  C_5
REMARK    4  A    between atoms: C_8  and  C_9
REMARK    5  A    between atoms: C_9  and  N_10
REMARK                            x       y       z     vdW  Elec       q    Type
REMARK                         _______ _______ _______ _____ _____    ______ ____
ROOT
ATOM      1  C   UNL     1      48.264   7.104  14.096  0.00  0.00    +0.000 C 
ENDROOT
BRANCH   1   2
ATOM      2  C   UNL     1      47.215   6.463  13.226  0.00  0.00    +0.000 A 
ATOM      3  C   UNL     1      46.650   7.177  12.162  0.00  0.00    +0.000 A 
ATOM      4  C   UNL     1      45.669   6.596  11.355  0.00  0.00    +0.000 A 
ATOM      5  C   UNL     1      45.216   5.294  11.608  0.00  0.00    +0.000 A 
ATOM      6  C   UNL     1      45.780   4.578  12.675  0.00  0.00    +0.000 A 
ATOM      7  C   UNL     1      46.761   5.161  13.483  0.00  0.00    +0.000 A 
BRANCH   5   8
ATOM      8  C   UNL     1      44.132   4.679  10.753  0.00  0.00    +0.000 C 
BRANCH   8   9
ATOM      9  N   UNL     1      44.520   3.331  10.354  0.00  0.00    +0.000 N 
ATOM     10  C   UNL     1      45.268   3.298   9.160  0.00  0.00    +0.000 A 
ATOM     11  C   UNL     1      45.681   2.065   8.670  0.00  0.00    +0.000 A 
ATOM     12  C   UNL     1      46.427   2.002   7.496  0.00  0.00    +0.000 A 
ATOM     13  C   UNL     1      46.734   3.186   6.858  0.00  0.00    +0.000 A 
ATOM     14  N   UNL     1      46.348   4.378   7.342  0.00  0.00    +0.000 NA
ATOM     15  N   UNL     1      45.621   4.427   8.506  0.00  0.00    +0.000 NA
ATOM     16  H   UNL     1      43.715   2.718  10.265  0.00  0.00    +0.000 HD
ENDBRANCH   8   9
ENDBRANCH   5   8
ENDBRANCH   1   2
BRANCH   1  19
ATOM     17  O   UNL     1      50.337   6.313  15.833  0.00  0.00    +0.000 OA
ATOM     18  C   UNL     1      49.190   6.385  16.268  0.00  0.00    +0.000 C 
ATOM     19  N   UNL     1      48.119   6.703  15.473  0.00  0.00    +0.000 N 
ATOM     20  H   UNL     1      47.232   6.929  15.909  0.00  0.00    +0.000 HD
BRANCH  18  21
ATOM     21  C   UNL     1      48.886   6.072  17.669  0.00  0.00    +0.000 A 
ATOM     22  C   UNL     1      49.170   4.809  18.173  0.00  0.00    +0.000 A 
ATOM     23  S   UNL     1      48.725   4.609  19.807  0.00  0.00    +0.000 S 
ATOM     24  C   UNL     1      48.187   6.219  19.917  0.00  0.00    +0.000 A 
ATOM     25  N   UNL     1      47.698   6.717  21.085  0.00  0.00    +0.000 NA
ATOM     26  C   UNL     1      47.380   7.967  21.040  0.00  0.00    +0.000 A 
ATOM     27  N   UNL     1      47.495   8.763  19.931  0.00  0.00    +0.000 N 
ATOM     28  C   UNL     1      47.895   8.280  18.707  0.00  0.00    +0.000 A 
ATOM     29  O   UNL     1      47.840   8.981  17.702  0.00  0.00    +0.000 OA
ATOM     30  C   UNL     1      48.318   6.894  18.716  0.00  0.00    +0.000 A 
ATOM     31  H   UNL     1      47.199   9.727  19.953  0.00  0.00    +0.000 HD
ENDBRANCH  18  21
ENDBRANCH   1  19
TORSDOF 5
ENDMDL
MODEL 6
REMARK VINA RESULT:    -7.500      3.957      6.804
REMARK INTER + INTRA:         -10.610
REMARK INTER:                 -10.140
REMARK INTRA:                  -0.470
REMARK UNBOUND:                -0.918
REMARK  Name = 
REMARK  5 active torsions:
REMARK  status: ('A' for Active; 'I' for Inactive)
REMARK    1  A    between atoms: C_2  and  C_19
REMARK    2  A    between atoms: N_3  and  C_4
REMARK    3  A    between atoms: C_4  and  C_5
REMARK    4  A    between atoms: C_8  and  C_9
REMARK    5  A    between atoms: C_9  and  N_10
REMARK                            x       y       z     vdW  Elec       q    Type
REMARK                         _______ _______ _______ _____ _____    ______ ____
ROOT
ATOM      1  C   UNL     1      48.486   6.876  13.899  0.00  0.00    +0.000 C 
ENDROOT
BRANCH   1   2
ATOM      2  C   UNL     1      47.318   6.325  13.123  0.00  0.00    +0.000 A 
ATOM      3  C   UNL     1      46.855   5.028  13.376  0.00  0.00    +0.000 A 
ATOM      4  C   UNL     1      45.779   4.503  12.656  0.00  0.00    +0.000 A 
ATOM      5  C   UNL     1      45.156   5.256  11.652  0.00  0.00    +0.000 A 
ATOM      6  C   UNL     1      45.621   6.555  11.397  0.00  0.00    +0.000 A 
ATOM      7  C   UNL     1      46.698   7.080  12.118  0.00  0.00    +0.000 A 
BRANCH   5   8
ATOM      8  C   UNL     1      44.013   4.674  10.853  0.00  0.00    +0.000 C 
BRANCH   8   9
ATOM      9  N   UNL     1      44.348   3.321  10.421  0.00  0.00    +0.000 N 
ATOM     10  C   UNL     1      45.141   3.290   9.256  0.00  0.00    +0.000 A 
ATOM     11  C   UNL     1      45.509   2.054   8.739  0.00  0.00    +0.000 A 
ATOM     12  C   UNL     1      46.298   1.993   7.592  0.00  0.00    +0.000 A 
ATOM     13  C   UNL     1      46.690   3.179   7.010  0.00  0.00    +0.000 A 
ATOM     14  N   UNL     1      46.346   4.373   7.521  0.00  0.00    +0.000 NA
ATOM     15  N   UNL     1      45.576   4.420   8.657  0.00  0.00    +0.000 NA
ATOM     16  H   UNL     1      43.517   2.755  10.280  0.00  0.00    +0.000 HD
ENDBRANCH   8   9
ENDBRANCH   5   8
ENDBRANCH   1   2
BRANCH   1  19
ATOM     17  O   UNL     1      50.281   6.339  16.002  0.00  0.00    +0.000 OA
ATOM     18  C   UNL     1      49.144   6.718  16.272  0.00  0.00    +0.000 C 
ATOM     19  N   UNL     1      48.194   6.942  15.309  0.00  0.00    +0.000 N 
ATOM     20  H   UNL     1      47.340   7.426  15.562  0.00  0.00    +0.000 HD
BRANCH  18  21
ATOM     21  C   UNL     1      48.710   6.899  17.663  0.00  0.00    +0.000 A 
ATOM     22  C   UNL     1      48.260   8.141  18.091  0.00  0.00    +0.000 A 
ATOM     23  S   UNL     1      47.826   8.181  19.739  0.00  0.00    +0.000 S 
ATOM     24  C   UNL     1      48.174   6.526  19.929  0.00  0.00    +0.000 A 
ATOM     25  N   UNL     1      47.987   5.902  21.123  0.00  0.00    +0.000 NA
ATOM     26  C   UNL     1      48.237   4.637  21.109  0.00  0.00    +0.000 A 
ATOM     27  N   UNL     1      48.667   3.938  20.013  0.00  0.00    +0.000 N 
ATOM     28  C   UNL     1      48.958   4.542  18.812  0.00  0.00    +0.000 A 
ATOM     29  O   UNL     1      49.485   3.915  17.900  0.00  0.00    +0.000 OA
ATOM     30  C   UNL     1      48.641   5.956  18.757  0.00  0.00    +0.000 A 
ATOM     31  H   UNL     1      48.875   2.952  20.075  0.00  0.00    +0.000 HD
ENDBRANCH  18  21
ENDBRANCH   1  19
TORSDOF 5
ENDMDL
MODEL 7
REMARK VINA RESULT:    -7.446      6.562     10.324
REMARK INTER + INTRA:         -10.540
REMARK INTER:                  -9.814
REMARK INTRA:                  -0.725
REMARK UNBOUND:                -0.918
REMARK  Name = 
REMARK  5 active torsions:
REMARK  status: ('A' for Active; 'I' for Inactive)
REMARK    1  A    between atoms: C_2  and  C_19
REMARK    2  A    between atoms: N_3  and  C_4
REMARK    3  A    between atoms: C_4  and  C_5
REMARK    4  A    between atoms: C_8  and  C_9
REMARK    5  A    between atoms: C_9  and  N_10
REMARK                            x       y       z     vdW  Elec       q    Type
REMARK                         _______ _______ _______ _____ _____    ______ ____
ROOT
ATOM      1  C   UNL     1      47.268   3.504  17.076  0.00  0.00    +0.000 C 
ENDROOT
BRANCH   1   2
ATOM      2  C   UNL     1      48.735   3.247  17.305  0.00  0.00    +0.000 A 
ATOM      3  C   UNL     1      49.530   4.214  17.932  0.00  0.00    +0.000 A 
ATOM      4  C   UNL     1      50.893   3.990  18.140  0.00  0.00    +0.000 A 
ATOM      5  C   UNL     1      51.495   2.802  17.706  0.00  0.00    +0.000 A 
ATOM      6  C   UNL     1      50.700   1.833  17.077  0.00  0.00    +0.000 A 
ATOM      7  C   UNL     1      49.336   2.057  16.868  0.00  0.00    +0.000 A 
BRANCH   5   8
ATOM      8  C   UNL     1      52.976   2.575  17.905  0.00  0.00    +0.000 C 
BRANCH   8   9
ATOM      9  N   UNL     1      53.191   1.387  18.723  0.00  0.00    +0.000 N 
ATOM     10  C   UNL     1      53.879   0.360  18.043  0.00  0.00    +0.000 A 
ATOM     11  C   UNL     1      54.128  -0.829  18.717  0.00  0.00    +0.000 A 
ATOM     12  C   UNL     1      54.811  -1.858  18.072  0.00  0.00    +0.000 A 
ATOM     13  C   UNL     1      55.222  -1.650  16.773  0.00  0.00    +0.000 A 
ATOM     14  N   UNL     1      54.995  -0.492  16.130  0.00  0.00    +0.000 NA
ATOM     15  N   UNL     1      54.329   0.518  16.779  0.00  0.00    +0.000 NA
ATOM     16  H   UNL     1      52.319   1.021  19.093  0.00  0.00    +0.000 HD
ENDBRANCH   8   9
ENDBRANCH   5   8
ENDBRANCH   1   2
BRANCH   1  19
ATOM     17  O   UNL     1      47.377   3.112  14.288  0.00  0.00    +0.000 OA
ATOM     18  C   UNL     1      47.081   4.223  14.723  0.00  0.00    +0.000 C 
ATOM     19  N   UNL     1      47.065   4.509  16.063  0.00  0.00    +0.000 N 
ATOM     20  H   UNL     1      46.640   5.375  16.377  0.00  0.00    +0.000 HD
BRANCH  18  21
ATOM     21  C   UNL     1      46.780   5.340  13.818  0.00  0.00    +0.000 A 
ATOM     22  C   UNL     1      47.727   6.333  13.608  0.00  0.00    +0.000 A 
ATOM     23  S   UNL     1      47.202   7.567  12.554  0.00  0.00    +0.000 S 
ATOM     24  C   UNL     1      45.709   6.791  12.299  0.00  0.00    +0.000 A 
ATOM     25  N   UNL     1      44.779   7.319  11.458  0.00  0.00    +0.000 NA
ATOM     26  C   UNL     1      43.719   6.598  11.315  0.00  0.00    +0.000 A 
ATOM     27  N   UNL     1      43.497   5.402  11.945  0.00  0.00    +0.000 N 
ATOM     28  C   UNL     1      44.366   4.877  12.872  0.00  0.00    +0.000 A 
ATOM     29  O   UNL     1      44.067   3.885  13.529  0.00  0.00    +0.000 OA
ATOM     30  C   UNL     1      45.601   5.620  13.029  0.00  0.00    +0.000 A 
ATOM     31  H   UNL     1      42.631   4.900  11.815  0.00  0.00    +0.000 HD
ENDBRANCH  18  21
ENDBRANCH   1  19
TORSDOF 5
ENDMDL
MODEL 8
REMARK VINA RESULT:    -7.165      7.329      9.616
REMARK INTER + INTRA:         -10.177
REMARK INTER:                  -9.447
REMARK INTRA:                  -0.730
REMARK UNBOUND:                -0.918
REMARK  Name = 
REMARK  5 active torsions:
REMARK  status: ('A' for Active; 'I' for Inactive)
REMARK    1  A    between atoms: C_2  and  C_19
REMARK    2  A    between atoms: N_3  and  C_4
REMARK    3  A    between atoms: C_4  and  C_5
REMARK    4  A    between atoms: C_8  and  C_9
REMARK    5  A    between atoms: C_9  and  N_10
REMARK                            x       y       z     vdW  Elec       q    Type
REMARK                         _______ _______ _______ _____ _____    ______ ____
ROOT
ATOM      1  C   UNL     1      46.392   4.465  14.116  0.00  0.00    +0.000 C 
ENDROOT
BRANCH   1   2
ATOM      2  C   UNL     1      45.973   5.706  13.371  0.00  0.00    +0.000 A 
ATOM      3  C   UNL     1      46.873   6.766  13.208  0.00  0.00    +0.000 A 
ATOM      4  C   UNL     1      46.492   7.925  12.528  0.00  0.00    +0.000 A 
ATOM      5  C   UNL     1      45.195   8.057  12.014  0.00  0.00    +0.000 A 
ATOM      6  C   UNL     1      44.293   6.996  12.178  0.00  0.00    +0.000 A 
ATOM      7  C   UNL     1      44.674   5.836  12.859  0.00  0.00    +0.000 A 
BRANCH   5   8
ATOM      8  C   UNL     1      44.776   9.325  11.306  0.00  0.00    +0.000 C 
BRANCH   8   9
ATOM      9  N   UNL     1      43.432   9.168  10.760  0.00  0.00    +0.000 N 
ATOM     10  C   UNL     1      42.571  10.236  11.086  0.00  0.00    +0.000 A 
ATOM     11  C   UNL     1      41.258  10.189  10.635  0.00  0.00    +0.000 A 
ATOM     12  C   UNL     1      40.387  11.233  10.937  0.00  0.00    +0.000 A 
ATOM     13  C   UNL     1      40.871  12.289  11.679  0.00  0.00    +0.000 A 
ATOM     14  N   UNL     1      42.146  12.339  12.100  0.00  0.00    +0.000 NA
ATOM     15  N   UNL     1      42.998  11.308  11.788  0.00  0.00    +0.000 NA
ATOM     16  H   UNL     1      43.009   8.292  11.049  0.00  0.00    +0.000 HD
ENDBRANCH   8   9
ENDBRANCH   5   8
ENDBRANCH   1   2
BRANCH   1  19
ATOM     17  O   UNL     1      46.582   3.477  16.748  0.00  0.00    +0.000 OA
ATOM     18  C   UNL     1      47.487   4.184  16.309  0.00  0.00    +0.000 C 
ATOM     19  N   UNL     1      47.441   4.751  15.062  0.00  0.00    +0.000 N 
ATOM     20  H   UNL     1      48.282   5.168  14.679  0.00  0.00    +0.000 HD
BRANCH  18  21
ATOM     21  C   UNL     1      48.660   4.514  17.128  0.00  0.00    +0.000 A 
ATOM     22  C   UNL     1      48.721   5.735  17.787  0.00  0.00    +0.000 A 
ATOM     23  S   UNL     1      50.164   5.967  18.666  0.00  0.00    +0.000 S 
ATOM     24  C   UNL     1      50.737   4.422  18.241  0.00  0.00    +0.000 A 
ATOM     25  N   UNL     1      51.935   3.967  18.698  0.00  0.00    +0.000 NA
ATOM     26  C   UNL     1      52.218   2.760  18.345  0.00  0.00    +0.000 A 
ATOM     27  N   UNL     1      51.419   1.966  17.566  0.00  0.00    +0.000 N 
ATOM     28  C   UNL     1      50.245   2.414  17.006  0.00  0.00    +0.000 A 
ATOM     29  O   UNL     1      49.632   1.732  16.191  0.00  0.00    +0.000 OA
ATOM     30  C   UNL     1      49.853   3.748  17.417  0.00  0.00    +0.000 A 
ATOM     31  H   UNL     1      51.712   1.038  17.298  0.00  0.00    +0.000 HD
ENDBRANCH  18  21
ENDBRANCH   1  19
TORSDOF 5
ENDMDL
MODEL 9
REMARK VINA RESULT:    -7.102      6.995      9.297
REMARK INTER + INTRA:         -10.096
REMARK INTER:                  -9.075
REMARK INTRA:                  -1.021
REMARK UNBOUND:                -0.918
REMARK  Name = 
REMARK  5 active torsions:
REMARK  status: ('A' for Active; 'I' for Inactive)
REMARK    1  A    between atoms: C_2  and  C_19
REMARK    2  A    between atoms: N_3  and  C_4
REMARK    3  A    between atoms: C_4  and  C_5
REMARK    4  A    between atoms: C_8  and  C_9
REMARK    5  A    between atoms: C_9  and  N_10
REMARK                            x       y       z     vdW  Elec       q    Type
REMARK                         _______ _______ _______ _____ _____    ______ ____
ROOT
ATOM      1  C   UNL     1      45.828   4.714  13.356  0.00  0.00    +0.000 C 
ENDROOT
BRANCH   1   2
ATOM      2  C   UNL     1      45.403   5.991  12.677  0.00  0.00    +0.000 A 
ATOM      3  C   UNL     1      46.113   7.176  12.901  0.00  0.00    +0.000 A 
ATOM      4  C   UNL     1      45.721   8.367  12.285  0.00  0.00    +0.000 A 
ATOM      5  C   UNL     1      44.597   8.403  11.449  0.00  0.00    +0.000 A 
ATOM      6  C   UNL     1      43.884   7.215  11.226  0.00  0.00    +0.000 A 
ATOM      7  C   UNL     1      44.277   6.023  11.843  0.00  0.00    +0.000 A 
BRANCH   5   8
ATOM      8  C   UNL     1      44.157   9.699  10.809  0.00  0.00    +0.000 C 
BRANCH   8   9
ATOM      9  N   UNL     1      42.777   9.582  10.348  0.00  0.00    +0.000 N 
ATOM     10  C   UNL     1      41.878  10.391  11.073  0.00  0.00    +0.000 A 
ATOM     11  C   UNL     1      40.531  10.350  10.735  0.00  0.00    +0.000 A 
ATOM     12  C   UNL     1      39.621  11.143  11.430  0.00  0.00    +0.000 A 
ATOM     13  C   UNL     1      40.102  11.952  12.438  0.00  0.00    +0.000 A 
ATOM     14  N   UNL     1      41.407  12.000  12.752  0.00  0.00    +0.000 NA
ATOM     15  N   UNL     1      42.296  11.221  12.053  0.00  0.00    +0.000 NA
ATOM     16  H   UNL     1      42.455   8.619  10.365  0.00  0.00    +0.000 HD
ENDBRANCH   8   9
ENDBRANCH   5   8
ENDBRANCH   1   2
BRANCH   1  19
ATOM     17  O   UNL     1      47.544   2.983  14.769  0.00  0.00    +0.000 OA
ATOM     18  C   UNL     1      47.321   4.103  15.223  0.00  0.00    +0.000 C 
ATOM     19  N   UNL     1      46.452   4.980  14.627  0.00  0.00    +0.000 N 
ATOM     20  H   UNL     1      46.443   5.947  14.932  0.00  0.00    +0.000 HD
BRANCH  18  21
ATOM     21  C   UNL     1      47.935   4.551  16.479  0.00  0.00    +0.000 A 
ATOM     22  C   UNL     1      47.654   3.882  17.663  0.00  0.00    +0.000 A 
ATOM     23  S   UNL     1      48.426   4.553  19.028  0.00  0.00    +0.000 S 
ATOM     24  C   UNL     1      49.206   5.730  18.078  0.00  0.00    +0.000 A 
ATOM     25  N   UNL     1      50.058   6.631  18.637  0.00  0.00    +0.000 NA
ATOM     26  C   UNL     1      50.622   7.427  17.793  0.00  0.00    +0.000 A 
ATOM     27  N   UNL     1      50.403   7.415  16.442  0.00  0.00    +0.000 N 
ATOM     28  C   UNL     1      49.482   6.585  15.844  0.00  0.00    +0.000 A 
ATOM     29  O   UNL     1      49.200   6.705  14.657  0.00  0.00    +0.000 OA
ATOM     30  C   UNL     1      48.861   5.631  16.741  0.00  0.00    +0.000 A 
ATOM     31  H   UNL     1      50.853   8.086  15.837  0.00  0.00    +0.000 HD
ENDBRANCH  18  21
ENDBRANCH   1  19
TORSDOF 5
ENDMDL
