MODEL 1
REMARK VINA RESULT:    -8.252      0.000      0.000
REMARK INTER + INTRA:         -12.491
REMARK INTER:                 -11.628
REMARK INTRA:                  -0.862
REMARK UNBOUND:                -0.862
REMARK  Name = 
REMARK  8 active torsions:
REMARK  status: ('A' for Active; 'I' for Inactive)
REMARK    1  A    between atoms: C_1  and  C_2
REMARK    2  A    between atoms: C_6  and  C_7
REMARK    3  A    between atoms: C_7  and  N_8
REMARK    4  A    between atoms: N_8  and  C_9
REMARK    5  A    between atoms: C_9  and  C_10
REMARK    6  A    between atoms: C_13  and  C_14
REMARK    7  A    between atoms: C_14  and  N_15
REMARK    8  A    between atoms: C_16  and  C_18
REMARK                            x       y       z     vdW  Elec       q    Type
REMARK                         _______ _______ _______ _____ _____    ______ ____
ROOT
ATOM      1  C   UNL     1      44.630   5.600  11.742  0.00  0.00    +0.000 A 
ATOM      2  C   UNL     1      44.871   4.983  12.981  0.00  0.00    +0.000 A 
ATOM      3  C   UNL     1      46.058   5.219  13.680  0.00  0.00    +0.000 A 
ATOM      4  C   UNL     1      47.031   6.078  13.157  0.00  0.00    +0.000 A 
ATOM      5  C   UNL     1      46.813   6.657  11.902  0.00  0.00    +0.000 A 
ATOM      6  C   UNL     1      45.621   6.430  11.205  0.00  0.00    +0.000 A 
ENDROOT
BRANCH   1   7
ATOM      7  C   UNL     1      43.327   5.365  11.008  0.00  0.00    +0.000 C 
BRANCH   7   8
ATOM      8  N   UNL     1      43.560   4.724   9.719  0.00  0.00    +0.000 NA
ATOM      9  H   UNL     1      42.678   4.588   9.226  0.00  0.00    +0.000 HD
BRANCH   8  10
ATOM     10  C   UNL     1      44.181   3.396   9.866  0.00  0.00    +0.000 C 
BRANCH  10  16
ATOM     11  C   UNL     1      46.986   0.219   7.455  0.00  0.00    +0.000 C 
ATOM     12  C   UNL     1      46.585   1.643   7.678  0.00  0.00    +0.000 A 
ATOM     13  C   UNL     1      47.186   2.675   6.986  0.00  0.00    +0.000 A 
ATOM     14  C   UNL     1      46.731   3.943   7.269  0.00  0.00    +0.000 A 
ATOM     15  N   UNL     1      45.762   4.204   8.165  0.00  0.00    +0.000 NA
ATOM     16  C   UNL     1      45.242   3.136   8.809  0.00  0.00    +0.000 A 
ATOM     17  N   UNL     1      45.611   1.857   8.588  0.00  0.00    +0.000 NA
ENDBRANCH  10  16
ENDBRANCH   8  10
ENDBRANCH   7   8
ENDBRANCH   1   7
BRANCH   4  18
ATOM     18  C   UNL     1      48.311   6.351  13.905  0.00  0.00    +0.000 C 
BRANCH  18  19
ATOM     19  N   UNL     1      48.052   6.583  15.304  0.00  0.00    +0.000 N 
ATOM     20  C   UNL     1      49.050   6.500  16.243  0.00  0.00    +0.000 C 
ATOM     21  O   UNL     1      50.214   6.264  15.940  0.00  0.00    +0.000 OA
ATOM     22  H   UNL     1      47.085   6.521  15.601  0.00  0.00    +0.000 HD
BRANCH  20  23
ATOM     23  C   UNL     1      48.659   6.786  17.625  0.00  0.00    +0.000 A 
ATOM     24  C   UNL     1      48.309   8.079  17.996  0.00  0.00    +0.000 A 
ATOM     25  S   UNL     1      47.827   8.219  19.623  0.00  0.00    +0.000 S 
ATOM     26  C   UNL     1      48.119   6.566  19.909  0.00  0.00    +0.000 A 
ATOM     27  N   UNL     1      47.924   6.023  21.142  0.00  0.00    +0.000 NA
ATOM     28  C   UNL     1      48.212   4.766  21.222  0.00  0.00    +0.000 A 
ATOM     29  N   UNL     1      48.665   4.000  20.177  0.00  0.00    +0.000 N 
ATOM     30  C   UNL     1      48.848   4.499  18.910  0.00  0.00    +0.000 A 
ATOM     31  O   UNL     1      49.212   3.773  17.987  0.00  0.00    +0.000 OA
ATOM     32  C   UNL     1      48.554   5.913  18.771  0.00  0.00    +0.000 A 
ATOM     33  H   UNL     1      48.855   3.018  20.304  0.00  0.00    +0.000 HD
ENDBRANCH  20  23
ENDBRANCH  18  19
ENDBRANCH   4  18
TORSDOF 7
ENDMDL
MODEL 2
REMARK VINA RESULT:    -7.890      1.605      1.839
REMARK INTER + INTRA:         -11.981
REMARK INTER:                 -11.206
REMARK INTRA:                  -0.775
REMARK UNBOUND:                -0.862
REMARK  Name = 
REMARK  8 active torsions:
REMARK  status: ('A' for Active; 'I' for Inactive)
REMARK    1  A    between atoms: C_1  and  C_2
REMARK    2  A    between atoms: C_6  and  C_7
REMARK    3  A    between atoms: C_7  and  N_8
REMARK    4  A    between atoms: N_8  and  C_9
REMARK    5  A    between atoms: C_9  and  C_10
REMARK    6  A    between atoms: C_13  and  C_14
REMARK    7  A    between atoms: C_14  and  N_15
REMARK    8  A    between atoms: C_16  and  C_18
REMARK                            x       y       z     vdW  Elec       q    Type
REMARK                         _______ _______ _______ _____ _____    ______ ____
ROOT
ATOM      1  C   UNL     1      44.329   6.054  11.656  0.00  0.00    +0.000 A 
ATOM      2  C   UNL     1      45.215   5.420  12.542  0.00  0.00    +0.000 A 
ATOM      3  C   UNL     1      46.215   6.146  13.197  0.00  0.00    +0.000 A 
ATOM      4  C   UNL     1      46.351   7.522  12.980  0.00  0.00    +0.000 A 
ATOM      5  C   UNL     1      45.497   8.146  12.063  0.00  0.00    +0.000 A 
ATOM      6  C   UNL     1      44.490   7.424  11.414  0.00  0.00    +0.000 A 
ENDROOT
BRANCH   1   7
ATOM      7  C   UNL     1      43.227   5.267  10.978  0.00  0.00    +0.000 C 
BRANCH   7   8
ATOM      8  N   UNL     1      43.674   4.742   9.693  0.00  0.00    +0.000 NA
ATOM      9  H   UNL     1      42.896   4.706   9.035  0.00  0.00    +0.000 HD
BRANCH   8  10
ATOM     10  C   UNL     1      44.204   3.373   9.809  0.00  0.00    +0.000 C 
BRANCH  10  16
ATOM     11  C   UNL     1      46.965   0.085   7.498  0.00  0.00    +0.000 C 
ATOM     12  C   UNL     1      46.555   1.516   7.648  0.00  0.00    +0.000 A 
ATOM     13  C   UNL     1      47.118   2.510   6.875  0.00  0.00    +0.000 A 
ATOM     14  C   UNL     1      46.657   3.788   7.096  0.00  0.00    +0.000 A 
ATOM     15  N   UNL     1      45.716   4.093   8.008  0.00  0.00    +0.000 NA
ATOM     16  C   UNL     1      45.232   3.060   8.733  0.00  0.00    +0.000 A 
ATOM     17  N   UNL     1      45.610   1.774   8.577  0.00  0.00    +0.000 NA
ENDBRANCH  10  16
ENDBRANCH   8  10
ENDBRANCH   7   8
ENDBRANCH   1   7
BRANCH   4  18
ATOM     18  C   UNL     1      47.417   8.320  13.687  0.00  0.00    +0.000 C 
BRANCH  18  19
ATOM     19  N   UNL     1      47.836   7.660  14.898  0.00  0.00    +0.000 N 
ATOM     20  C   UNL     1      49.109   7.167  15.043  0.00  0.00    +0.000 C 
ATOM     21  O   UNL     1      49.961   7.292  14.171  0.00  0.00    +0.000 OA
ATOM     22  H   UNL     1      47.100   7.321  15.507  0.00  0.00    +0.000 HD
BRANCH  20  23
ATOM     23  C   UNL     1      49.415   6.545  16.333  0.00  0.00    +0.000 A 
ATOM     24  C   UNL     1      50.301   7.161  17.210  0.00  0.00    +0.000 A 
ATOM     25  S   UNL     1      50.496   6.330  18.683  0.00  0.00    +0.000 S 
ATOM     26  C   UNL     1      49.444   5.086  18.185  0.00  0.00    +0.000 A 
ATOM     27  N   UNL     1      49.186   4.022  18.993  0.00  0.00    +0.000 NA
ATOM     28  C   UNL     1      48.394   3.141  18.477  0.00  0.00    +0.000 A 
ATOM     29  N   UNL     1      47.826   3.236  17.231  0.00  0.00    +0.000 N 
ATOM     30  C   UNL     1      48.036   4.306  16.395  0.00  0.00    +0.000 A 
ATOM     31  O   UNL     1      47.475   4.379  15.303  0.00  0.00    +0.000 OA
ATOM     32  C   UNL     1      48.933   5.317  16.922  0.00  0.00    +0.000 A 
ATOM     33  H   UNL     1      47.202   2.520  16.894  0.00  0.00    +0.000 HD
ENDBRANCH  20  23
ENDBRANCH  18  19
ENDBRANCH   4  18
TORSDOF 7
ENDMDL
MODEL 3
REMARK VINA RESULT:    -7.747      1.289      2.088
REMARK INTER + INTRA:         -11.779
REMARK INTER:                 -10.983
REMARK INTRA:                  -0.796
REMARK UNBOUND:                -0.862
REMARK  Name = 
REMARK  8 active torsions:
REMARK  status: ('A' for Active; 'I' for Inactive)
REMARK    1  A    between atoms: C_1  and  C_2
REMARK    2  A    between atoms: C_6  and  C_7
REMARK    3  A    between atoms: C_7  and  N_8
REMARK    4  A    between atoms: N_8  and  C_9
REMARK    5  A    between atoms: C_9  and  C_10
REMARK    6  A    between atoms: C_13  and  C_14
REMARK    7  A    between atoms: C_14  and  N_15
REMARK    8  A    between atoms: C_16  and  C_18
REMARK                            x       y       z     vdW  Elec       q    Type
REMARK                         _______ _______ _______ _____ _____    ______ ____
ROOT
ATOM      1  C   UNL     1      44.506   5.652  11.709  0.00  0.00    +0.000 A 
ATOM      2  C   UNL     1      45.344   6.703  11.300  0.00  0.00    +0.000 A 
ATOM      3  C   UNL     1      46.541   6.968  11.971  0.00  0.00    +0.000 A 
ATOM      4  C   UNL     1      46.928   6.188  13.066  0.00  0.00    +0.000 A 
ATOM      5  C   UNL     1      46.073   5.169  13.503  0.00  0.00    +0.000 A 
ATOM      6  C   UNL     1      44.879   4.896  12.827  0.00  0.00    +0.000 A 
ENDROOT
BRANCH   1   7
ATOM      7  C   UNL     1      43.228   5.351  10.955  0.00  0.00    +0.000 C 
BRANCH   7   8
ATOM      8  N   UNL     1      43.515   4.709   9.677  0.00  0.00    +0.000 NA
ATOM      9  H   UNL     1      42.650   4.539   9.164  0.00  0.00    +0.000 HD
BRANCH   8  10
ATOM     10  C   UNL     1      44.177   3.405   9.849  0.00  0.00    +0.000 C 
BRANCH  10  16
ATOM     11  C   UNL     1      46.999   0.249   7.429  0.00  0.00    +0.000 C 
ATOM     12  C   UNL     1      46.590   1.671   7.654  0.00  0.00    +0.000 A 
ATOM     13  C   UNL     1      47.182   2.708   6.963  0.00  0.00    +0.000 A 
ATOM     14  C   UNL     1      46.719   3.973   7.248  0.00  0.00    +0.000 A 
ATOM     15  N   UNL     1      45.750   4.226   8.146  0.00  0.00    +0.000 NA
ATOM     16  C   UNL     1      45.239   3.153   8.790  0.00  0.00    +0.000 A 
ATOM     17  N   UNL     1      45.615   1.876   8.566  0.00  0.00    +0.000 NA
ENDBRANCH  10  16
ENDBRANCH   8  10
ENDBRANCH   7   8
ENDBRANCH   1   7
BRANCH   4  18
ATOM     18  C   UNL     1      48.222   6.454  13.793  0.00  0.00    +0.000 C 
BRANCH  18  19
ATOM     19  N   UNL     1      48.111   6.107  15.188  0.00  0.00    +0.000 N 
ATOM     20  C   UNL     1      49.028   6.542  16.111  0.00  0.00    +0.000 C 
ATOM     21  O   UNL     1      49.963   7.275  15.808  0.00  0.00    +0.000 OA
ATOM     22  H   UNL     1      47.519   5.315  15.411  0.00  0.00    +0.000 HD
BRANCH  20  23
ATOM     23  C   UNL     1      48.783   6.143  17.499  0.00  0.00    +0.000 A 
ATOM     24  C   UNL     1      49.033   4.836  17.902  0.00  0.00    +0.000 A 
ATOM     25  S   UNL     1      48.749   4.564  19.558  0.00  0.00    +0.000 S 
ATOM     26  C   UNL     1      48.230   6.169  19.791  0.00  0.00    +0.000 A 
ATOM     27  N   UNL     1      47.812   6.600  21.012  0.00  0.00    +0.000 NA
ATOM     28  C   UNL     1      47.420   7.831  21.037  0.00  0.00    +0.000 A 
ATOM     29  N   UNL     1      47.421   8.673  19.952  0.00  0.00    +0.000 N 
ATOM     30  C   UNL     1      47.861   8.289  18.709  0.00  0.00    +0.000 A 
ATOM     31  O   UNL     1      47.890   9.083  17.771  0.00  0.00    +0.000 OA
ATOM     32  C   UNL     1      48.298   6.908  18.625  0.00  0.00    +0.000 A 
ATOM     33  H   UNL     1      47.117   9.630  20.044  0.00  0.00    +0.000 HD
ENDBRANCH  20  23
ENDBRANCH  18  19
ENDBRANCH   4  18
TORSDOF 7
ENDMDL
MODEL 4
REMARK VINA RESULT:    -7.616      3.029      4.528
REMARK INTER + INTRA:         -11.595
REMARK INTER:                 -10.933
REMARK INTRA:                  -0.663
REMARK UNBOUND:                -0.862
REMARK  Name = 
REMARK  8 active torsions:
REMARK  status: ('A' for Active; 'I' for Inactive)
REMARK    1  A    between atoms: C_1  and  C_2
REMARK    2  A    between atoms: C_6  and  C_7
REMARK    3  A    between atoms: C_7  and  N_8
REMARK    4  A    between atoms: N_8  and  C_9
REMARK    5  A    between atoms: C_9  and  C_10
REMARK    6  A    between atoms: C_13  and  C_14
REMARK    7  A    between atoms: C_14  and  N_15
REMARK    8  A    between atoms: C_16  and  C_18
REMARK                            x       y       z     vdW  Elec       q    Type
REMARK                         _______ _______ _______ _____ _____    ______ ____
ROOT
ATOM      1  C   UNL     1      45.555   3.410   8.165  0.00  0.00    +0.000 A 
ATOM      2  C   UNL     1      44.907   2.437   8.943  0.00  0.00    +0.000 A 
ATOM      3  C   UNL     1      44.483   2.723  10.244  0.00  0.00    +0.000 A 
ATOM      4  C   UNL     1      44.699   3.991  10.797  0.00  0.00    +0.000 A 
ATOM      5  C   UNL     1      45.385   4.947  10.040  0.00  0.00    +0.000 A 
ATOM      6  C   UNL     1      45.800   4.666   8.734  0.00  0.00    +0.000 A 
ENDROOT
BRANCH   1   7
ATOM      7  C   UNL     1      45.978   3.102   6.745  0.00  0.00    +0.000 C 
BRANCH   7   8
ATOM      8  N   UNL     1      46.936   2.002   6.712  0.00  0.00    +0.000 NA
ATOM      9  H   UNL     1      47.634   2.118   7.447  0.00  0.00    +0.000 HD
BRANCH   8  10
ATOM     10  C   UNL     1      47.663   1.940   5.433  0.00  0.00    +0.000 C 
BRANCH  10  16
ATOM     11  C   UNL     1      46.933  -2.545   3.663  0.00  0.00    +0.000 C 
ATOM     12  C   UNL     1      46.640  -1.080   3.568  0.00  0.00    +0.000 A 
ATOM     13  C   UNL     1      45.821  -0.573   2.580  0.00  0.00    +0.000 A 
ATOM     14  C   UNL     1      45.619   0.788   2.596  0.00  0.00    +0.000 A 
ATOM     15  N   UNL     1      46.174   1.613   3.502  0.00  0.00    +0.000 NA
ATOM     16  C   UNL     1      46.977   1.033   4.423  0.00  0.00    +0.000 A 
ATOM     17  N   UNL     1      47.221  -0.292   4.497  0.00  0.00    +0.000 NA
ENDBRANCH  10  16
ENDBRANCH   8  10
ENDBRANCH   7   8
ENDBRANCH   1   7
BRANCH   4  18
ATOM     18  C   UNL     1      44.238   4.318  12.194  0.00  0.00    +0.000 C 
BRANCH  18  19
ATOM     19  N   UNL     1      45.256   5.039  12.917  0.00  0.00    +0.000 N 
ATOM     20  C   UNL     1      46.283   4.387  13.553  0.00  0.00    +0.000 C 
ATOM     21  O   UNL     1      46.410   3.169  13.508  0.00  0.00    +0.000 OA
ATOM     22  H   UNL     1      45.034   5.992  13.182  0.00  0.00    +0.000 HD
BRANCH  20  23
ATOM     23  C   UNL     1      47.267   5.238  14.227  0.00  0.00    +0.000 A 
ATOM     24  C   UNL     1      47.907   6.252  13.525  0.00  0.00    +0.000 A 
ATOM     25  S   UNL     1      48.974   7.177  14.477  0.00  0.00    +0.000 S 
ATOM     26  C   UNL     1      48.661   6.223  15.852  0.00  0.00    +0.000 A 
ATOM     27  N   UNL     1      49.287   6.472  17.035  0.00  0.00    +0.000 NA
ATOM     28  C   UNL     1      48.977   5.653  17.985  0.00  0.00    +0.000 A 
ATOM     29  N   UNL     1      48.086   4.616  17.862  0.00  0.00    +0.000 N 
ATOM     30  C   UNL     1      47.410   4.346  16.697  0.00  0.00    +0.000 A 
ATOM     31  O   UNL     1      46.585   3.437  16.637  0.00  0.00    +0.000 OA
ATOM     32  C   UNL     1      47.736   5.229  15.593  0.00  0.00    +0.000 A 
ATOM     33  H   UNL     1      47.875   4.023  18.650  0.00  0.00    +0.000 HD
ENDBRANCH  20  23
ENDBRANCH  18  19
ENDBRANCH   4  18
TORSDOF 7
ENDMDL
MODEL 5
REMARK VINA RESULT:    -7.315      3.315      8.768
REMARK INTER + INTRA:         -11.170
REMARK INTER:                  -9.625
REMARK INTRA:                  -1.545
REMARK UNBOUND:                -0.862
REMARK  Name = 
REMARK  8 active torsions:
REMARK  status: ('A' for Active; 'I' for Inactive)
REMARK    1  A    between atoms: C_1  and  C_2
REMARK    2  A    between atoms: C_6  and  C_7
REMARK    3  A    between atoms: C_7  and  N_8
REMARK    4  A    between atoms: N_8  and  C_9
REMARK    5  A    between atoms: C_9  and  C_10
REMARK    6  A    between atoms: C_13  and  C_14
REMARK    7  A    between atoms: C_14  and  N_15
REMARK    8  A    between atoms: C_16  and  C_18
REMARK                            x       y       z     vdW  Elec       q    Type
REMARK                         _______ _______ _______ _____ _____    ______ ____
ROOT
ATOM      1  C   UNL     1      49.608   8.451  15.729  0.00  0.00    +0.000 A 
ATOM      2  C   UNL     1      48.313   8.931  15.474  0.00  0.00    +0.000 A 
ATOM      3  C   UNL     1      47.733   8.793  14.210  0.00  0.00    +0.000 A 
ATOM      4  C   UNL     1      48.436   8.171  13.171  0.00  0.00    +0.000 A 
ATOM      5  C   UNL     1      49.743   7.732  13.412  0.00  0.00    +0.000 A 
ATOM      6  C   UNL     1      50.321   7.861  14.679  0.00  0.00    +0.000 A 
ENDROOT
BRANCH   1   7
ATOM      7  C   UNL     1      50.214   8.573  17.112  0.00  0.00    +0.000 C 
BRANCH   7   8
ATOM      8  N   UNL     1      49.654   7.578  18.018  0.00  0.00    +0.000 NA
ATOM      9  H   UNL     1      49.789   7.865  18.987  0.00  0.00    +0.000 HD
BRANCH   8  10
ATOM     10  C   UNL     1      50.300   6.263  17.864  0.00  0.00    +0.000 C 
BRANCH  10  16
ATOM     11  C   UNL     1      46.969   4.336  14.869  0.00  0.00    +0.000 C 
ATOM     12  C   UNL     1      47.708   4.251  16.167  0.00  0.00    +0.000 A 
ATOM     13  C   UNL     1      47.457   3.241  17.073  0.00  0.00    +0.000 A 
ATOM     14  C   UNL     1      48.203   3.260  18.229  0.00  0.00    +0.000 A 
ATOM     15  N   UNL     1      49.129   4.196  18.502  0.00  0.00    +0.000 NA
ATOM     16  C   UNL     1      49.297   5.159  17.568  0.00  0.00    +0.000 A 
ATOM     17  N   UNL     1      48.627   5.214  16.398  0.00  0.00    +0.000 NA
ENDBRANCH  10  16
ENDBRANCH   8  10
ENDBRANCH   7   8
ENDBRANCH   1   7
BRANCH   4  18
ATOM     18  C   UNL     1      47.820   8.004  11.806  0.00  0.00    +0.000 C 
BRANCH  18  19
ATOM     19  N   UNL     1      47.047   6.790  11.733  0.00  0.00    +0.000 N 
ATOM     20  C   UNL     1      45.675   6.808  11.766  0.00  0.00    +0.000 C 
ATOM     21  O   UNL     1      45.037   7.853  11.821  0.00  0.00    +0.000 OA
ATOM     22  H   UNL     1      47.537   5.928  11.946  0.00  0.00    +0.000 HD
BRANCH  20  23
ATOM     23  C   UNL     1      45.010   5.507  11.655  0.00  0.00    +0.000 A 
ATOM     24  C   UNL     1      44.302   4.994  12.735  0.00  0.00    +0.000 A 
ATOM     25  S   UNL     1      43.547   3.502  12.412  0.00  0.00    +0.000 S 
ATOM     26  C   UNL     1      44.182   3.459  10.833  0.00  0.00    +0.000 A 
ATOM     27  N   UNL     1      43.930   2.409  10.004  0.00  0.00    +0.000 NA
ATOM     28  C   UNL     1      44.498   2.495   8.847  0.00  0.00    +0.000 A 
ATOM     29  N   UNL     1      45.285   3.544   8.439  0.00  0.00    +0.000 N 
ATOM     30  C   UNL     1      45.542   4.637   9.231  0.00  0.00    +0.000 A 
ATOM     31  O   UNL     1      46.214   5.578   8.816  0.00  0.00    +0.000 OA
ATOM     32  C   UNL     1      44.939   4.581  10.549  0.00  0.00    +0.000 A 
ATOM     33  H   UNL     1      45.685   3.556   7.514  0.00  0.00    +0.000 HD
ENDBRANCH  20  23
ENDBRANCH  18  19
ENDBRANCH   4  18
TORSDOF 7
ENDMDL
MODEL 6
REMARK VINA RESULT:    -6.660      1.945      3.214
REMARK INTER + INTRA:         -10.248
REMARK INTER:                  -9.422
REMARK INTRA:                  -0.826
REMARK UNBOUND:                -0.862
REMARK  Name = 
REMARK  8 active torsions:
REMARK  status: ('A' for Active; 'I' for Inactive)
REMARK    1  A    between atoms: C_1  and  C_2
REMARK    2  A    between atoms: C_6  and  C_7
REMARK    3  A    between atoms: C_7  and  N_8
REMARK    4  A    between atoms: N_8  and  C_9
REMARK    5  A    between atoms: C_9  and  C_10
REMARK    6  A    between atoms: C_13  and  C_14
REMARK    7  A    between atoms: C_14  and  N_15
REMARK    8  A    between atoms: C_16  and  C_18
REMARK                            x       y       z     vdW  Elec       q    Type
REMARK                         _______ _______ _______ _____ _____    ______ ____
ROOT
ATOM      1  C   UNL     1      46.082   7.393  12.442  0.00  0.00    +0.000 A 
ATOM      2  C   UNL     1      46.938   6.282  12.360  0.00  0.00    +0.000 A 
ATOM      3  C   UNL     1      48.105   6.220  13.127  0.00  0.00    +0.000 A 
ATOM      4  C   UNL     1      48.442   7.266  13.993  0.00  0.00    +0.000 A 
ATOM      5  C   UNL     1      47.614   8.393  14.041  0.00  0.00    +0.000 A 
ATOM      6  C   UNL     1      46.440   8.453  13.282  0.00  0.00    +0.000 A 
ENDROOT
BRANCH   1   7
ATOM      7  C   UNL     1      44.802   7.436  11.634  0.00  0.00    +0.000 C 
BRANCH   7   8
ATOM      8  N   UNL     1      43.752   6.652  12.275  0.00  0.00    +0.000 NA
ATOM      9  H   UNL     1      44.160   5.907  12.839  0.00  0.00    +0.000 HD
BRANCH   8  10
ATOM     10  C   UNL     1      42.862   6.011  11.292  0.00  0.00    +0.000 C 
BRANCH  10  16
ATOM     11  C   UNL     1      45.320   3.548   7.876  0.00  0.00    +0.000 C 
ATOM     12  C   UNL     1      44.564   3.514   9.167  0.00  0.00    +0.000 A 
ATOM     13  C   UNL     1      44.345   2.331   9.842  0.00  0.00    +0.000 A 
ATOM     14  C   UNL     1      43.643   2.424  11.022  0.00  0.00    +0.000 A 
ATOM     15  N   UNL     1      43.175   3.582  11.521  0.00  0.00    +0.000 NA
ATOM     16  C   UNL     1      43.420   4.690  10.786  0.00  0.00    +0.000 A 
ATOM     17  N   UNL     1      44.112   4.700   9.627  0.00  0.00    +0.000 NA
ENDBRANCH  10  16
ENDBRANCH   8  10
ENDBRANCH   7   8
ENDBRANCH   1   7
BRANCH   4  18
ATOM     18  C   UNL     1      49.692   7.208  14.834  0.00  0.00    +0.000 C 
BRANCH  18  19
ATOM     19  N   UNL     1      49.368   7.197  16.239  0.00  0.00    +0.000 N 
ATOM     20  C   UNL     1      48.852   6.081  16.848  0.00  0.00    +0.000 C 
ATOM     21  O   UNL     1      48.676   5.029  16.244  0.00  0.00    +0.000 OA
ATOM     22  H   UNL     1      49.259   8.101  16.685  0.00  0.00    +0.000 HD
BRANCH  20  23
ATOM     23  C   UNL     1      48.593   6.193  18.286  0.00  0.00    +0.000 A 
ATOM     24  C   UNL     1      48.844   5.114  19.124  0.00  0.00    +0.000 A 
ATOM     25  S   UNL     1      48.542   5.439  20.769  0.00  0.00    +0.000 S 
ATOM     26  C   UNL     1      48.013   7.018  20.416  0.00  0.00    +0.000 A 
ATOM     27  N   UNL     1      47.579   7.848  21.404  0.00  0.00    +0.000 NA
ATOM     28  C   UNL     1      47.181   9.006  20.990  0.00  0.00    +0.000 A 
ATOM     29  N   UNL     1      47.190   9.413  19.679  0.00  0.00    +0.000 N 
ATOM     30  C   UNL     1      47.647   8.620  18.655  0.00  0.00    +0.000 A 
ATOM     31  O   UNL     1      47.683   9.034  17.498  0.00  0.00    +0.000 OA
ATOM     32  C   UNL     1      48.091   7.301  19.066  0.00  0.00    +0.000 A 
ATOM     33  H   UNL     1      46.881  10.338  19.426  0.00  0.00    +0.000 HD
ENDBRANCH  20  23
ENDBRANCH  18  19
ENDBRANCH   4  18
TORSDOF 7
ENDMDL
MODEL 7
REMARK VINA RESULT:    -6.629      3.753      9.557
REMARK INTER + INTRA:         -10.204
REMARK INTER:                  -9.120
REMARK INTRA:                  -1.084
REMARK UNBOUND:                -0.862
REMARK  Name = 
REMARK  8 active torsions:
REMARK  status: ('A' for Active; 'I' for Inactive)
REMARK    1  A    between atoms: C_1  and  C_2
REMARK    2  A    between atoms: C_6  and  C_7
REMARK    3  A    between atoms: C_7  and  N_8
REMARK    4  A    between atoms: N_8  and  C_9
REMARK    5  A    between atoms: C_9  and  C_10
REMARK    6  A    between atoms: C_13  and  C_14
REMARK    7  A    between atoms: C_14  and  N_15
REMARK    8  A    between atoms: C_16  and  C_18
REMARK                            x       y       z     vdW  Elec       q    Type
REMARK                         _______ _______ _______ _____ _____    ______ ____
ROOT
ATOM      1  C   UNL     1      49.103   5.526  19.944  0.00  0.00    +0.000 A 
ATOM      2  C   UNL     1      49.870   4.590  19.230  0.00  0.00    +0.000 A 
ATOM      3  C   UNL     1      49.345   3.937  18.111  0.00  0.00    +0.000 A 
ATOM      4  C   UNL     1      48.041   4.206  17.679  0.00  0.00    +0.000 A 
ATOM      5  C   UNL     1      47.260   5.103  18.416  0.00  0.00    +0.000 A 
ATOM      6  C   UNL     1      47.787   5.765  19.531  0.00  0.00    +0.000 A 
ENDROOT
BRANCH   1   7
ATOM      7  C   UNL     1      49.692   6.254  21.133  0.00  0.00    +0.000 C 
BRANCH   7   8
ATOM      8  N   UNL     1      49.551   7.698  20.985  0.00  0.00    +0.000 NA
ATOM      9  H   UNL     1      48.599   7.935  20.709  0.00  0.00    +0.000 HD
BRANCH   8  10
ATOM     10  C   UNL     1      50.447   8.237  19.947  0.00  0.00    +0.000 C 
BRANCH  10  16
ATOM     11  C   UNL     1      47.290  11.638  18.450  0.00  0.00    +0.000 C 
ATOM     12  C   UNL     1      48.175  10.486  18.095  0.00  0.00    +0.000 A 
ATOM     13  C   UNL     1      48.257  10.013  16.801  0.00  0.00    +0.000 A 
ATOM     14  C   UNL     1      49.110   8.953  16.593  0.00  0.00    +0.000 A 
ATOM     15  N   UNL     1      49.836   8.379  17.568  0.00  0.00    +0.000 NA
ATOM     16  C   UNL     1      49.681   8.893  18.809  0.00  0.00    +0.000 A 
ATOM     17  N   UNL     1      48.883   9.940  19.107  0.00  0.00    +0.000 NA
ENDBRANCH  10  16
ENDBRANCH   8  10
ENDBRANCH   7   8
ENDBRANCH   1   7
BRANCH   4  18
ATOM     18  C   UNL     1      47.465   3.518  16.468  0.00  0.00    +0.000 C 
BRANCH  18  19
ATOM     19  N   UNL     1      46.861   4.472  15.572  0.00  0.00    +0.000 N 
ATOM     20  C   UNL     1      46.767   4.232  14.224  0.00  0.00    +0.000 C 
ATOM     21  O   UNL     1      47.154   3.184  13.719  0.00  0.00    +0.000 OA
ATOM     22  H   UNL     1      46.776   5.423  15.914  0.00  0.00    +0.000 HD
BRANCH  20  23
ATOM     23  C   UNL     1      46.105   5.270  13.429  0.00  0.00    +0.000 A 
ATOM     24  C   UNL     1      46.740   6.486  13.207  0.00  0.00    +0.000 A 
ATOM     25  S   UNL     1      45.853   7.550  12.217  0.00  0.00    +0.000 S 
ATOM     26  C   UNL     1      44.563   6.446  12.090  0.00  0.00    +0.000 A 
ATOM     27  N   UNL     1      43.443   6.755  11.380  0.00  0.00    +0.000 NA
ATOM     28  C   UNL     1      42.534   5.837  11.393  0.00  0.00    +0.000 A 
ATOM     29  N   UNL     1      42.650   4.633  12.041  0.00  0.00    +0.000 N 
ATOM     30  C   UNL     1      43.772   4.267  12.744  0.00  0.00    +0.000 A 
ATOM     31  O   UNL     1      43.858   3.162  13.275  0.00  0.00    +0.000 OA
ATOM     32  C   UNL     1      44.818   5.272  12.774  0.00  0.00    +0.000 A 
ATOM     33  H   UNL     1      41.907   3.952  11.997  0.00  0.00    +0.000 HD
ENDBRANCH  20  23
ENDBRANCH  18  19
ENDBRANCH   4  18
TORSDOF 7
ENDMDL
MODEL 8
REMARK VINA RESULT:    -6.588      2.165      3.024
REMARK INTER + INTRA:         -10.145
REMARK INTER:                  -9.132
REMARK INTRA:                  -1.013
REMARK UNBOUND:                -0.862
REMARK  Name = 
REMARK  8 active torsions:
REMARK  status: ('A' for Active; 'I' for Inactive)
REMARK    1  A    between atoms: C_1  and  C_2
REMARK    2  A    between atoms: C_6  and  C_7
REMARK    3  A    between atoms: C_7  and  N_8
REMARK    4  A    between atoms: N_8  and  C_9
REMARK    5  A    between atoms: C_9  and  C_10
REMARK    6  A    between atoms: C_13  and  C_14
REMARK    7  A    between atoms: C_14  and  N_15
REMARK    8  A    between atoms: C_16  and  C_18
REMARK                            x       y       z     vdW  Elec       q    Type
REMARK                         _______ _______ _______ _____ _____    ______ ____
ROOT
ATOM      1  C   UNL     1      46.237   5.190  12.443  0.00  0.00    +0.000 A 
ATOM      2  C   UNL     1      46.878   4.889  13.656  0.00  0.00    +0.000 A 
ATOM      3  C   UNL     1      47.599   5.866  14.348  0.00  0.00    +0.000 A 
ATOM      4  C   UNL     1      47.695   7.167  13.842  0.00  0.00    +0.000 A 
ATOM      5  C   UNL     1      47.096   7.457  12.611  0.00  0.00    +0.000 A 
ATOM      6  C   UNL     1      46.366   6.483  11.922  0.00  0.00    +0.000 A 
ENDROOT
BRANCH   1   7
ATOM      7  C   UNL     1      45.430   4.134  11.718  0.00  0.00    +0.000 C 
BRANCH   7   8
ATOM      8  N   UNL     1      44.584   4.734  10.692  0.00  0.00    +0.000 NA
ATOM      9  H   UNL     1      43.758   5.156  11.116  0.00  0.00    +0.000 HD
BRANCH   8  10
ATOM     10  C   UNL     1      44.108   3.740   9.716  0.00  0.00    +0.000 C 
BRANCH  10  16
ATOM     11  C   UNL     1      46.802   0.225   7.673  0.00  0.00    +0.000 C 
ATOM     12  C   UNL     1      46.483   1.684   7.771  0.00  0.00    +0.000 A 
ATOM     13  C   UNL     1      47.173   2.623   7.032  0.00  0.00    +0.000 A 
ATOM     14  C   UNL     1      46.787   3.933   7.199  0.00  0.00    +0.000 A 
ATOM     15  N   UNL     1      45.802   4.319   8.030  0.00  0.00    +0.000 NA
ATOM     16  C   UNL     1      45.192   3.336   8.729  0.00  0.00    +0.000 A 
ATOM     17  N   UNL     1      45.489   2.024   8.619  0.00  0.00    +0.000 NA
ENDBRANCH  10  16
ENDBRANCH   8  10
ENDBRANCH   7   8
ENDBRANCH   1   7
BRANCH   4  18
ATOM     18  C   UNL     1      48.460   8.235  14.582  0.00  0.00    +0.000 C 
BRANCH  18  19
ATOM     19  N   UNL     1      48.036   8.314  15.958  0.00  0.00    +0.000 N 
ATOM     20  C   UNL     1      48.871   7.962  16.988  0.00  0.00    +0.000 C 
ATOM     21  O   UNL     1      50.027   7.600  16.798  0.00  0.00    +0.000 OA
ATOM     22  H   UNL     1      47.036   8.355  16.121  0.00  0.00    +0.000 HD
BRANCH  20  23
ATOM     23  C   UNL     1      48.327   8.115  18.340  0.00  0.00    +0.000 A 
ATOM     24  C   UNL     1      48.281   7.023  19.199  0.00  0.00    +0.000 A 
ATOM     25  S   UNL     1      47.673   7.394  20.746  0.00  0.00    +0.000 S 
ATOM     26  C   UNL     1      47.398   9.017  20.310  0.00  0.00    +0.000 A 
ATOM     27  N   UNL     1      46.854   9.898  21.194  0.00  0.00    +0.000 NA
ATOM     28  C   UNL     1      46.676  11.087  20.720  0.00  0.00    +0.000 A 
ATOM     29  N   UNL     1      47.006  11.477  19.445  0.00  0.00    +0.000 N 
ATOM     30  C   UNL     1      47.583  10.630  18.531  0.00  0.00    +0.000 A 
ATOM     31  O   UNL     1      47.906  11.027  17.413  0.00  0.00    +0.000 OA
ATOM     32  C   UNL     1      47.789   9.276  19.009  0.00  0.00    +0.000 A 
ATOM     33  H   UNL     1      46.856  12.427  19.144  0.00  0.00    +0.000 HD
ENDBRANCH  20  23
ENDBRANCH  18  19
ENDBRANCH   4  18
TORSDOF 7
ENDMDL
MODEL 9
REMARK VINA RESULT:    -6.489      5.201      6.411
REMARK INTER + INTRA:         -10.006
REMARK INTER:                  -8.914
REMARK INTRA:                  -1.092
REMARK UNBOUND:                -0.862
REMARK  Name = 
REMARK  8 active torsions:
REMARK  status: ('A' for Active; 'I' for Inactive)
REMARK    1  A    between atoms: C_1  and  C_2
REMARK    2  A    between atoms: C_6  and  C_7
REMARK    3  A    between atoms: C_7  and  N_8
REMARK    4  A    between atoms: N_8  and  C_9
REMARK    5  A    between atoms: C_9  and  C_10
REMARK    6  A    between atoms: C_13  and  C_14
REMARK    7  A    between atoms: C_14  and  N_15
REMARK    8  A    between atoms: C_16  and  C_18
REMARK                            x       y       z     vdW  Elec       q    Type
REMARK                         _______ _______ _______ _____ _____    ______ ____
ROOT
ATOM      1  C   UNL     1      44.911   6.402  11.685  0.00  0.00    +0.000 A 
ATOM      2  C   UNL     1      46.293   6.296  11.908  0.00  0.00    +0.000 A 
ATOM      3  C   UNL     1      47.077   7.437  12.109  0.00  0.00    +0.000 A 
ATOM      4  C   UNL     1      46.494   8.709  12.091  0.00  0.00    +0.000 A 
ATOM      5  C   UNL     1      45.125   8.819  11.824  0.00  0.00    +0.000 A 
ATOM      6  C   UNL     1      44.338   7.679  11.633  0.00  0.00    +0.000 A 
ENDROOT
BRANCH   1   7
ATOM      7  C   UNL     1      44.065   5.160  11.503  0.00  0.00    +0.000 C 
BRANCH   7   8
ATOM      8  N   UNL     1      44.895   4.004  11.183  0.00  0.00    +0.000 NA
ATOM      9  H   UNL     1      45.818   4.306  10.871  0.00  0.00    +0.000 HD
BRANCH   8  10
ATOM     10  C   UNL     1      44.318   3.193  10.098  0.00  0.00    +0.000 C 
BRANCH  10  16
ATOM     11  C   UNL     1      47.047   0.185   7.398  0.00  0.00    +0.000 C 
ATOM     12  C   UNL     1      46.598   1.585   7.676  0.00  0.00    +0.000 A 
ATOM     13  C   UNL     1      47.080   2.653   6.947  0.00  0.00    +0.000 A 
ATOM     14  C   UNL     1      46.590   3.893   7.287  0.00  0.00    +0.000 A 
ATOM     15  N   UNL     1      45.695   4.096   8.271  0.00  0.00    +0.000 NA
ATOM     16  C   UNL     1      45.291   2.996   8.945  0.00  0.00    +0.000 A 
ATOM     17  N   UNL     1      45.702   1.740   8.674  0.00  0.00    +0.000 NA
ENDBRANCH  10  16
ENDBRANCH   8  10
ENDBRANCH   7   8
ENDBRANCH   1   7
BRANCH   4  18
ATOM     18  C   UNL     1      47.324   9.948  12.317  0.00  0.00    +0.000 C 
BRANCH  18  19
ATOM     19  N   UNL     1      48.536   9.906  11.538  0.00  0.00    +0.000 N 
ATOM     20  C   UNL     1      49.688  10.515  11.969  0.00  0.00    +0.000 C 
ATOM     21  O   UNL     1      49.758  11.091  13.049  0.00  0.00    +0.000 OA
ATOM     22  H   UNL     1      48.435   9.672  10.557  0.00  0.00    +0.000 HD
BRANCH  20  23
ATOM     23  C   UNL     1      50.856  10.373  11.097  0.00  0.00    +0.000 A 
ATOM     24  C   UNL     1      51.446  11.500  10.535  0.00  0.00    +0.000 A 
ATOM     25  S   UNL     1      52.825  11.155   9.597  0.00  0.00    +0.000 S 
ATOM     26  C   UNL     1      52.656   9.482   9.862  0.00  0.00    +0.000 A 
ATOM     27  N   UNL     1      53.523   8.593   9.305  0.00  0.00    +0.000 NA
ATOM     28  C   UNL     1      53.259   7.355   9.566  0.00  0.00    +0.000 A 
ATOM     29  N   UNL     1      52.214   6.928  10.347  0.00  0.00    +0.000 N 
ATOM     30  C   UNL     1      51.333   7.790  10.953  0.00  0.00    +0.000 A 
ATOM     31  O   UNL     1      50.435   7.374  11.682  0.00  0.00    +0.000 OA
ATOM     32  C   UNL     1      51.577   9.194  10.676  0.00  0.00    +0.000 A 
ATOM     33  H   UNL     1      52.074   5.946  10.526  0.00  0.00    +0.000 HD
ENDBRANCH  20  23
ENDBRANCH  18  19
ENDBRANCH   4  18
TORSDOF 7
ENDMDL
