MODEL 1
REMARK VINA RESULT:    -7.907      0.000      0.000
REMARK INTER + INTRA:         -12.105
REMARK INTER:                 -11.143
REMARK INTRA:                  -0.962
REMARK UNBOUND:                -0.962
REMARK  Name = 
REMARK  7 active torsions:
REMARK  status: ('A' for Active; 'I' for Inactive)
REMARK    1  A    between atoms: C_2  and  C_20
REMARK    2  A    between atoms: N_3  and  C_4
REMARK    3  A    between atoms: C_4  and  C_5
REMARK    4  A    between atoms: C_8  and  C_9
REMARK    5  A    between atoms: C_9  and  C_10
REMARK    6  A    between atoms: C_10  and  N_11
REMARK    7  A    between atoms: N_11  and  C_12
REMARK                            x       y       z     vdW  Elec       q    Type
REMARK                         _______ _______ _______ _____ _____    ______ ____
ROOT
ATOM      1  C   UNL     1      46.030   6.600  12.560  0.00  0.00    +0.000 A 
ATOM      2  C   UNL     1      45.953   6.420  11.178  0.00  0.00    +0.000 A 
ATOM      3  C   UNL     1      45.316   5.299  10.637  0.00  0.00    +0.000 A 
ATOM      4  C   UNL     1      44.729   4.329  11.463  0.00  0.00    +0.000 A 
ATOM      5  C   UNL     1      44.790   4.524  12.850  0.00  0.00    +0.000 A 
ATOM      6  C   UNL     1      45.427   5.649  13.393  0.00  0.00    +0.000 A 
ENDROOT
BRANCH   1   7
ATOM      7  C   UNL     1      46.762   7.790  13.123  0.00  0.00    +0.000 C 
BRANCH   7  10
ATOM      8  O   UNL     1      49.226   6.548  13.365  0.00  0.00    +0.000 OA
ATOM      9  C   UNL     1      48.643   6.878  14.392  0.00  0.00    +0.000 C 
ATOM     10  N   UNL     1      47.407   7.490  14.379  0.00  0.00    +0.000 N 
ATOM     11  H   UNL     1      47.027   7.903  15.217  0.00  0.00    +0.000 HD
BRANCH   9  12
ATOM     12  C   UNL     1      49.218   6.659  15.706  0.00  0.00    +0.000 A 
ATOM     13  C   UNL     1      50.259   7.339  16.377  0.00  0.00    +0.000 A 
ATOM     14  N   UNL     1      50.513   6.861  17.595  0.00  0.00    +0.000 NA
ATOM     15  N   UNL     1      49.620   5.856  17.751  0.00  0.00    +0.000 N 
ATOM     16  C   UNL     1      49.435   5.023  18.839  0.00  0.00    +0.000 A 
ATOM     17  C   UNL     1      48.485   4.077  18.779  0.00  0.00    +0.000 A 
ATOM     18  N   UNL     1      47.669   3.882  17.682  0.00  0.00    +0.000 NA
ATOM     19  C   UNL     1      47.835   4.666  16.650  0.00  0.00    +0.000 A 
ATOM     20  C   UNL     1      48.830   5.706  16.633  0.00  0.00    +0.000 A 
ENDBRANCH   9  12
ENDBRANCH   7  10
ENDBRANCH   1   7
BRANCH   4  21
ATOM     21  C   UNL     1      44.042   3.084  10.923  0.00  0.00    +0.000 C 
BRANCH  21  22
ATOM     22  C   UNL     1      44.276   2.817   9.430  0.00  0.00    +0.000 C 
BRANCH  22  23
ATOM     23  N   UNL     1      45.320   1.816   9.198  0.00  0.00    +0.000 N 
ATOM     24  H   UNL     1      44.969   0.862   9.249  0.00  0.00    +0.000 HD
BRANCH  23  25
ATOM     25  C   UNL     1      46.113   2.000   8.046  0.00  0.00    +0.000 A 
ATOM     26  C   UNL     1      46.902   0.984   7.489  0.00  0.00    +0.000 A 
ATOM     27  C   UNL     1      47.606   1.176   6.295  0.00  0.00    +0.000 A 
ATOM     28  C   UNL     1      47.513   2.386   5.621  0.00  0.00    +0.000 A 
ATOM     29  C   UNL     1      46.712   3.401   6.138  0.00  0.00    +0.000 A 
ATOM     30  C   UNL     1      46.008   3.202   7.332  0.00  0.00    +0.000 A 
ENDBRANCH  23  25
ENDBRANCH  22  23
ENDBRANCH  21  22
ENDBRANCH   4  21
TORSDOF 7
ENDMDL
MODEL 2
REMARK VINA RESULT:    -7.582      1.656      2.128
REMARK INTER + INTRA:         -11.647
REMARK INTER:                 -10.842
REMARK INTRA:                  -0.805
REMARK UNBOUND:                -0.962
REMARK  Name = 
REMARK  7 active torsions:
REMARK  status: ('A' for Active; 'I' for Inactive)
REMARK    1  A    between atoms: C_2  and  C_20
REMARK    2  A    between atoms: N_3  and  C_4
REMARK    3  A    between atoms: C_4  and  C_5
REMARK    4  A    between atoms: C_8  and  C_9
REMARK    5  A    between atoms: C_9  and  C_10
REMARK    6  A    between atoms: C_10  and  N_11
REMARK    7  A    between atoms: N_11  and  C_12
REMARK                            x       y       z     vdW  Elec       q    Type
REMARK                         _______ _______ _______ _____ _____    ______ ____
ROOT
ATOM      1  C   UNL     1      46.750   5.584  12.985  0.00  0.00    +0.000 A 
ATOM      2  C   UNL     1      46.335   6.140  11.772  0.00  0.00    +0.000 A 
ATOM      3  C   UNL     1      45.429   5.465  10.951  0.00  0.00    +0.000 A 
ATOM      4  C   UNL     1      44.902   4.218  11.320  0.00  0.00    +0.000 A 
ATOM      5  C   UNL     1      45.304   3.675  12.549  0.00  0.00    +0.000 A 
ATOM      6  C   UNL     1      46.212   4.351  13.375  0.00  0.00    +0.000 A 
ENDROOT
BRANCH   1   7
ATOM      7  C   UNL     1      47.764   6.306  13.833  0.00  0.00    +0.000 C 
BRANCH   7  10
ATOM      8  O   UNL     1      49.892   6.466  15.599  0.00  0.00    +0.000 OA
ATOM      9  C   UNL     1      48.827   6.024  16.017  0.00  0.00    +0.000 C 
ATOM     10  N   UNL     1      47.714   5.892  15.215  0.00  0.00    +0.000 N 
ATOM     11  H   UNL     1      46.810   5.690  15.615  0.00  0.00    +0.000 HD
BRANCH   9  12
ATOM     12  C   UNL     1      48.655   5.614  17.398  0.00  0.00    +0.000 A 
ATOM     13  C   UNL     1      48.822   4.349  18.007  0.00  0.00    +0.000 A 
ATOM     14  N   UNL     1      48.584   4.352  19.319  0.00  0.00    +0.000 NA
ATOM     15  N   UNL     1      48.269   5.638  19.597  0.00  0.00    +0.000 N 
ATOM     16  C   UNL     1      47.942   6.205  20.816  0.00  0.00    +0.000 A 
ATOM     17  C   UNL     1      47.655   7.515  20.866  0.00  0.00    +0.000 A 
ATOM     18  N   UNL     1      47.666   8.343  19.761  0.00  0.00    +0.000 NA
ATOM     19  C   UNL     1      47.976   7.817  18.606  0.00  0.00    +0.000 A 
ATOM     20  C   UNL     1      48.298   6.421  18.465  0.00  0.00    +0.000 A 
ENDBRANCH   9  12
ENDBRANCH   7  10
ENDBRANCH   1   7
BRANCH   4  21
ATOM     21  C   UNL     1      43.928   3.438  10.451  0.00  0.00    +0.000 C 
BRANCH  21  22
ATOM     22  C   UNL     1      44.433   3.128   9.036  0.00  0.00    +0.000 C 
BRANCH  22  23
ATOM     23  N   UNL     1      45.626   2.278   9.043  0.00  0.00    +0.000 N 
ATOM     24  H   UNL     1      45.457   1.367   9.464  0.00  0.00    +0.000 HD
BRANCH  23  25
ATOM     25  C   UNL     1      46.303   2.146   7.812  0.00  0.00    +0.000 A 
ATOM     26  C   UNL     1      46.857   0.937   7.368  0.00  0.00    +0.000 A 
ATOM     27  C   UNL     1      47.444   0.823   6.103  0.00  0.00    +0.000 A 
ATOM     28  C   UNL     1      47.465   1.915   5.246  0.00  0.00    +0.000 A 
ATOM     29  C   UNL     1      46.896   3.119   5.653  0.00  0.00    +0.000 A 
ATOM     30  C   UNL     1      46.308   3.227   6.919  0.00  0.00    +0.000 A 
ENDBRANCH  23  25
ENDBRANCH  22  23
ENDBRANCH  21  22
ENDBRANCH   4  21
TORSDOF 7
ENDMDL
MODEL 3
REMARK VINA RESULT:    -7.410      2.159      2.782
REMARK INTER + INTRA:         -11.404
REMARK INTER:                 -10.482
REMARK INTRA:                  -0.922
REMARK UNBOUND:                -0.962
REMARK  Name = 
REMARK  7 active torsions:
REMARK  status: ('A' for Active; 'I' for Inactive)
REMARK    1  A    between atoms: C_2  and  C_20
REMARK    2  A    between atoms: N_3  and  C_4
REMARK    3  A    between atoms: C_4  and  C_5
REMARK    4  A    between atoms: C_8  and  C_9
REMARK    5  A    between atoms: C_9  and  C_10
REMARK    6  A    between atoms: C_10  and  N_11
REMARK    7  A    between atoms: N_11  and  C_12
REMARK                            x       y       z     vdW  Elec       q    Type
REMARK                         _______ _______ _______ _____ _____    ______ ____
ROOT
ATOM      1  C   UNL     1      46.913   4.402  14.195  0.00  0.00    +0.000 A 
ATOM      2  C   UNL     1      46.183   3.425  13.515  0.00  0.00    +0.000 A 
ATOM      3  C   UNL     1      45.503   3.734  12.333  0.00  0.00    +0.000 A 
ATOM      4  C   UNL     1      45.541   5.028  11.791  0.00  0.00    +0.000 A 
ATOM      5  C   UNL     1      46.293   6.000  12.466  0.00  0.00    +0.000 A 
ATOM      6  C   UNL     1      46.976   5.691  13.650  0.00  0.00    +0.000 A 
ENDROOT
BRANCH   1   7
ATOM      7  C   UNL     1      47.598   4.060  15.492  0.00  0.00    +0.000 C 
BRANCH   7  10
ATOM      8  O   UNL     1      49.842   5.420  16.377  0.00  0.00    +0.000 OA
ATOM      9  C   UNL     1      48.747   5.778  16.798  0.00  0.00    +0.000 C 
ATOM     10  N   UNL     1      47.573   5.158  16.429  0.00  0.00    +0.000 N 
ATOM     11  H   UNL     1      46.679   5.572  16.649  0.00  0.00    +0.000 HD
BRANCH   9  12
ATOM     12  C   UNL     1      48.604   6.895  17.713  0.00  0.00    +0.000 A 
ATOM     13  C   UNL     1      48.827   8.277  17.516  0.00  0.00    +0.000 A 
ATOM     14  N   UNL     1      48.576   9.018  18.595  0.00  0.00    +0.000 NA
ATOM     15  N   UNL     1      48.165   8.125  19.524  0.00  0.00    +0.000 N 
ATOM     16  C   UNL     1      47.767   8.354  20.829  0.00  0.00    +0.000 A 
ATOM     17  C   UNL     1      47.400   7.311  21.589  0.00  0.00    +0.000 A 
ATOM     18  N   UNL     1      47.394   6.004  21.141  0.00  0.00    +0.000 NA
ATOM     19  C   UNL     1      47.766   5.778  19.909  0.00  0.00    +0.000 A 
ATOM     20  C   UNL     1      48.174   6.840  19.028  0.00  0.00    +0.000 A 
ENDBRANCH   9  12
ENDBRANCH   7  10
ENDBRANCH   1   7
BRANCH   4  21
ATOM     21  C   UNL     1      44.803   5.417  10.519  0.00  0.00    +0.000 C 
BRANCH  21  22
ATOM     22  C   UNL     1      44.051   4.268   9.834  0.00  0.00    +0.000 C 
BRANCH  22  23
ATOM     23  N   UNL     1      44.370   4.163   8.409  0.00  0.00    +0.000 N 
ATOM     24  H   UNL     1      44.513   5.071   7.970  0.00  0.00    +0.000 HD
BRANCH  23  25
ATOM     25  C   UNL     1      45.406   3.270   8.066  0.00  0.00    +0.000 A 
ATOM     26  C   UNL     1      45.442   1.936   8.497  0.00  0.00    +0.000 A 
ATOM     27  C   UNL     1      46.440   1.056   8.066  0.00  0.00    +0.000 A 
ATOM     28  C   UNL     1      47.410   1.489   7.172  0.00  0.00    +0.000 A 
ATOM     29  C   UNL     1      47.380   2.801   6.707  0.00  0.00    +0.000 A 
ATOM     30  C   UNL     1      46.377   3.677   7.140  0.00  0.00    +0.000 A 
ENDBRANCH  23  25
ENDBRANCH  22  23
ENDBRANCH  21  22
ENDBRANCH   4  21
TORSDOF 7
ENDMDL
MODEL 4
REMARK VINA RESULT:    -7.287      1.409      1.818
REMARK INTER + INTRA:         -11.232
REMARK INTER:                 -10.455
REMARK INTRA:                  -0.776
REMARK UNBOUND:                -0.962
REMARK  Name = 
REMARK  7 active torsions:
REMARK  status: ('A' for Active; 'I' for Inactive)
REMARK    1  A    between atoms: C_2  and  C_20
REMARK    2  A    between atoms: N_3  and  C_4
REMARK    3  A    between atoms: C_4  and  C_5
REMARK    4  A    between atoms: C_8  and  C_9
REMARK    5  A    between atoms: C_9  and  C_10
REMARK    6  A    between atoms: C_10  and  N_11
REMARK    7  A    between atoms: N_11  and  C_12
REMARK                            x       y       z     vdW  Elec       q    Type
REMARK                         _______ _______ _______ _____ _____    ______ ____
ROOT
ATOM      1  C   UNL     1      46.765   6.982  12.893  0.00  0.00    +0.000 A 
ATOM      2  C   UNL     1      45.911   7.792  12.141  0.00  0.00    +0.000 A 
ATOM      3  C   UNL     1      44.867   7.234  11.399  0.00  0.00    +0.000 A 
ATOM      4  C   UNL     1      44.639   5.849  11.394  0.00  0.00    +0.000 A 
ATOM      5  C   UNL     1      45.486   5.042  12.167  0.00  0.00    +0.000 A 
ATOM      6  C   UNL     1      46.532   5.601  12.913  0.00  0.00    +0.000 A 
ENDROOT
BRANCH   1   7
ATOM      7  C   UNL     1      47.914   7.600  13.648  0.00  0.00    +0.000 C 
BRANCH   7  10
ATOM      8  O   UNL     1      48.415   8.442  16.238  0.00  0.00    +0.000 OA
ATOM      9  C   UNL     1      48.599   7.260  15.970  0.00  0.00    +0.000 C 
ATOM     10  N   UNL     1      48.392   6.745  14.708  0.00  0.00    +0.000 N 
ATOM     11  H   UNL     1      48.385   5.748  14.552  0.00  0.00    +0.000 HD
BRANCH   9  12
ATOM     12  C   UNL     1      49.043   6.306  16.969  0.00  0.00    +0.000 A 
ATOM     13  C   UNL     1      50.137   6.355  17.863  0.00  0.00    +0.000 A 
ATOM     14  N   UNL     1      50.227   5.288  18.657  0.00  0.00    +0.000 NA
ATOM     15  N   UNL     1      49.171   4.520  18.304  0.00  0.00    +0.000 N 
ATOM     16  C   UNL     1      48.779   3.297  18.819  0.00  0.00    +0.000 A 
ATOM     17  C   UNL     1      47.691   2.698  18.312  0.00  0.00    +0.000 A 
ATOM     18  N   UNL     1      46.927   3.235  17.294  0.00  0.00    +0.000 NA
ATOM     19  C   UNL     1      47.288   4.391  16.803  0.00  0.00    +0.000 A 
ATOM     20  C   UNL     1      48.442   5.100  17.290  0.00  0.00    +0.000 A 
ENDBRANCH   9  12
ENDBRANCH   7  10
ENDBRANCH   1   7
BRANCH   4  21
ATOM     21  C   UNL     1      43.528   5.194  10.587  0.00  0.00    +0.000 C 
BRANCH  21  22
ATOM     22  C   UNL     1      43.962   3.967   9.775  0.00  0.00    +0.000 C 
BRANCH  22  23
ATOM     23  N   UNL     1      44.635   4.333   8.527  0.00  0.00    +0.000 N 
ATOM     24  H   UNL     1      45.063   5.256   8.567  0.00  0.00    +0.000 HD
BRANCH  23  25
ATOM     25  C   UNL     1      45.537   3.382   8.004  0.00  0.00    +0.000 A 
ATOM     26  C   UNL     1      46.584   3.717   7.134  0.00  0.00    +0.000 A 
ATOM     27  C   UNL     1      47.513   2.762   6.706  0.00  0.00    +0.000 A 
ATOM     28  C   UNL     1      47.425   1.454   7.163  0.00  0.00    +0.000 A 
ATOM     29  C   UNL     1      46.411   1.103   8.050  0.00  0.00    +0.000 A 
ATOM     30  C   UNL     1      45.487   2.064   8.477  0.00  0.00    +0.000 A 
ENDBRANCH  23  25
ENDBRANCH  22  23
ENDBRANCH  21  22
ENDBRANCH   4  21
TORSDOF 7
ENDMDL
MODEL 5
REMARK VINA RESULT:    -7.122      1.928      2.270
REMARK INTER + INTRA:         -10.999
REMARK INTER:                 -10.105
REMARK INTRA:                  -0.893
REMARK UNBOUND:                -0.962
REMARK  Name = 
REMARK  7 active torsions:
REMARK  status: ('A' for Active; 'I' for Inactive)
REMARK    1  A    between atoms: C_2  and  C_20
REMARK    2  A    between atoms: N_3  and  C_4
REMARK    3  A    between atoms: C_4  and  C_5
REMARK    4  A    between atoms: C_8  and  C_9
REMARK    5  A    between atoms: C_9  and  C_10
REMARK    6  A    between atoms: C_10  and  N_11
REMARK    7  A    between atoms: N_11  and  C_12
REMARK                            x       y       z     vdW  Elec       q    Type
REMARK                         _______ _______ _______ _____ _____    ______ ____
ROOT
ATOM      1  C   UNL     1      46.730   6.732  12.804  0.00  0.00    +0.000 A 
ATOM      2  C   UNL     1      46.113   6.683  11.552  0.00  0.00    +0.000 A 
ATOM      3  C   UNL     1      45.391   5.555  11.154  0.00  0.00    +0.000 A 
ATOM      4  C   UNL     1      45.256   4.444  12.000  0.00  0.00    +0.000 A 
ATOM      5  C   UNL     1      45.859   4.505  13.265  0.00  0.00    +0.000 A 
ATOM      6  C   UNL     1      46.581   5.637  13.665  0.00  0.00    +0.000 A 
ENDROOT
BRANCH   1   7
ATOM      7  C   UNL     1      47.543   7.938  13.194  0.00  0.00    +0.000 C 
BRANCH   7  10
ATOM      8  O   UNL     1      49.371   9.513  14.554  0.00  0.00    +0.000 OA
ATOM      9  C   UNL     1      48.471   8.986  15.198  0.00  0.00    +0.000 C 
ATOM     10  N   UNL     1      47.520   8.175  14.617  0.00  0.00    +0.000 N 
ATOM     11  H   UNL     1      46.697   7.894  15.130  0.00  0.00    +0.000 HD
BRANCH   9  12
ATOM     12  C   UNL     1      48.331   9.188  16.629  0.00  0.00    +0.000 A 
ATOM     13  C   UNL     1      48.034  10.357  17.366  0.00  0.00    +0.000 A 
ATOM     14  N   UNL     1      47.974  10.158  18.682  0.00  0.00    +0.000 NA
ATOM     15  N   UNL     1      48.218   8.835  18.831  0.00  0.00    +0.000 N 
ATOM     16  C   UNL     1      48.265   8.089  19.994  0.00  0.00    +0.000 A 
ATOM     17  C   UNL     1      48.533   6.777  19.914  0.00  0.00    +0.000 A 
ATOM     18  N   UNL     1      48.767   6.117  18.723  0.00  0.00    +0.000 NA
ATOM     19  C   UNL     1      48.722   6.813  17.619  0.00  0.00    +0.000 A 
ATOM     20  C   UNL     1      48.441   8.224  17.617  0.00  0.00    +0.000 A 
ENDBRANCH   9  12
ENDBRANCH   7  10
ENDBRANCH   1   7
BRANCH   4  21
ATOM     21  C   UNL     1      44.497   3.186  11.605  0.00  0.00    +0.000 C 
BRANCH  21  22
ATOM     22  C   UNL     1      44.121   3.102  10.120  0.00  0.00    +0.000 C 
BRANCH  22  23
ATOM     23  N   UNL     1      44.667   1.907   9.472  0.00  0.00    +0.000 N 
ATOM     24  H   UNL     1      43.944   1.250   9.186  0.00  0.00    +0.000 HD
BRANCH  23  25
ATOM     25  C   UNL     1      45.585   2.132   8.426  0.00  0.00    +0.000 A 
ATOM     26  C   UNL     1      45.801   3.393   7.852  0.00  0.00    +0.000 A 
ATOM     27  C   UNL     1      46.782   3.595   6.876  0.00  0.00    +0.000 A 
ATOM     28  C   UNL     1      47.588   2.538   6.473  0.00  0.00    +0.000 A 
ATOM     29  C   UNL     1      47.413   1.282   7.048  0.00  0.00    +0.000 A 
ATOM     30  C   UNL     1      46.431   1.087   8.026  0.00  0.00    +0.000 A 
ENDBRANCH  23  25
ENDBRANCH  22  23
ENDBRANCH  21  22
ENDBRANCH   4  21
TORSDOF 7
ENDMDL
MODEL 6
REMARK VINA RESULT:    -7.003      3.098      5.280
REMARK INTER + INTRA:         -10.831
REMARK INTER:                  -9.592
REMARK INTRA:                  -1.239
REMARK UNBOUND:                -0.962
REMARK  Name = 
REMARK  7 active torsions:
REMARK  status: ('A' for Active; 'I' for Inactive)
REMARK    1  A    between atoms: C_2  and  C_20
REMARK    2  A    between atoms: N_3  and  C_4
REMARK    3  A    between atoms: C_4  and  C_5
REMARK    4  A    between atoms: C_8  and  C_9
REMARK    5  A    between atoms: C_9  and  C_10
REMARK    6  A    between atoms: C_10  and  N_11
REMARK    7  A    between atoms: N_11  and  C_12
REMARK                            x       y       z     vdW  Elec       q    Type
REMARK                         _______ _______ _______ _____ _____    ______ ____
ROOT
ATOM      1  C   UNL     1      47.496   4.272  15.864  0.00  0.00    +0.000 A 
ATOM      2  C   UNL     1      46.817   3.812  14.733  0.00  0.00    +0.000 A 
ATOM      3  C   UNL     1      46.740   4.594  13.578  0.00  0.00    +0.000 A 
ATOM      4  C   UNL     1      47.348   5.857  13.514  0.00  0.00    +0.000 A 
ATOM      5  C   UNL     1      48.046   6.306  14.644  0.00  0.00    +0.000 A 
ATOM      6  C   UNL     1      48.125   5.522  15.803  0.00  0.00    +0.000 A 
ENDROOT
BRANCH   1   7
ATOM      7  C   UNL     1      47.526   3.434  17.115  0.00  0.00    +0.000 C 
BRANCH   7  10
ATOM      8  O   UNL     1      49.299   1.661  15.938  0.00  0.00    +0.000 OA
ATOM      9  C   UNL     1      49.681   2.297  16.914  0.00  0.00    +0.000 C 
ATOM     10  N   UNL     1      48.871   3.194  17.578  0.00  0.00    +0.000 N 
ATOM     11  H   UNL     1      49.255   3.826  18.265  0.00  0.00    +0.000 HD
BRANCH   9  12
ATOM     12  C   UNL     1      51.027   2.161  17.440  0.00  0.00    +0.000 A 
ATOM     13  C   UNL     1      51.769   1.005  17.774  0.00  0.00    +0.000 A 
ATOM     14  N   UNL     1      52.996   1.269  18.223  0.00  0.00    +0.000 NA
ATOM     15  N   UNL     1      53.084   2.618  18.176  0.00  0.00    +0.000 N 
ATOM     16  C   UNL     1      54.151   3.428  18.522  0.00  0.00    +0.000 A 
ATOM     17  C   UNL     1      54.022   4.759  18.403  0.00  0.00    +0.000 A 
ATOM     18  N   UNL     1      52.873   5.377  17.949  0.00  0.00    +0.000 NA
ATOM     19  C   UNL     1      51.862   4.620  17.617  0.00  0.00    +0.000 A 
ATOM     20  C   UNL     1      51.917   3.185  17.714  0.00  0.00    +0.000 A 
ENDBRANCH   9  12
ENDBRANCH   7  10
ENDBRANCH   1   7
BRANCH   4  21
ATOM     21  C   UNL     1      47.276   6.752  12.286  0.00  0.00    +0.000 C 
BRANCH  21  22
ATOM     22  C   UNL     1      45.941   7.485  12.102  0.00  0.00    +0.000 C 
BRANCH  22  23
ATOM     23  N   UNL     1      45.194   7.002  10.939  0.00  0.00    +0.000 N 
ATOM     24  H   UNL     1      45.736   7.046  10.078  0.00  0.00    +0.000 HD
BRANCH  23  25
ATOM     25  C   UNL     1      44.570   5.744  11.078  0.00  0.00    +0.000 A 
ATOM     26  C   UNL     1      44.919   4.627  10.307  0.00  0.00    +0.000 A 
ATOM     27  C   UNL     1      44.340   3.373  10.533  0.00  0.00    +0.000 A 
ATOM     28  C   UNL     1      43.417   3.209  11.557  0.00  0.00    +0.000 A 
ATOM     29  C   UNL     1      43.076   4.297  12.355  0.00  0.00    +0.000 A 
ATOM     30  C   UNL     1      43.660   5.548  12.126  0.00  0.00    +0.000 A 
ENDBRANCH  23  25
ENDBRANCH  22  23
ENDBRANCH  21  22
ENDBRANCH   4  21
TORSDOF 7
ENDMDL
MODEL 7
REMARK VINA RESULT:    -6.891      3.494      8.411
REMARK INTER + INTRA:         -10.673
REMARK INTER:                  -9.013
REMARK INTRA:                  -1.661
REMARK UNBOUND:                -0.962
REMARK  Name = 
REMARK  7 active torsions:
REMARK  status: ('A' for Active; 'I' for Inactive)
REMARK    1  A    between atoms: C_2  and  C_20
REMARK    2  A    between atoms: N_3  and  C_4
REMARK    3  A    between atoms: C_4  and  C_5
REMARK    4  A    between atoms: C_8  and  C_9
REMARK    5  A    between atoms: C_9  and  C_10
REMARK    6  A    between atoms: C_10  and  N_11
REMARK    7  A    between atoms: N_11  and  C_12
REMARK                            x       y       z     vdW  Elec       q    Type
REMARK                         _______ _______ _______ _____ _____    ______ ____
ROOT
ATOM      1  C   UNL     1      49.097   7.765  15.795  0.00  0.00    +0.000 A 
ATOM      2  C   UNL     1      48.645   8.183  17.049  0.00  0.00    +0.000 A 
ATOM      3  C   UNL     1      49.323   7.814  18.213  0.00  0.00    +0.000 A 
ATOM      4  C   UNL     1      50.481   7.023  18.159  0.00  0.00    +0.000 A 
ATOM      5  C   UNL     1      50.944   6.624  16.897  0.00  0.00    +0.000 A 
ATOM      6  C   UNL     1      50.264   6.995  15.728  0.00  0.00    +0.000 A 
ENDROOT
BRANCH   1   7
ATOM      7  C   UNL     1      48.323   8.134  14.557  0.00  0.00    +0.000 C 
BRANCH   7  10
ATOM      8  O   UNL     1      48.744   6.104  12.721  0.00  0.00    +0.000 OA
ATOM      9  C   UNL     1      47.658   6.154  13.287  0.00  0.00    +0.000 C 
ATOM     10  N   UNL     1      47.345   7.132  14.206  0.00  0.00    +0.000 N 
ATOM     11  H   UNL     1      46.518   7.056  14.780  0.00  0.00    +0.000 HD
BRANCH   9  12
ATOM     12  C   UNL     1      46.616   5.174  13.037  0.00  0.00    +0.000 A 
ATOM     13  C   UNL     1      46.570   3.791  13.324  0.00  0.00    +0.000 A 
ATOM     14  N   UNL     1      45.430   3.206  12.957  0.00  0.00    +0.000 NA
ATOM     15  N   UNL     1      44.694   4.213  12.431  0.00  0.00    +0.000 N 
ATOM     16  C   UNL     1      43.417   4.167  11.902  0.00  0.00    +0.000 A 
ATOM     17  C   UNL     1      42.872   5.295  11.423  0.00  0.00    +0.000 A 
ATOM     18  N   UNL     1      43.517   6.516  11.425  0.00  0.00    +0.000 NA
ATOM     19  C   UNL     1      44.722   6.570  11.924  0.00  0.00    +0.000 A 
ATOM     20  C   UNL     1      45.380   5.407  12.460  0.00  0.00    +0.000 A 
ENDBRANCH   9  12
ENDBRANCH   7  10
ENDBRANCH   1   7
BRANCH   4  21
ATOM     21  C   UNL     1      51.243   6.580  19.398  0.00  0.00    +0.000 C 
BRANCH  21  22
ATOM     22  C   UNL     1      51.426   5.063  19.533  0.00  0.00    +0.000 C 
BRANCH  22  23
ATOM     23  N   UNL     1      50.169   4.373  19.832  0.00  0.00    +0.000 N 
ATOM     24  H   UNL     1      49.605   4.866  20.522  0.00  0.00    +0.000 HD
BRANCH  23  25
ATOM     25  C   UNL     1      49.387   3.994  18.721  0.00  0.00    +0.000 A 
ATOM     26  C   UNL     1      49.780   3.004  17.809  0.00  0.00    +0.000 A 
ATOM     27  C   UNL     1      48.940   2.593  16.770  0.00  0.00    +0.000 A 
ATOM     28  C   UNL     1      47.675   3.150  16.637  0.00  0.00    +0.000 A 
ATOM     29  C   UNL     1      47.251   4.115  17.547  0.00  0.00    +0.000 A 
ATOM     30  C   UNL     1      48.095   4.520  18.587  0.00  0.00    +0.000 A 
ENDBRANCH  23  25
ENDBRANCH  22  23
ENDBRANCH  21  22
ENDBRANCH   4  21
TORSDOF 7
ENDMDL
MODEL 8
REMARK VINA RESULT:    -6.804      2.233      3.560
REMARK INTER + INTRA:         -10.551
REMARK INTER:                  -9.749
REMARK INTRA:                  -0.802
REMARK UNBOUND:                -0.962
REMARK  Name = 
REMARK  7 active torsions:
REMARK  status: ('A' for Active; 'I' for Inactive)
REMARK    1  A    between atoms: C_2  and  C_20
REMARK    2  A    between atoms: N_3  and  C_4
REMARK    3  A    between atoms: C_4  and  C_5
REMARK    4  A    between atoms: C_8  and  C_9
REMARK    5  A    between atoms: C_9  and  C_10
REMARK    6  A    between atoms: C_10  and  N_11
REMARK    7  A    between atoms: N_11  and  C_12
REMARK                            x       y       z     vdW  Elec       q    Type
REMARK                         _______ _______ _______ _____ _____    ______ ____
ROOT
ATOM      1  C   UNL     1      46.594   4.883  13.448  0.00  0.00    +0.000 A 
ATOM      2  C   UNL     1      45.992   3.655  13.163  0.00  0.00    +0.000 A 
ATOM      3  C   UNL     1      45.141   3.515  12.064  0.00  0.00    +0.000 A 
ATOM      4  C   UNL     1      44.873   4.595  11.210  0.00  0.00    +0.000 A 
ATOM      5  C   UNL     1      45.497   5.820  11.487  0.00  0.00    +0.000 A 
ATOM      6  C   UNL     1      46.352   5.962  12.589  0.00  0.00    +0.000 A 
ENDROOT
BRANCH   1   7
ATOM      7  C   UNL     1      47.470   5.024  14.665  0.00  0.00    +0.000 C 
BRANCH   7  10
ATOM      8  O   UNL     1      49.679   5.889  16.094  0.00  0.00    +0.000 OA
ATOM      9  C   UNL     1      48.892   6.734  15.682  0.00  0.00    +0.000 C 
ATOM     10  N   UNL     1      47.756   6.405  14.974  0.00  0.00    +0.000 N 
ATOM     11  H   UNL     1      47.217   7.117  14.502  0.00  0.00    +0.000 HD
BRANCH   9  12
ATOM     12  C   UNL     1      49.103   8.153  15.903  0.00  0.00    +0.000 A 
ATOM     13  C   UNL     1      48.456   9.051  16.783  0.00  0.00    +0.000 A 
ATOM     14  N   UNL     1      48.930  10.295  16.720  0.00  0.00    +0.000 NA
ATOM     15  N   UNL     1      49.918  10.229  15.798  0.00  0.00    +0.000 N 
ATOM     16  C   UNL     1      50.752  11.237  15.349  0.00  0.00    +0.000 A 
ATOM     17  C   UNL     1      51.671  10.951  14.414  0.00  0.00    +0.000 A 
ATOM     18  N   UNL     1      51.837   9.695  13.865  0.00  0.00    +0.000 NA
ATOM     19  C   UNL     1      51.055   8.736  14.284  0.00  0.00    +0.000 A 
ATOM     20  C   UNL     1      50.045   8.957  15.285  0.00  0.00    +0.000 A 
ENDBRANCH   9  12
ENDBRANCH   7  10
ENDBRANCH   1   7
BRANCH   4  21
ATOM     21  C   UNL     1      43.940   4.497  10.013  0.00  0.00    +0.000 C 
BRANCH  21  22
ATOM     22  C   UNL     1      44.384   3.503   8.932  0.00  0.00    +0.000 C 
BRANCH  22  23
ATOM     23  N   UNL     1      45.565   3.964   8.200  0.00  0.00    +0.000 N 
ATOM     24  H   UNL     1      46.208   4.493   8.785  0.00  0.00    +0.000 HD
BRANCH  23  25
ATOM     25  C   UNL     1      46.254   2.987   7.451  0.00  0.00    +0.000 A 
ATOM     26  C   UNL     1      46.485   1.685   7.918  0.00  0.00    +0.000 A 
ATOM     27  C   UNL     1      47.094   0.717   7.113  0.00  0.00    +0.000 A 
ATOM     28  C   UNL     1      47.463   1.028   5.811  0.00  0.00    +0.000 A 
ATOM     29  C   UNL     1      47.219   2.306   5.314  0.00  0.00    +0.000 A 
ATOM     30  C   UNL     1      46.606   3.270   6.124  0.00  0.00    +0.000 A 
ENDBRANCH  23  25
ENDBRANCH  22  23
ENDBRANCH  21  22
ENDBRANCH   4  21
TORSDOF 7
ENDMDL
MODEL 9
REMARK VINA RESULT:    -6.792      2.740      8.159
REMARK INTER + INTRA:         -10.534
REMARK INTER:                  -8.989
REMARK INTRA:                  -1.545
REMARK UNBOUND:                -0.962
REMARK  Name = 
REMARK  7 active torsions:
REMARK  status: ('A' for Active; 'I' for Inactive)
REMARK    1  A    between atoms: C_2  and  C_20
REMARK    2  A    between atoms: N_3  and  C_4
REMARK    3  A    between atoms: C_4  and  C_5
REMARK    4  A    between atoms: C_8  and  C_9
REMARK    5  A    between atoms: C_9  and  C_10
REMARK    6  A    between atoms: C_10  and  N_11
REMARK    7  A    between atoms: N_11  and  C_12
REMARK                            x       y       z     vdW  Elec       q    Type
REMARK                         _______ _______ _______ _____ _____    ______ ____
ROOT
ATOM      1  C   UNL     1      48.557   8.221  13.986  0.00  0.00    +0.000 A 
ATOM      2  C   UNL     1      49.303   7.095  14.338  0.00  0.00    +0.000 A 
ATOM      3  C   UNL     1      49.608   6.829  15.675  0.00  0.00    +0.000 A 
ATOM      4  C   UNL     1      49.167   7.676  16.703  0.00  0.00    +0.000 A 
ATOM      5  C   UNL     1      48.399   8.794  16.347  0.00  0.00    +0.000 A 
ATOM      6  C   UNL     1      48.092   9.061  15.006  0.00  0.00    +0.000 A 
ENDROOT
BRANCH   1   7
ATOM      7  C   UNL     1      48.281   8.515  12.534  0.00  0.00    +0.000 C 
BRANCH   7  10
ATOM      8  O   UNL     1      45.583   7.910  12.700  0.00  0.00    +0.000 OA
ATOM      9  C   UNL     1      46.293   7.195  12.001  0.00  0.00    +0.000 C 
ATOM     10  N   UNL     1      47.648   7.404  11.864  0.00  0.00    +0.000 N 
ATOM     11  H   UNL     1      48.178   6.915  11.157  0.00  0.00    +0.000 HD
BRANCH   9  12
ATOM     12  C   UNL     1      45.754   6.074  11.253  0.00  0.00    +0.000 A 
ATOM     13  C   UNL     1      45.901   5.724   9.891  0.00  0.00    +0.000 A 
ATOM     14  N   UNL     1      45.263   4.603   9.556  0.00  0.00    +0.000 NA
ATOM     15  N   UNL     1      44.693   4.186  10.710  0.00  0.00    +0.000 N 
ATOM     16  C   UNL     1      43.918   3.063  10.936  0.00  0.00    +0.000 A 
ATOM     17  C   UNL     1      43.442   2.840  12.171  0.00  0.00    +0.000 A 
ATOM     18  N   UNL     1      43.683   3.675  13.244  0.00  0.00    +0.000 NA
ATOM     19  C   UNL     1      44.415   4.737  13.040  0.00  0.00    +0.000 A 
ATOM     20  C   UNL     1      44.965   5.050  11.747  0.00  0.00    +0.000 A 
ENDBRANCH   9  12
ENDBRANCH   7  10
ENDBRANCH   1   7
BRANCH   4  21
ATOM     21  C   UNL     1      49.489   7.439  18.171  0.00  0.00    +0.000 C 
BRANCH  21  22
ATOM     22  C   UNL     1      48.271   7.149  19.057  0.00  0.00    +0.000 C 
BRANCH  22  23
ATOM     23  N   UNL     1      48.230   5.758  19.513  0.00  0.00    +0.000 N 
ATOM     24  H   UNL     1      47.443   5.569  20.130  0.00  0.00    +0.000 HD
BRANCH  23  25
ATOM     25  C   UNL     1      48.331   4.771  18.510  0.00  0.00    +0.000 A 
ATOM     26  C   UNL     1      49.413   3.884  18.413  0.00  0.00    +0.000 A 
ATOM     27  C   UNL     1      49.437   2.862  17.459  0.00  0.00    +0.000 A 
ATOM     28  C   UNL     1      48.363   2.692  16.596  0.00  0.00    +0.000 A 
ATOM     29  C   UNL     1      47.264   3.542  16.691  0.00  0.00    +0.000 A 
ATOM     30  C   UNL     1      47.244   4.561  17.650  0.00  0.00    +0.000 A 
ENDBRANCH  23  25
ENDBRANCH  22  23
ENDBRANCH  21  22
ENDBRANCH   4  21
TORSDOF 7
ENDMDL
