MODEL 1
REMARK VINA RESULT:    -8.312      0.000      0.000
REMARK INTER + INTRA:         -12.851
REMARK INTER:                 -11.713
REMARK INTRA:                  -1.138
REMARK UNBOUND:                -1.138
REMARK  Name = 
REMARK  8 active torsions:
REMARK  status: ('A' for Active; 'I' for Inactive)
REMARK    1  A    between atoms: C_1  and  C_2
REMARK    2  A    between atoms: C_2  and  C_3
REMARK    3  A    between atoms: C_2  and  C_14
REMARK    4  A    between atoms: C_3  and  O_4
REMARK    5  A    between atoms: O_4  and  C_5
REMARK    6  A    between atoms: C_8  and  C_9
REMARK    7  A    between atoms: C_18  and  O_19
REMARK    8  A    between atoms: O_19  and  C_20
REMARK                            x       y       z     vdW  Elec       q    Type
REMARK                         _______ _______ _______ _____ _____    ______ ____
ROOT
ATOM      1  C   UNL     1      43.300   4.293  13.204  0.00  0.00    +0.000 C 
ATOM      2  C   UNL     1      44.267   4.643  12.106  0.00  0.00    +0.000 C 
ENDROOT
BRANCH   2   3
ATOM      3  C   UNL     1      45.516   5.304  12.540  0.00  0.00    +0.000 A 
ATOM      4  C   UNL     1      46.074   6.277  11.699  0.00  0.00    +0.000 A 
ATOM      5  C   UNL     1      47.352   6.770  11.933  0.00  0.00    +0.000 A 
ATOM      6  C   UNL     1      48.070   6.332  13.041  0.00  0.00    +0.000 A 
ATOM      7  C   UNL     1      47.485   5.465  13.969  0.00  0.00    +0.000 A 
ATOM      8  C   UNL     1      46.215   4.935  13.704  0.00  0.00    +0.000 A 
BRANCH   7   9
ATOM      9  O   UNL     1      48.105   5.057  15.127  0.00  0.00    +0.000 OA
BRANCH   9  10
ATOM     10  C   UNL     1      47.313   4.181  15.950  0.00  0.00    +0.000 C 
ATOM     11  C   UNL     1      47.169   4.734  17.352  0.00  0.00    +0.000 C 
ATOM     12  C   UNL     1      48.332   4.130  18.108  0.00  0.00    +0.000 C 
ATOM     13  O   UNL     1      48.700   2.917  17.450  0.00  0.00    +0.000 OA
ATOM     14  C   UNL     1      48.032   2.859  16.182  0.00  0.00    +0.000 C 
ENDBRANCH   9  10
ENDBRANCH   7   9
ENDBRANCH   2   3
BRANCH   2  15
ATOM     15  C   UNL     1      43.704   4.889  10.739  0.00  0.00    +0.000 C 
BRANCH  15  16
ATOM     16  O   UNL     1      43.559   3.643  10.047  0.00  0.00    +0.000 OA
BRANCH  16  17
ATOM     17  C   UNL     1      44.572   3.311   9.187  0.00  0.00    +0.000 A 
ATOM     18  C   UNL     1      45.252   4.205   8.360  0.00  0.00    +0.000 A 
ATOM     19  C   UNL     1      46.281   3.757   7.530  0.00  0.00    +0.000 A 
ATOM     20  C   UNL     1      46.652   2.408   7.520  0.00  0.00    +0.000 A 
ATOM     21  C   UNL     1      45.961   1.503   8.332  0.00  0.00    +0.000 A 
ATOM     22  C   UNL     1      44.927   1.958   9.162  0.00  0.00    +0.000 A 
BRANCH  20  23
ATOM     23  C   UNL     1      47.763   2.002   6.622  0.00  0.00    +0.000 C 
ATOM     24  N   UNL     1      48.767   2.900   6.410  0.00  0.00    +0.000 N 
ATOM     25  O   UNL     1      47.760   0.917   6.050  0.00  0.00    +0.000 OA
ATOM     26  H   UNL     1      48.684   3.875   6.648  0.00  0.00    +0.000 HD
ATOM     27  H   UNL     1      49.437   2.646   5.694  0.00  0.00    +0.000 HD
ENDBRANCH  20  23
ENDBRANCH  16  17
ENDBRANCH  15  16
ENDBRANCH   2  15
TORSDOF 7
ENDMDL
MODEL 2
REMARK VINA RESULT:    -6.785      3.041      5.076
REMARK INTER + INTRA:         -10.699
REMARK INTER:                  -9.548
REMARK INTRA:                  -1.151
REMARK UNBOUND:                -1.138
REMARK  Name = 
REMARK  8 active torsions:
REMARK  status: ('A' for Active; 'I' for Inactive)
REMARK    1  A    between atoms: C_1  and  C_2
REMARK    2  A    between atoms: C_2  and  C_3
REMARK    3  A    between atoms: C_2  and  C_14
REMARK    4  A    between atoms: C_3  and  O_4
REMARK    5  A    between atoms: O_4  and  C_5
REMARK    6  A    between atoms: C_8  and  C_9
REMARK    7  A    between atoms: C_18  and  O_19
REMARK    8  A    between atoms: O_19  and  C_20
REMARK                            x       y       z     vdW  Elec       q    Type
REMARK                         _______ _______ _______ _____ _____    ______ ____
ROOT
ATOM      1  C   UNL     1      42.872   5.298  12.850  0.00  0.00    +0.000 C 
ATOM      2  C   UNL     1      44.279   4.853  12.555  0.00  0.00    +0.000 C 
ENDROOT
BRANCH   2   3
ATOM      3  C   UNL     1      45.256   5.936  12.316  0.00  0.00    +0.000 A 
ATOM      4  C   UNL     1      46.588   5.717  12.693  0.00  0.00    +0.000 A 
ATOM      5  C   UNL     1      47.504   6.763  12.706  0.00  0.00    +0.000 A 
ATOM      6  C   UNL     1      47.110   8.032  12.294  0.00  0.00    +0.000 A 
ATOM      7  C   UNL     1      45.826   8.247  11.786  0.00  0.00    +0.000 A 
ATOM      8  C   UNL     1      44.893   7.201  11.819  0.00  0.00    +0.000 A 
BRANCH   7   9
ATOM      9  O   UNL     1      45.395   9.454  11.286  0.00  0.00    +0.000 OA
BRANCH   9  10
ATOM     10  C   UNL     1      43.978   9.529  11.048  0.00  0.00    +0.000 C 
ATOM     11  C   UNL     1      43.686  10.070   9.664  0.00  0.00    +0.000 C 
ATOM     12  C   UNL     1      43.569  11.564   9.869  0.00  0.00    +0.000 C 
ATOM     13  O   UNL     1      43.192  11.792  11.227  0.00  0.00    +0.000 OA
ATOM     14  C   UNL     1      43.331  10.566  11.957  0.00  0.00    +0.000 C 
ENDBRANCH   9  10
ENDBRANCH   7   9
ENDBRANCH   2   3
BRANCH   2  15
ATOM     15  C   UNL     1      44.462   3.503  11.932  0.00  0.00    +0.000 C 
BRANCH  15  16
ATOM     16  O   UNL     1      43.837   3.478  10.642  0.00  0.00    +0.000 OA
BRANCH  16  17
ATOM     17  C   UNL     1      44.677   3.330   9.571  0.00  0.00    +0.000 A 
ATOM     18  C   UNL     1      45.147   4.368   8.765  0.00  0.00    +0.000 A 
ATOM     19  C   UNL     1      46.013   4.101   7.703  0.00  0.00    +0.000 A 
ATOM     20  C   UNL     1      46.428   2.793   7.434  0.00  0.00    +0.000 A 
ATOM     21  C   UNL     1      45.945   1.745   8.225  0.00  0.00    +0.000 A 
ATOM     22  C   UNL     1      45.075   2.018   9.289  0.00  0.00    +0.000 A 
BRANCH  20  23
ATOM     23  C   UNL     1      47.359   2.582   6.296  0.00  0.00    +0.000 C 
ATOM     24  N   UNL     1      48.590   2.065   6.571  0.00  0.00    +0.000 N 
ATOM     25  O   UNL     1      47.055   2.905   5.152  0.00  0.00    +0.000 OA
ATOM     26  H   UNL     1      48.969   2.028   7.504  0.00  0.00    +0.000 HD
ATOM     27  H   UNL     1      49.245   2.058   5.798  0.00  0.00    +0.000 HD
ENDBRANCH  20  23
ENDBRANCH  16  17
ENDBRANCH  15  16
ENDBRANCH   2  15
TORSDOF 7
ENDMDL
MODEL 3
REMARK VINA RESULT:    -6.517      2.460      3.093
REMARK INTER + INTRA:         -10.321
REMARK INTER:                  -9.436
REMARK INTRA:                  -0.885
REMARK UNBOUND:                -1.138
REMARK  Name = 
REMARK  8 active torsions:
REMARK  status: ('A' for Active; 'I' for Inactive)
REMARK    1  A    between atoms: C_1  and  C_2
REMARK    2  A    between atoms: C_2  and  C_3
REMARK    3  A    between atoms: C_2  and  C_14
REMARK    4  A    between atoms: C_3  and  O_4
REMARK    5  A    between atoms: O_4  and  C_5
REMARK    6  A    between atoms: C_8  and  C_9
REMARK    7  A    between atoms: C_18  and  O_19
REMARK    8  A    between atoms: O_19  and  C_20
REMARK                            x       y       z     vdW  Elec       q    Type
REMARK                         _______ _______ _______ _____ _____    ______ ____
ROOT
ATOM      1  C   UNL     1      42.740   5.156  12.453  0.00  0.00    +0.000 C 
ATOM      2  C   UNL     1      44.243   5.186  12.374  0.00  0.00    +0.000 C 
ENDROOT
BRANCH   2   3
ATOM      3  C   UNL     1      44.859   6.528  12.428  0.00  0.00    +0.000 A 
ATOM      4  C   UNL     1      44.317   7.536  11.619  0.00  0.00    +0.000 A 
ATOM      5  C   UNL     1      44.979   8.746  11.450  0.00  0.00    +0.000 A 
ATOM      6  C   UNL     1      46.170   8.983  12.130  0.00  0.00    +0.000 A 
ATOM      7  C   UNL     1      46.662   8.049  13.046  0.00  0.00    +0.000 A 
ATOM      8  C   UNL     1      46.015   6.812  13.177  0.00  0.00    +0.000 A 
BRANCH   7   9
ATOM      9  O   UNL     1      47.786   8.252  13.813  0.00  0.00    +0.000 OA
BRANCH   9  10
ATOM     10  C   UNL     1      48.854   7.320  13.562  0.00  0.00    +0.000 C 
ATOM     11  C   UNL     1      49.551   6.932  14.849  0.00  0.00    +0.000 C 
ATOM     12  C   UNL     1      50.674   7.937  14.978  0.00  0.00    +0.000 C 
ATOM     13  O   UNL     1      50.993   8.409  13.669  0.00  0.00    +0.000 OA
ATOM     14  C   UNL     1      49.970   7.979  12.761  0.00  0.00    +0.000 C 
ENDBRANCH   9  10
ENDBRANCH   7   9
ENDBRANCH   2   3
BRANCH   2  15
ATOM     15  C   UNL     1      44.921   4.058  11.659  0.00  0.00    +0.000 C 
BRANCH  15  16
ATOM     16  O   UNL     1      44.244   3.792  10.424  0.00  0.00    +0.000 OA
BRANCH  16  17
ATOM     17  C   UNL     1      45.007   3.245   9.426  0.00  0.00    +0.000 A 
ATOM     18  C   UNL     1      45.222   1.881   9.233  0.00  0.00    +0.000 A 
ATOM     19  C   UNL     1      46.010   1.434   8.170  0.00  0.00    +0.000 A 
ATOM     20  C   UNL     1      46.589   2.345   7.280  0.00  0.00    +0.000 A 
ATOM     21  C   UNL     1      46.394   3.715   7.481  0.00  0.00    +0.000 A 
ATOM     22  C   UNL     1      45.603   4.159   8.550  0.00  0.00    +0.000 A 
BRANCH  20  23
ATOM     23  C   UNL     1      47.407   1.800   6.166  0.00  0.00    +0.000 C 
ATOM     24  N   UNL     1      48.624   2.369   5.936  0.00  0.00    +0.000 N 
ATOM     25  O   UNL     1      46.987   0.902   5.444  0.00  0.00    +0.000 OA
ATOM     26  H   UNL     1      48.893   3.256   6.329  0.00  0.00    +0.000 HD
ATOM     27  H   UNL     1      49.097   2.066   5.093  0.00  0.00    +0.000 HD
ENDBRANCH  20  23
ENDBRANCH  16  17
ENDBRANCH  15  16
ENDBRANCH   2  15
TORSDOF 7
ENDMDL
MODEL 4
REMARK VINA RESULT:    -6.496      3.002      4.662
REMARK INTER + INTRA:         -10.291
REMARK INTER:                  -9.064
REMARK INTRA:                  -1.227
REMARK UNBOUND:                -1.138
REMARK  Name = 
REMARK  8 active torsions:
REMARK  status: ('A' for Active; 'I' for Inactive)
REMARK    1  A    between atoms: C_1  and  C_2
REMARK    2  A    between atoms: C_2  and  C_3
REMARK    3  A    between atoms: C_2  and  C_14
REMARK    4  A    between atoms: C_3  and  O_4
REMARK    5  A    between atoms: O_4  and  C_5
REMARK    6  A    between atoms: C_8  and  C_9
REMARK    7  A    between atoms: C_18  and  O_19
REMARK    8  A    between atoms: O_19  and  C_20
REMARK                            x       y       z     vdW  Elec       q    Type
REMARK                         _______ _______ _______ _____ _____    ______ ____
ROOT
ATOM      1  C   UNL     1      49.146   7.876  11.816  0.00  0.00    +0.000 C 
ATOM      2  C   UNL     1      48.110   8.408  12.770  0.00  0.00    +0.000 C 
ENDROOT
BRANCH   2   3
ATOM      3  C   UNL     1      48.346   8.115  14.199  0.00  0.00    +0.000 A 
ATOM      4  C   UNL     1      48.244   9.171  15.114  0.00  0.00    +0.000 A 
ATOM      5  C   UNL     1      48.670   9.018  16.428  0.00  0.00    +0.000 A 
ATOM      6  C   UNL     1      49.160   7.788  16.857  0.00  0.00    +0.000 A 
ATOM      7  C   UNL     1      49.148   6.682  16.002  0.00  0.00    +0.000 A 
ATOM      8  C   UNL     1      48.760   6.854  14.666  0.00  0.00    +0.000 A 
BRANCH   7   9
ATOM      9  O   UNL     1      49.540   5.419  16.383  0.00  0.00    +0.000 OA
BRANCH   9  10
ATOM     10  C   UNL     1      48.616   4.748  17.259  0.00  0.00    +0.000 C 
ATOM     11  C   UNL     1      49.193   3.439  17.758  0.00  0.00    +0.000 C 
ATOM     12  C   UNL     1      48.724   2.419  16.745  0.00  0.00    +0.000 C 
ATOM     13  O   UNL     1      47.533   2.921  16.136  0.00  0.00    +0.000 OA
ATOM     14  C   UNL     1      47.376   4.300  16.498  0.00  0.00    +0.000 C 
ENDBRANCH   9  10
ENDBRANCH   7   9
ENDBRANCH   2   3
BRANCH   2  15
ATOM     15  C   UNL     1      46.720   8.600  12.245  0.00  0.00    +0.000 C 
BRANCH  15  16
ATOM     16  O   UNL     1      45.789   7.896  13.076  0.00  0.00    +0.000 OA
BRANCH  16  17
ATOM     17  C   UNL     1      45.397   6.662  12.628  0.00  0.00    +0.000 A 
ATOM     18  C   UNL     1      45.831   5.442  13.147  0.00  0.00    +0.000 A 
ATOM     19  C   UNL     1      45.354   4.241  12.619  0.00  0.00    +0.000 A 
ATOM     20  C   UNL     1      44.430   4.241  11.568  0.00  0.00    +0.000 A 
ATOM     21  C   UNL     1      44.007   5.461  11.030  0.00  0.00    +0.000 A 
ATOM     22  C   UNL     1      44.490   6.664  11.563  0.00  0.00    +0.000 A 
BRANCH  20  23
ATOM     23  C   UNL     1      43.956   2.927  11.062  0.00  0.00    +0.000 C 
ATOM     24  N   UNL     1      44.644   2.360  10.031  0.00  0.00    +0.000 N 
ATOM     25  O   UNL     1      42.954   2.388  11.521  0.00  0.00    +0.000 OA
ATOM     26  H   UNL     1      45.300   2.874   9.467  0.00  0.00    +0.000 HD
ATOM     27  H   UNL     1      44.220   1.535   9.624  0.00  0.00    +0.000 HD
ENDBRANCH  20  23
ENDBRANCH  16  17
ENDBRANCH  15  16
ENDBRANCH   2  15
TORSDOF 7
ENDMDL
MODEL 5
REMARK VINA RESULT:    -6.455      3.712      7.509
REMARK INTER + INTRA:         -10.233
REMARK INTER:                  -8.793
REMARK INTRA:                  -1.441
REMARK UNBOUND:                -1.138
REMARK  Name = 
REMARK  8 active torsions:
REMARK  status: ('A' for Active; 'I' for Inactive)
REMARK    1  A    between atoms: C_1  and  C_2
REMARK    2  A    between atoms: C_2  and  C_3
REMARK    3  A    between atoms: C_2  and  C_14
REMARK    4  A    between atoms: C_3  and  O_4
REMARK    5  A    between atoms: O_4  and  C_5
REMARK    6  A    between atoms: C_8  and  C_9
REMARK    7  A    between atoms: C_18  and  O_19
REMARK    8  A    between atoms: O_19  and  C_20
REMARK                            x       y       z     vdW  Elec       q    Type
REMARK                         _______ _______ _______ _____ _____    ______ ____
ROOT
ATOM      1  C   UNL     1      49.655   9.378  11.663  0.00  0.00    +0.000 C 
ATOM      2  C   UNL     1      48.975   8.101  12.079  0.00  0.00    +0.000 C 
ENDROOT
BRANCH   2   3
ATOM      3  C   UNL     1      47.512   8.061  11.878  0.00  0.00    +0.000 A 
ATOM      4  C   UNL     1      46.770   9.204  12.204  0.00  0.00    +0.000 A 
ATOM      5  C   UNL     1      45.381   9.160  12.254  0.00  0.00    +0.000 A 
ATOM      6  C   UNL     1      44.715   7.982  11.930  0.00  0.00    +0.000 A 
ATOM      7  C   UNL     1      45.424   6.868  11.472  0.00  0.00    +0.000 A 
ATOM      8  C   UNL     1      46.825   6.904  11.468  0.00  0.00    +0.000 A 
BRANCH   7   9
ATOM      9  O   UNL     1      44.825   5.701  11.057  0.00  0.00    +0.000 OA
BRANCH   9  10
ATOM     10  C   UNL     1      45.282   4.521  11.743  0.00  0.00    +0.000 C 
ATOM     11  C   UNL     1      44.795   3.266  11.050  0.00  0.00    +0.000 C 
ATOM     12  C   UNL     1      43.479   2.957  11.728  0.00  0.00    +0.000 C 
ATOM     13  O   UNL     1      43.512   3.534  13.034  0.00  0.00    +0.000 OA
ATOM     14  C   UNL     1      44.641   4.414  13.121  0.00  0.00    +0.000 C 
ENDBRANCH   9  10
ENDBRANCH   7   9
ENDBRANCH   2   3
BRANCH   2  15
ATOM     15  C   UNL     1      49.625   7.292  13.160  0.00  0.00    +0.000 C 
BRANCH  15  16
ATOM     16  O   UNL     1      49.089   7.670  14.434  0.00  0.00    +0.000 OA
BRANCH  16  17
ATOM     17  C   UNL     1      48.781   6.643  15.287  0.00  0.00    +0.000 A 
ATOM     18  C   UNL     1      49.379   6.419  16.527  0.00  0.00    +0.000 A 
ATOM     19  C   UNL     1      48.976   5.343  17.321  0.00  0.00    +0.000 A 
ATOM     20  C   UNL     1      47.964   4.479  16.889  0.00  0.00    +0.000 A 
ATOM     21  C   UNL     1      47.375   4.686  15.638  0.00  0.00    +0.000 A 
ATOM     22  C   UNL     1      47.784   5.767  14.844  0.00  0.00    +0.000 A 
BRANCH  20  23
ATOM     23  C   UNL     1      47.577   3.362  17.789  0.00  0.00    +0.000 C 
ATOM     24  N   UNL     1      48.363   3.124  18.877  0.00  0.00    +0.000 N 
ATOM     25  O   UNL     1      46.612   2.646  17.542  0.00  0.00    +0.000 OA
ATOM     26  H   UNL     1      49.288   3.512  18.976  0.00  0.00    +0.000 HD
ATOM     27  H   UNL     1      48.151   2.279  19.394  0.00  0.00    +0.000 HD
ENDBRANCH  20  23
ENDBRANCH  16  17
ENDBRANCH  15  16
ENDBRANCH   2  15
TORSDOF 7
ENDMDL
MODEL 6
REMARK VINA RESULT:    -6.050      3.870      8.299
REMARK INTER + INTRA:          -9.663
REMARK INTER:                  -8.750
REMARK INTRA:                  -0.913
REMARK UNBOUND:                -1.138
REMARK  Name = 
REMARK  8 active torsions:
REMARK  status: ('A' for Active; 'I' for Inactive)
REMARK    1  A    between atoms: C_1  and  C_2
REMARK    2  A    between atoms: C_2  and  C_3
REMARK    3  A    between atoms: C_2  and  C_14
REMARK    4  A    between atoms: C_3  and  O_4
REMARK    5  A    between atoms: O_4  and  C_5
REMARK    6  A    between atoms: C_8  and  C_9
REMARK    7  A    between atoms: C_18  and  O_19
REMARK    8  A    between atoms: O_19  and  C_20
REMARK                            x       y       z     vdW  Elec       q    Type
REMARK                         _______ _______ _______ _____ _____    ______ ____
ROOT
ATOM      1  C   UNL     1      50.373   7.691  15.018  0.00  0.00    +0.000 C 
ATOM      2  C   UNL     1      49.194   6.758  15.074  0.00  0.00    +0.000 C 
ENDROOT
BRANCH   2   3
ATOM      3  C   UNL     1      48.313   6.768  13.888  0.00  0.00    +0.000 A 
ATOM      4  C   UNL     1      48.215   7.955  13.149  0.00  0.00    +0.000 A 
ATOM      5  C   UNL     1      47.243   8.103  12.166  0.00  0.00    +0.000 A 
ATOM      6  C   UNL     1      46.387   7.045  11.876  0.00  0.00    +0.000 A 
ATOM      7  C   UNL     1      46.551   5.807  12.503  0.00  0.00    +0.000 A 
ATOM      8  C   UNL     1      47.501   5.678  13.525  0.00  0.00    +0.000 A 
BRANCH   7   9
ATOM      9  O   UNL     1      45.795   4.696  12.206  0.00  0.00    +0.000 OA
BRANCH   9  10
ATOM     10  C   UNL     1      44.377   4.935  12.157  0.00  0.00    +0.000 C 
ATOM     11  C   UNL     1      43.617   3.857  12.902  0.00  0.00    +0.000 C 
ATOM     12  C   UNL     1      43.316   2.820  11.843  0.00  0.00    +0.000 C 
ATOM     13  O   UNL     1      43.309   3.477  10.574  0.00  0.00    +0.000 OA
ATOM     14  C   UNL     1      43.853   4.794  10.734  0.00  0.00    +0.000 C 
ENDBRANCH   9  10
ENDBRANCH   7   9
ENDBRANCH   2   3
BRANCH   2  15
ATOM     15  C   UNL     1      48.656   6.402  16.427  0.00  0.00    +0.000 C 
BRANCH  15  16
ATOM     16  O   UNL     1      49.739   6.252  17.353  0.00  0.00    +0.000 OA
BRANCH  16  17
ATOM     17  C   UNL     1      50.285   4.999  17.440  0.00  0.00    +0.000 A 
ATOM     18  C   UNL     1      49.579   3.802  17.320  0.00  0.00    +0.000 A 
ATOM     19  C   UNL     1      50.243   2.577  17.414  0.00  0.00    +0.000 A 
ATOM     20  C   UNL     1      51.626   2.531  17.623  0.00  0.00    +0.000 A 
ATOM     21  C   UNL     1      52.337   3.727  17.764  0.00  0.00    +0.000 A 
ATOM     22  C   UNL     1      51.665   4.954  17.671  0.00  0.00    +0.000 A 
BRANCH  20  23
ATOM     23  C   UNL     1      52.270   1.195  17.702  0.00  0.00    +0.000 C 
ATOM     24  N   UNL     1      51.523   0.159  18.179  0.00  0.00    +0.000 N 
ATOM     25  O   UNL     1      53.446   1.031  17.393  0.00  0.00    +0.000 OA
ATOM     26  H   UNL     1      50.657   0.296  18.674  0.00  0.00    +0.000 HD
ATOM     27  H   UNL     1      52.027  -0.704  18.345  0.00  0.00    +0.000 HD
ENDBRANCH  20  23
ENDBRANCH  16  17
ENDBRANCH  15  16
ENDBRANCH   2  15
TORSDOF 7
ENDMDL
MODEL 7
REMARK VINA RESULT:    -6.015      3.964      5.843
REMARK INTER + INTRA:          -9.614
REMARK INTER:                  -7.926
REMARK INTRA:                  -1.688
REMARK UNBOUND:                -1.138
REMARK  Name = 
REMARK  8 active torsions:
REMARK  status: ('A' for Active; 'I' for Inactive)
REMARK    1  A    between atoms: C_1  and  C_2
REMARK    2  A    between atoms: C_2  and  C_3
REMARK    3  A    between atoms: C_2  and  C_14
REMARK    4  A    between atoms: C_3  and  O_4
REMARK    5  A    between atoms: O_4  and  C_5
REMARK    6  A    between atoms: C_8  and  C_9
REMARK    7  A    between atoms: C_18  and  O_19
REMARK    8  A    between atoms: O_19  and  C_20
REMARK                            x       y       z     vdW  Elec       q    Type
REMARK                         _______ _______ _______ _____ _____    ______ ____
ROOT
ATOM      1  C   UNL     1      50.784   9.058  13.287  0.00  0.00    +0.000 C 
ATOM      2  C   UNL     1      49.438   9.441  13.841  0.00  0.00    +0.000 C 
ENDROOT
BRANCH   2   3
ATOM      3  C   UNL     1      49.015   8.712  15.055  0.00  0.00    +0.000 A 
ATOM      4  C   UNL     1      48.490   9.456  16.120  0.00  0.00    +0.000 A 
ATOM      5  C   UNL     1      48.285   8.869  17.364  0.00  0.00    +0.000 A 
ATOM      6  C   UNL     1      48.558   7.516  17.544  0.00  0.00    +0.000 A 
ATOM      7  C   UNL     1      48.954   6.723  16.463  0.00  0.00    +0.000 A 
ATOM      8  C   UNL     1      49.203   7.329  15.224  0.00  0.00    +0.000 A 
BRANCH   7   9
ATOM      9  O   UNL     1      49.161   5.365  16.550  0.00  0.00    +0.000 OA
BRANCH   9  10
ATOM     10  C   UNL     1      47.970   4.595  16.795  0.00  0.00    +0.000 C 
ATOM     11  C   UNL     1      48.305   3.265  17.437  0.00  0.00    +0.000 C 
ATOM     12  C   UNL     1      48.479   2.324  16.267  0.00  0.00    +0.000 C 
ATOM     13  O   UNL     1      47.726   2.843  15.170  0.00  0.00    +0.000 OA
ATOM     14  C   UNL     1      47.315   4.180  15.484  0.00  0.00    +0.000 C 
ENDBRANCH   9  10
ENDBRANCH   7   9
ENDBRANCH   2   3
BRANCH   2  15
ATOM     15  C   UNL     1      48.425   9.989  12.882  0.00  0.00    +0.000 C 
BRANCH  15  16
ATOM     16  O   UNL     1      48.154   9.021  11.861  0.00  0.00    +0.000 OA
BRANCH  16  17
ATOM     17  C   UNL     1      47.175   8.106  12.145  0.00  0.00    +0.000 A 
ATOM     18  C   UNL     1      45.878   8.415  12.557  0.00  0.00    +0.000 A 
ATOM     19  C   UNL     1      44.956   7.398  12.808  0.00  0.00    +0.000 A 
ATOM     20  C   UNL     1      45.313   6.056  12.643  0.00  0.00    +0.000 A 
ATOM     21  C   UNL     1      46.617   5.738  12.250  0.00  0.00    +0.000 A 
ATOM     22  C   UNL     1      47.540   6.763  12.001  0.00  0.00    +0.000 A 
BRANCH  20  23
ATOM     23  C   UNL     1      44.278   5.025  12.916  0.00  0.00    +0.000 C 
ATOM     24  N   UNL     1      42.976   5.429  12.953  0.00  0.00    +0.000 N 
ATOM     25  O   UNL     1      44.581   3.859  13.148  0.00  0.00    +0.000 OA
ATOM     26  H   UNL     1      42.709   6.397  13.023  0.00  0.00    +0.000 HD
ATOM     27  H   UNL     1      42.311   4.734  13.271  0.00  0.00    +0.000 HD
ENDBRANCH  20  23
ENDBRANCH  16  17
ENDBRANCH  15  16
ENDBRANCH   2  15
TORSDOF 7
ENDMDL
MODEL 8
REMARK VINA RESULT:    -5.962      4.134      6.738
REMARK INTER + INTRA:          -9.539
REMARK INTER:                  -8.869
REMARK INTRA:                  -0.670
REMARK UNBOUND:                -1.138
REMARK  Name = 
REMARK  8 active torsions:
REMARK  status: ('A' for Active; 'I' for Inactive)
REMARK    1  A    between atoms: C_1  and  C_2
REMARK    2  A    between atoms: C_2  and  C_3
REMARK    3  A    between atoms: C_2  and  C_14
REMARK    4  A    between atoms: C_3  and  O_4
REMARK    5  A    between atoms: O_4  and  C_5
REMARK    6  A    between atoms: C_8  and  C_9
REMARK    7  A    between atoms: C_18  and  O_19
REMARK    8  A    between atoms: O_19  and  C_20
REMARK                            x       y       z     vdW  Elec       q    Type
REMARK                         _______ _______ _______ _____ _____    ______ ____
ROOT
ATOM      1  C   UNL     1      47.081   2.772  17.705  0.00  0.00    +0.000 C 
ATOM      2  C   UNL     1      48.161   3.218  16.757  0.00  0.00    +0.000 C 
ENDROOT
BRANCH   2   3
ATOM      3  C   UNL     1      49.544   3.104  17.265  0.00  0.00    +0.000 A 
ATOM      4  C   UNL     1      50.156   4.256  17.778  0.00  0.00    +0.000 A 
ATOM      5  C   UNL     1      51.517   4.274  18.061  0.00  0.00    +0.000 A 
ATOM      6  C   UNL     1      52.275   3.121  17.879  0.00  0.00    +0.000 A 
ATOM      7  C   UNL     1      51.665   1.923  17.498  0.00  0.00    +0.000 A 
ATOM      8  C   UNL     1      50.302   1.923  17.170  0.00  0.00    +0.000 A 
BRANCH   7   9
ATOM      9  O   UNL     1      52.338   0.728  17.379  0.00  0.00    +0.000 OA
BRANCH   9  10
ATOM     10  C   UNL     1      53.709   0.771  17.814  0.00  0.00    +0.000 C 
ATOM     11  C   UNL     1      54.653   0.850  16.633  0.00  0.00    +0.000 C 
ATOM     12  C   UNL     1      54.967  -0.594  16.314  0.00  0.00    +0.000 C 
ATOM     13  O   UNL     1      54.779  -1.358  17.506  0.00  0.00    +0.000 OA
ATOM     14  C   UNL     1      54.108  -0.542  18.476  0.00  0.00    +0.000 C 
ENDBRANCH   9  10
ENDBRANCH   7   9
ENDBRANCH   2   3
BRANCH   2  15
ATOM     15  C   UNL     1      47.802   4.253  15.735  0.00  0.00    +0.000 C 
BRANCH  15  16
ATOM     16  O   UNL     1      47.631   3.629  14.456  0.00  0.00    +0.000 OA
BRANCH  16  17
ATOM     17  C   UNL     1      46.584   4.084  13.700  0.00  0.00    +0.000 A 
ATOM     18  C   UNL     1      46.093   5.390  13.707  0.00  0.00    +0.000 A 
ATOM     19  C   UNL     1      45.024   5.747  12.883  0.00  0.00    +0.000 A 
ATOM     20  C   UNL     1      44.434   4.804  12.033  0.00  0.00    +0.000 A 
ATOM     21  C   UNL     1      44.908   3.489  12.037  0.00  0.00    +0.000 A 
ATOM     22  C   UNL     1      45.981   3.135  12.867  0.00  0.00    +0.000 A 
BRANCH  20  23
ATOM     23  C   UNL     1      43.309   5.255  11.175  0.00  0.00    +0.000 C 
ATOM     24  N   UNL     1      42.278   5.916  11.776  0.00  0.00    +0.000 N 
ATOM     25  O   UNL     1      43.278   5.004   9.974  0.00  0.00    +0.000 OA
ATOM     26  H   UNL     1      42.142   5.917  12.774  0.00  0.00    +0.000 HD
ATOM     27  H   UNL     1      41.470   6.091  11.191  0.00  0.00    +0.000 HD
ENDBRANCH  20  23
ENDBRANCH  16  17
ENDBRANCH  15  16
ENDBRANCH   2  15
TORSDOF 7
ENDMDL
MODEL 9
REMARK VINA RESULT:    -5.698      3.008      5.633
REMARK INTER + INTRA:          -9.168
REMARK INTER:                  -8.191
REMARK INTRA:                  -0.977
REMARK UNBOUND:                -1.138
REMARK  Name = 
REMARK  8 active torsions:
REMARK  status: ('A' for Active; 'I' for Inactive)
REMARK    1  A    between atoms: C_1  and  C_2
REMARK    2  A    between atoms: C_2  and  C_3
REMARK    3  A    between atoms: C_2  and  C_14
REMARK    4  A    between atoms: C_3  and  O_4
REMARK    5  A    between atoms: O_4  and  C_5
REMARK    6  A    between atoms: C_8  and  C_9
REMARK    7  A    between atoms: C_18  and  O_19
REMARK    8  A    between atoms: O_19  and  C_20
REMARK                            x       y       z     vdW  Elec       q    Type
REMARK                         _______ _______ _______ _____ _____    ______ ____
ROOT
ATOM      1  C   UNL     1      48.847   8.088  16.230  0.00  0.00    +0.000 C 
ATOM      2  C   UNL     1      48.463   6.796  15.561  0.00  0.00    +0.000 C 
ENDROOT
BRANCH   2   3
ATOM      3  C   UNL     1      48.717   5.570  16.346  0.00  0.00    +0.000 A 
ATOM      4  C   UNL     1      47.711   4.595  16.390  0.00  0.00    +0.000 A 
ATOM      5  C   UNL     1      47.790   3.532  17.282  0.00  0.00    +0.000 A 
ATOM      6  C   UNL     1      48.903   3.403  18.107  0.00  0.00    +0.000 A 
ATOM      7  C   UNL     1      49.981   4.285  17.988  0.00  0.00    +0.000 A 
ATOM      8  C   UNL     1      49.876   5.381  17.121  0.00  0.00    +0.000 A 
BRANCH   7   9
ATOM      9  O   UNL     1      51.145   4.169  18.712  0.00  0.00    +0.000 OA
BRANCH   9  10
ATOM     10  C   UNL     1      52.308   3.852  17.925  0.00  0.00    +0.000 C 
ATOM     11  C   UNL     1      52.808   2.456  18.231  0.00  0.00    +0.000 C 
ATOM     12  C   UNL     1      53.814   2.660  19.342  0.00  0.00    +0.000 C 
ATOM     13  O   UNL     1      54.310   3.995  19.245  0.00  0.00    +0.000 OA
ATOM     14  C   UNL     1      53.488   4.727  18.325  0.00  0.00    +0.000 C 
ENDBRANCH   9  10
ENDBRANCH   7   9
ENDBRANCH   2   3
BRANCH   2  15
ATOM     15  C   UNL     1      48.466   6.764  14.063  0.00  0.00    +0.000 C 
BRANCH  15  16
ATOM     16  O   UNL     1      47.233   7.300  13.566  0.00  0.00    +0.000 OA
BRANCH  16  17
ATOM     17  C   UNL     1      46.479   6.458  12.793  0.00  0.00    +0.000 A 
ATOM     18  C   UNL     1      45.686   5.416  13.274  0.00  0.00    +0.000 A 
ATOM     19  C   UNL     1      44.947   4.626  12.392  0.00  0.00    +0.000 A 
ATOM     20  C   UNL     1      44.984   4.870  11.015  0.00  0.00    +0.000 A 
ATOM     21  C   UNL     1      45.793   5.900  10.524  0.00  0.00    +0.000 A 
ATOM     22  C   UNL     1      46.535   6.690  11.414  0.00  0.00    +0.000 A 
BRANCH  20  23
ATOM     23  C   UNL     1      44.164   3.998  10.135  0.00  0.00    +0.000 C 
ATOM     24  N   UNL     1      44.054   4.347   8.821  0.00  0.00    +0.000 N 
ATOM     25  O   UNL     1      43.567   3.022  10.578  0.00  0.00    +0.000 OA
ATOM     26  H   UNL     1      44.309   5.259   8.478  0.00  0.00    +0.000 HD
ATOM     27  H   UNL     1      43.386   3.811   8.281  0.00  0.00    +0.000 HD
ENDBRANCH  20  23
ENDBRANCH  16  17
ENDBRANCH  15  16
ENDBRANCH   2  15
TORSDOF 7
ENDMDL
