MODEL 1
REMARK VINA RESULT:    -8.366      0.000      0.000
REMARK INTER + INTRA:         -12.771
REMARK INTER:                 -11.789
REMARK INTRA:                  -0.982
REMARK UNBOUND:                -0.982
REMARK  Name = 
REMARK  7 active torsions:
REMARK  status: ('A' for Active; 'I' for Inactive)
REMARK    1  A    between atoms: C_2  and  C_20
REMARK    2  A    between atoms: N_3  and  C_4
REMARK    3  A    between atoms: C_4  and  C_5
REMARK    4  A    between atoms: C_8  and  C_9
REMARK    5  A    between atoms: C_9  and  N_10
REMARK    6  A    between atoms: N_10  and  C_11
REMARK    7  A    between atoms: C_11  and  C_12
REMARK                            x       y       z     vdW  Elec       q    Type
REMARK                         _______ _______ _______ _____ _____    ______ ____
ROOT
ATOM      1  C   UNL     1      46.809   5.933  13.134  0.00  0.00    +0.000 A 
ATOM      2  C   UNL     1      45.807   5.070  13.595  0.00  0.00    +0.000 A 
ATOM      3  C   UNL     1      44.695   4.785  12.798  0.00  0.00    +0.000 A 
ATOM      4  C   UNL     1      44.561   5.353  11.522  0.00  0.00    +0.000 A 
ATOM      5  C   UNL     1      45.579   6.192  11.051  0.00  0.00    +0.000 A 
ATOM      6  C   UNL     1      46.693   6.476  11.847  0.00  0.00    +0.000 A 
ENDROOT
BRANCH   1   7
ATOM      7  C   UNL     1      47.979   6.285  14.011  0.00  0.00    +0.000 C 
BRANCH   7  10
ATOM      8  O   UNL     1      49.986   6.164  15.936  0.00  0.00    +0.000 OA
ATOM      9  C   UNL     1      48.834   5.895  16.269  0.00  0.00    +0.000 C 
ATOM     10  N   UNL     1      47.780   5.900  15.381  0.00  0.00    +0.000 N 
ATOM     11  H   UNL     1      46.857   5.700  15.753  0.00  0.00    +0.000 HD
BRANCH   9  12
ATOM     12  C   UNL     1      48.465   5.555  17.651  0.00  0.00    +0.000 A 
ATOM     13  N   UNL     1      48.377   4.272  18.078  0.00  0.00    +0.000 NA
ATOM     14  N   UNL     1      48.024   4.398  19.378  0.00  0.00    +0.000 N 
ATOM     15  C   UNL     1      47.866   5.685  19.792  0.00  0.00    +0.000 A 
ATOM     16  N   UNL     1      47.506   6.086  21.025  0.00  0.00    +0.000 NA
ATOM     17  C   UNL     1      47.423   7.435  21.129  0.00  0.00    +0.000 A 
ATOM     18  C   UNL     1      47.673   8.345  20.109  0.00  0.00    +0.000 A 
ATOM     19  C   UNL     1      48.048   7.868  18.852  0.00  0.00    +0.000 A 
ATOM     20  C   UNL     1      48.146   6.475  18.692  0.00  0.00    +0.000 A 
ATOM     21  H   UNL     1      47.900   3.565  19.941  0.00  0.00    +0.000 HD
ENDBRANCH   9  12
ENDBRANCH   7  10
ENDBRANCH   1   7
BRANCH   4  22
ATOM     22  C   UNL     1      43.341   5.059  10.677  0.00  0.00    +0.000 C 
BRANCH  22  23
ATOM     23  N   UNL     1      43.728   4.464   9.400  0.00  0.00    +0.000 NA
ATOM     24  H   UNL     1      44.452   5.037   8.969  0.00  0.00    +0.000 HD
BRANCH  23  25
ATOM     25  C   UNL     1      44.228   3.102   9.558  0.00  0.00    +0.000 C 
BRANCH  25  26
ATOM     26  C   UNL     1      45.358   2.830   8.591  0.00  0.00    +0.000 A 
ATOM     27  C   UNL     1      45.887   1.540   8.438  0.00  0.00    +0.000 A 
ATOM     28  C   UNL     1      46.925   1.302   7.533  0.00  0.00    +0.000 A 
ATOM     29  C   UNL     1      47.446   2.349   6.774  0.00  0.00    +0.000 A 
ATOM     30  C   UNL     1      46.930   3.634   6.916  0.00  0.00    +0.000 A 
ATOM     31  C   UNL     1      45.891   3.873   7.816  0.00  0.00    +0.000 A 
ENDBRANCH  25  26
ENDBRANCH  23  25
ENDBRANCH  22  23
ENDBRANCH   4  22
TORSDOF 7
ENDMDL
MODEL 2
REMARK VINA RESULT:    -8.033      1.838      2.450
REMARK INTER + INTRA:         -12.302
REMARK INTER:                 -11.065
REMARK INTRA:                  -1.237
REMARK UNBOUND:                -0.982
REMARK  Name = 
REMARK  7 active torsions:
REMARK  status: ('A' for Active; 'I' for Inactive)
REMARK    1  A    between atoms: C_2  and  C_20
REMARK    2  A    between atoms: N_3  and  C_4
REMARK    3  A    between atoms: C_4  and  C_5
REMARK    4  A    between atoms: C_8  and  C_9
REMARK    5  A    between atoms: C_9  and  N_10
REMARK    6  A    between atoms: N_10  and  C_11
REMARK    7  A    between atoms: C_11  and  C_12
REMARK                            x       y       z     vdW  Elec       q    Type
REMARK                         _______ _______ _______ _____ _____    ______ ____
ROOT
ATOM      1  C   UNL     1      46.965   6.299  12.307  0.00  0.00    +0.000 A 
ATOM      2  C   UNL     1      46.469   6.476  11.009  0.00  0.00    +0.000 A 
ATOM      3  C   UNL     1      45.377   5.729  10.560  0.00  0.00    +0.000 A 
ATOM      4  C   UNL     1      44.754   4.793  11.397  0.00  0.00    +0.000 A 
ATOM      5  C   UNL     1      45.232   4.639  12.705  0.00  0.00    +0.000 A 
ATOM      6  C   UNL     1      46.324   5.387  13.156  0.00  0.00    +0.000 A 
ENDROOT
BRANCH   1   7
ATOM      7  C   UNL     1      48.174   7.061  12.774  0.00  0.00    +0.000 C 
BRANCH   7  10
ATOM      8  O   UNL     1      48.251   8.459  15.180  0.00  0.00    +0.000 OA
ATOM      9  C   UNL     1      48.682   7.309  15.154  0.00  0.00    +0.000 C 
ATOM     10  N   UNL     1      48.711   6.549  14.005  0.00  0.00    +0.000 N 
ATOM     11  H   UNL     1      49.052   5.596  14.085  0.00  0.00    +0.000 HD
BRANCH   9  12
ATOM     12  C   UNL     1      49.196   6.625  16.350  0.00  0.00    +0.000 A 
ATOM     13  N   UNL     1      50.263   7.089  17.043  0.00  0.00    +0.000 NA
ATOM     14  N   UNL     1      50.400   6.193  18.046  0.00  0.00    +0.000 N 
ATOM     15  C   UNL     1      49.493   5.179  18.018  0.00  0.00    +0.000 A 
ATOM     16  N   UNL     1      49.417   4.153  18.886  0.00  0.00    +0.000 NA
ATOM     17  C   UNL     1      48.410   3.296  18.590  0.00  0.00    +0.000 A 
ATOM     18  C   UNL     1      47.527   3.417  17.524  0.00  0.00    +0.000 A 
ATOM     19  C   UNL     1      47.653   4.506  16.659  0.00  0.00    +0.000 A 
ATOM     20  C   UNL     1      48.684   5.423  16.922  0.00  0.00    +0.000 A 
ATOM     21  H   UNL     1      51.138   6.320  18.728  0.00  0.00    +0.000 HD
ENDBRANCH   9  12
ENDBRANCH   7  10
ENDBRANCH   1   7
BRANCH   4  22
ATOM     22  C   UNL     1      43.588   3.971  10.893  0.00  0.00    +0.000 C 
BRANCH  22  23
ATOM     23  N   UNL     1      43.813   3.545   9.514  0.00  0.00    +0.000 NA
ATOM     24  H   UNL     1      44.339   4.266   9.022  0.00  0.00    +0.000 HD
BRANCH  23  25
ATOM     25  C   UNL     1      44.546   2.284   9.442  0.00  0.00    +0.000 C 
BRANCH  25  26
ATOM     26  C   UNL     1      45.616   2.347   8.375  0.00  0.00    +0.000 A 
ATOM     27  C   UNL     1      46.418   1.234   8.088  0.00  0.00    +0.000 A 
ATOM     28  C   UNL     1      47.397   1.304   7.093  0.00  0.00    +0.000 A 
ATOM     29  C   UNL     1      47.585   2.484   6.377  0.00  0.00    +0.000 A 
ATOM     30  C   UNL     1      46.795   3.598   6.652  0.00  0.00    +0.000 A 
ATOM     31  C   UNL     1      45.815   3.528   7.643  0.00  0.00    +0.000 A 
ENDBRANCH  25  26
ENDBRANCH  23  25
ENDBRANCH  22  23
ENDBRANCH   4  22
TORSDOF 7
ENDMDL
MODEL 3
REMARK VINA RESULT:    -7.578      5.251      7.685
REMARK INTER + INTRA:         -11.662
REMARK INTER:                 -10.717
REMARK INTRA:                  -0.945
REMARK UNBOUND:                -0.982
REMARK  Name = 
REMARK  7 active torsions:
REMARK  status: ('A' for Active; 'I' for Inactive)
REMARK    1  A    between atoms: C_2  and  C_20
REMARK    2  A    between atoms: N_3  and  C_4
REMARK    3  A    between atoms: C_4  and  C_5
REMARK    4  A    between atoms: C_8  and  C_9
REMARK    5  A    between atoms: C_9  and  N_10
REMARK    6  A    between atoms: N_10  and  C_11
REMARK    7  A    between atoms: C_11  and  C_12
REMARK                            x       y       z     vdW  Elec       q    Type
REMARK                         _______ _______ _______ _____ _____    ______ ____
ROOT
ATOM      1  C   UNL     1      44.745   7.761  11.776  0.00  0.00    +0.000 A 
ATOM      2  C   UNL     1      43.580   7.185  11.256  0.00  0.00    +0.000 A 
ATOM      3  C   UNL     1      43.367   5.807  11.349  0.00  0.00    +0.000 A 
ATOM      4  C   UNL     1      44.311   4.975  11.968  0.00  0.00    +0.000 A 
ATOM      5  C   UNL     1      45.462   5.556  12.514  0.00  0.00    +0.000 A 
ATOM      6  C   UNL     1      45.675   6.936  12.423  0.00  0.00    +0.000 A 
ENDROOT
BRANCH   1   7
ATOM      7  C   UNL     1      45.002   9.235  11.628  0.00  0.00    +0.000 C 
BRANCH   7  10
ATOM      8  O   UNL     1      43.292  10.655   9.953  0.00  0.00    +0.000 OA
ATOM      9  C   UNL     1      43.089  10.686  11.164  0.00  0.00    +0.000 C 
ATOM     10  N   UNL     1      43.897  10.038  12.073  0.00  0.00    +0.000 N 
ATOM     11  H   UNL     1      43.632  10.090  13.052  0.00  0.00    +0.000 HD
BRANCH   9  12
ATOM     12  C   UNL     1      41.955  11.406  11.763  0.00  0.00    +0.000 A 
ATOM     13  N   UNL     1      42.113  12.581  12.418  0.00  0.00    +0.000 NA
ATOM     14  N   UNL     1      40.855  12.900  12.799  0.00  0.00    +0.000 N 
ATOM     15  C   UNL     1      39.913  11.985  12.439  0.00  0.00    +0.000 A 
ATOM     16  N   UNL     1      38.595  12.051  12.704  0.00  0.00    +0.000 NA
ATOM     17  C   UNL     1      37.914  10.983  12.222  0.00  0.00    +0.000 A 
ATOM     18  C   UNL     1      38.466   9.915  11.525  0.00  0.00    +0.000 A 
ATOM     19  C   UNL     1      39.839   9.905  11.275  0.00  0.00    +0.000 A 
ATOM     20  C   UNL     1      40.591  10.990  11.757  0.00  0.00    +0.000 A 
ATOM     21  H   UNL     1      40.693  13.759  13.310  0.00  0.00    +0.000 HD
ENDBRANCH   9  12
ENDBRANCH   7  10
ENDBRANCH   1   7
BRANCH   4  22
ATOM     22  C   UNL     1      44.084   3.481  12.042  0.00  0.00    +0.000 C 
BRANCH  22  23
ATOM     23  N   UNL     1      44.968   2.776  11.117  0.00  0.00    +0.000 NA
ATOM     24  H   UNL     1      45.215   1.870  11.513  0.00  0.00    +0.000 HD
BRANCH  23  25
ATOM     25  C   UNL     1      44.347   2.574   9.811  0.00  0.00    +0.000 C 
BRANCH  25  26
ATOM     26  C   UNL     1      45.388   2.589   8.715  0.00  0.00    +0.000 A 
ATOM     27  C   UNL     1      46.054   1.417   8.331  0.00  0.00    +0.000 A 
ATOM     28  C   UNL     1      47.008   1.444   7.310  0.00  0.00    +0.000 A 
ATOM     29  C   UNL     1      47.306   2.642   6.663  0.00  0.00    +0.000 A 
ATOM     30  C   UNL     1      46.653   3.815   7.035  0.00  0.00    +0.000 A 
ATOM     31  C   UNL     1      45.698   3.788   8.052  0.00  0.00    +0.000 A 
ENDBRANCH  25  26
ENDBRANCH  23  25
ENDBRANCH  22  23
ENDBRANCH   4  22
TORSDOF 7
ENDMDL
MODEL 4
REMARK VINA RESULT:    -7.484      3.321      5.836
REMARK INTER + INTRA:         -11.529
REMARK INTER:                 -10.998
REMARK INTRA:                  -0.531
REMARK UNBOUND:                -0.982
REMARK  Name = 
REMARK  7 active torsions:
REMARK  status: ('A' for Active; 'I' for Inactive)
REMARK    1  A    between atoms: C_2  and  C_20
REMARK    2  A    between atoms: N_3  and  C_4
REMARK    3  A    between atoms: C_4  and  C_5
REMARK    4  A    between atoms: C_8  and  C_9
REMARK    5  A    between atoms: C_9  and  N_10
REMARK    6  A    between atoms: N_10  and  C_11
REMARK    7  A    between atoms: C_11  and  C_12
REMARK                            x       y       z     vdW  Elec       q    Type
REMARK                         _______ _______ _______ _____ _____    ______ ____
ROOT
ATOM      1  C   UNL     1      44.759   3.775   9.707  0.00  0.00    +0.000 A 
ATOM      2  C   UNL     1      45.524   4.498   8.784  0.00  0.00    +0.000 A 
ATOM      3  C   UNL     1      46.221   3.838   7.768  0.00  0.00    +0.000 A 
ATOM      4  C   UNL     1      46.165   2.442   7.649  0.00  0.00    +0.000 A 
ATOM      5  C   UNL     1      45.375   1.722   8.556  0.00  0.00    +0.000 A 
ATOM      6  C   UNL     1      44.677   2.383   9.571  0.00  0.00    +0.000 A 
ENDROOT
BRANCH   1   7
ATOM      7  C   UNL     1      44.054   4.477  10.834  0.00  0.00    +0.000 C 
BRANCH   7  10
ATOM      8  O   UNL     1      45.492   3.120  12.794  0.00  0.00    +0.000 OA
ATOM      9  C   UNL     1      45.652   4.333  12.681  0.00  0.00    +0.000 C 
ATOM     10  N   UNL     1      44.965   5.093  11.760  0.00  0.00    +0.000 N 
ATOM     11  H   UNL     1      45.187   6.083  11.714  0.00  0.00    +0.000 HD
BRANCH   9  12
ATOM     12  C   UNL     1      46.603   5.091  13.508  0.00  0.00    +0.000 A 
ATOM     13  N   UNL     1      46.804   4.808  14.817  0.00  0.00    +0.000 NA
ATOM     14  N   UNL     1      47.735   5.713  15.195  0.00  0.00    +0.000 N 
ATOM     15  C   UNL     1      48.123   6.562  14.204  0.00  0.00    +0.000 A 
ATOM     16  N   UNL     1      49.020   7.560  14.315  0.00  0.00    +0.000 NA
ATOM     17  C   UNL     1      49.188   8.239  13.155  0.00  0.00    +0.000 A 
ATOM     18  C   UNL     1      48.535   7.975  11.958  0.00  0.00    +0.000 A 
ATOM     19  C   UNL     1      47.618   6.924  11.903  0.00  0.00    +0.000 A 
ATOM     20  C   UNL     1      47.406   6.189  13.081  0.00  0.00    +0.000 A 
ATOM     21  H   UNL     1      48.073   5.708  16.149  0.00  0.00    +0.000 HD
ENDBRANCH   9  12
ENDBRANCH   7  10
ENDBRANCH   1   7
BRANCH   4  22
ATOM     22  C   UNL     1      46.942   1.734   6.561  0.00  0.00    +0.000 C 
BRANCH  22  23
ATOM     23  N   UNL     1      46.672   2.335   5.258  0.00  0.00    +0.000 NA
ATOM     24  H   UNL     1      46.883   3.331   5.297  0.00  0.00    +0.000 HD
BRANCH  23  25
ATOM     25  C   UNL     1      47.464   1.721   4.196  0.00  0.00    +0.000 C 
BRANCH  25  26
ATOM     26  C   UNL     1      46.705   0.585   3.550  0.00  0.00    +0.000 A 
ATOM     27  C   UNL     1      45.673   0.831   2.632  0.00  0.00    +0.000 A 
ATOM     28  C   UNL     1      44.986  -0.229   2.036  0.00  0.00    +0.000 A 
ATOM     29  C   UNL     1      45.320  -1.545   2.350  0.00  0.00    +0.000 A 
ATOM     30  C   UNL     1      46.341  -1.805   3.260  0.00  0.00    +0.000 A 
ATOM     31  C   UNL     1      47.031  -0.747   3.854  0.00  0.00    +0.000 A 
ENDBRANCH  25  26
ENDBRANCH  23  25
ENDBRANCH  22  23
ENDBRANCH   4  22
TORSDOF 7
ENDMDL
MODEL 5
REMARK VINA RESULT:    -7.429      3.010     10.102
REMARK INTER + INTRA:         -11.450
REMARK INTER:                 -11.024
REMARK INTRA:                  -0.426
REMARK UNBOUND:                -0.982
REMARK  Name = 
REMARK  7 active torsions:
REMARK  status: ('A' for Active; 'I' for Inactive)
REMARK    1  A    between atoms: C_2  and  C_20
REMARK    2  A    between atoms: N_3  and  C_4
REMARK    3  A    between atoms: C_4  and  C_5
REMARK    4  A    between atoms: C_8  and  C_9
REMARK    5  A    between atoms: C_9  and  N_10
REMARK    6  A    between atoms: N_10  and  C_11
REMARK    7  A    between atoms: C_11  and  C_12
REMARK                            x       y       z     vdW  Elec       q    Type
REMARK                         _______ _______ _______ _____ _____    ______ ____
ROOT
ATOM      1  C   UNL     1      44.854   4.493  11.417  0.00  0.00    +0.000 A 
ATOM      2  C   UNL     1      45.164   5.722  12.013  0.00  0.00    +0.000 A 
ATOM      3  C   UNL     1      45.954   5.772  13.165  0.00  0.00    +0.000 A 
ATOM      4  C   UNL     1      46.455   4.597  13.744  0.00  0.00    +0.000 A 
ATOM      5  C   UNL     1      46.169   3.371  13.129  0.00  0.00    +0.000 A 
ATOM      6  C   UNL     1      45.380   3.321  11.975  0.00  0.00    +0.000 A 
ENDROOT
BRANCH   1   7
ATOM      7  C   UNL     1      43.960   4.432  10.210  0.00  0.00    +0.000 C 
BRANCH   7  10
ATOM      8  O   UNL     1      46.101   5.538   8.816  0.00  0.00    +0.000 OA
ATOM      9  C   UNL     1      45.673   4.441   8.464  0.00  0.00    +0.000 C 
ATOM     10  N   UNL     1      44.600   3.828   9.074  0.00  0.00    +0.000 N 
ATOM     11  H   UNL     1      44.338   2.906   8.739  0.00  0.00    +0.000 HD
BRANCH   9  12
ATOM     12  C   UNL     1      46.271   3.669   7.365  0.00  0.00    +0.000 A 
ATOM     13  N   UNL     1      46.698   4.256   6.221  0.00  0.00    +0.000 NA
ATOM     14  N   UNL     1      47.173   3.219   5.495  0.00  0.00    +0.000 N 
ATOM     15  C   UNL     1      47.055   2.008   6.106  0.00  0.00    +0.000 A 
ATOM     16  N   UNL     1      47.433   0.819   5.599  0.00  0.00    +0.000 NA
ATOM     17  C   UNL     1      47.177  -0.210   6.442  0.00  0.00    +0.000 A 
ATOM     18  C   UNL     1      46.594  -0.104   7.699  0.00  0.00    +0.000 A 
ATOM     19  C   UNL     1      46.227   1.157   8.173  0.00  0.00    +0.000 A 
ATOM     20  C   UNL     1      46.470   2.258   7.334  0.00  0.00    +0.000 A 
ATOM     21  H   UNL     1      47.568   3.394   4.579  0.00  0.00    +0.000 HD
ENDBRANCH   9  12
ENDBRANCH   7  10
ENDBRANCH   1   7
BRANCH   4  22
ATOM     22  C   UNL     1      47.288   4.660  15.005  0.00  0.00    +0.000 C 
BRANCH  22  23
ATOM     23  N   UNL     1      46.880   3.621  15.947  0.00  0.00    +0.000 NA
ATOM     24  H   UNL     1      47.230   2.720  15.626  0.00  0.00    +0.000 HD
BRANCH  23  25
ATOM     25  C   UNL     1      47.380   3.876  17.295  0.00  0.00    +0.000 C 
BRANCH  25  26
ATOM     26  C   UNL     1      48.853   3.546  17.391  0.00  0.00    +0.000 A 
ATOM     27  C   UNL     1      49.782   4.500  17.831  0.00  0.00    +0.000 A 
ATOM     28  C   UNL     1      51.138   4.179  17.923  0.00  0.00    +0.000 A 
ATOM     29  C   UNL     1      51.581   2.904  17.576  0.00  0.00    +0.000 A 
ATOM     30  C   UNL     1      50.670   1.947  17.136  0.00  0.00    +0.000 A 
ATOM     31  C   UNL     1      49.314   2.265  17.047  0.00  0.00    +0.000 A 
ENDBRANCH  25  26
ENDBRANCH  23  25
ENDBRANCH  22  23
ENDBRANCH   4  22
TORSDOF 7
ENDMDL
MODEL 6
REMARK VINA RESULT:    -7.227      2.925      9.323
REMARK INTER + INTRA:         -11.167
REMARK INTER:                 -10.131
REMARK INTRA:                  -1.036
REMARK UNBOUND:                -0.982
REMARK  Name = 
REMARK  7 active torsions:
REMARK  status: ('A' for Active; 'I' for Inactive)
REMARK    1  A    between atoms: C_2  and  C_20
REMARK    2  A    between atoms: N_3  and  C_4
REMARK    3  A    between atoms: C_4  and  C_5
REMARK    4  A    between atoms: C_8  and  C_9
REMARK    5  A    between atoms: C_9  and  N_10
REMARK    6  A    between atoms: N_10  and  C_11
REMARK    7  A    between atoms: C_11  and  C_12
REMARK                            x       y       z     vdW  Elec       q    Type
REMARK                         _______ _______ _______ _____ _____    ______ ____
ROOT
ATOM      1  C   UNL     1      46.170   7.263  12.509  0.00  0.00    +0.000 A 
ATOM      2  C   UNL     1      47.148   6.330  12.875  0.00  0.00    +0.000 A 
ATOM      3  C   UNL     1      48.161   6.680  13.773  0.00  0.00    +0.000 A 
ATOM      4  C   UNL     1      48.215   7.966  14.329  0.00  0.00    +0.000 A 
ATOM      5  C   UNL     1      47.218   8.888  13.985  0.00  0.00    +0.000 A 
ATOM      6  C   UNL     1      46.204   8.538  13.088  0.00  0.00    +0.000 A 
ENDROOT
BRANCH   1   7
ATOM      7  C   UNL     1      45.113   6.907  11.501  0.00  0.00    +0.000 C 
BRANCH   7  10
ATOM      8  O   UNL     1      43.089   5.329  10.422  0.00  0.00    +0.000 OA
ATOM      9  C   UNL     1      44.241   4.904  10.400  0.00  0.00    +0.000 C 
ATOM     10  N   UNL     1      45.303   5.600  10.934  0.00  0.00    +0.000 N 
ATOM     11  H   UNL     1      46.226   5.187  10.839  0.00  0.00    +0.000 HD
BRANCH   9  12
ATOM     12  C   UNL     1      44.602   3.617   9.788  0.00  0.00    +0.000 A 
ATOM     13  N   UNL     1      44.091   2.442  10.227  0.00  0.00    +0.000 NA
ATOM     14  N   UNL     1      44.663   1.526   9.413  0.00  0.00    +0.000 N 
ATOM     15  C   UNL     1      45.520   2.052   8.496  0.00  0.00    +0.000 A 
ATOM     16  N   UNL     1      46.229   1.365   7.581  0.00  0.00    +0.000 NA
ATOM     17  C   UNL     1      47.004   2.168   6.813  0.00  0.00    +0.000 A 
ATOM     18  C   UNL     1      47.093   3.551   6.917  0.00  0.00    +0.000 A 
ATOM     19  C   UNL     1      46.330   4.209   7.883  0.00  0.00    +0.000 A 
ATOM     20  C   UNL     1      45.510   3.420   8.707  0.00  0.00    +0.000 A 
ATOM     21  H   UNL     1      44.433   0.547   9.528  0.00  0.00    +0.000 HD
ENDBRANCH   9  12
ENDBRANCH   7  10
ENDBRANCH   1   7
BRANCH   4  22
ATOM     22  C   UNL     1      49.329   8.343  15.281  0.00  0.00    +0.000 C 
BRANCH  22  23
ATOM     23  N   UNL     1      49.986   7.149  15.807  0.00  0.00    +0.000 NA
ATOM     24  H   UNL     1      50.987   7.322  15.881  0.00  0.00    +0.000 HD
BRANCH  23  25
ATOM     25  C   UNL     1      49.468   6.771  17.118  0.00  0.00    +0.000 C 
BRANCH  25  26
ATOM     26  C   UNL     1      49.105   5.303  17.149  0.00  0.00    +0.000 A 
ATOM     27  C   UNL     1      47.799   4.873  16.877  0.00  0.00    +0.000 A 
ATOM     28  C   UNL     1      47.480   3.513  16.900  0.00  0.00    +0.000 A 
ATOM     29  C   UNL     1      48.462   2.569  17.197  0.00  0.00    +0.000 A 
ATOM     30  C   UNL     1      49.764   2.982  17.470  0.00  0.00    +0.000 A 
ATOM     31  C   UNL     1      50.084   4.340  17.443  0.00  0.00    +0.000 A 
ENDBRANCH  25  26
ENDBRANCH  23  25
ENDBRANCH  22  23
ENDBRANCH   4  22
TORSDOF 7
ENDMDL
MODEL 7
REMARK VINA RESULT:    -7.117      2.537      8.748
REMARK INTER + INTRA:         -11.011
REMARK INTER:                  -9.454
REMARK INTRA:                  -1.558
REMARK UNBOUND:                -0.982
REMARK  Name = 
REMARK  7 active torsions:
REMARK  status: ('A' for Active; 'I' for Inactive)
REMARK    1  A    between atoms: C_2  and  C_20
REMARK    2  A    between atoms: N_3  and  C_4
REMARK    3  A    between atoms: C_4  and  C_5
REMARK    4  A    between atoms: C_8  and  C_9
REMARK    5  A    between atoms: C_9  and  N_10
REMARK    6  A    between atoms: N_10  and  C_11
REMARK    7  A    between atoms: C_11  and  C_12
REMARK                            x       y       z     vdW  Elec       q    Type
REMARK                         _______ _______ _______ _____ _____    ______ ____
ROOT
ATOM      1  C   UNL     1      48.359   7.948  13.825  0.00  0.00    +0.000 A 
ATOM      2  C   UNL     1      47.898   8.884  14.759  0.00  0.00    +0.000 A 
ATOM      3  C   UNL     1      48.461   8.948  16.037  0.00  0.00    +0.000 A 
ATOM      4  C   UNL     1      49.500   8.082  16.407  0.00  0.00    +0.000 A 
ATOM      5  C   UNL     1      49.981   7.167  15.461  0.00  0.00    +0.000 A 
ATOM      6  C   UNL     1      49.419   7.104  14.182  0.00  0.00    +0.000 A 
ENDROOT
BRANCH   1   7
ATOM      7  C   UNL     1      47.718   7.840  12.469  0.00  0.00    +0.000 C 
BRANCH   7  10
ATOM      8  O   UNL     1      45.068   7.145  12.964  0.00  0.00    +0.000 OA
ATOM      9  C   UNL     1      45.818   6.300  12.479  0.00  0.00    +0.000 C 
ATOM     10  N   UNL     1      47.150   6.543  12.226  0.00  0.00    +0.000 N 
ATOM     11  H   UNL     1      47.685   5.797  11.791  0.00  0.00    +0.000 HD
BRANCH   9  12
ATOM     12  C   UNL     1      45.363   4.952  12.109  0.00  0.00    +0.000 A 
ATOM     13  N   UNL     1      45.057   4.014  13.038  0.00  0.00    +0.000 NA
ATOM     14  N   UNL     1      44.689   2.945  12.296  0.00  0.00    +0.000 N 
ATOM     15  C   UNL     1      44.761   3.146  10.952  0.00  0.00    +0.000 A 
ATOM     16  N   UNL     1      44.466   2.247   9.995  0.00  0.00    +0.000 NA
ATOM     17  C   UNL     1      44.645   2.741   8.746  0.00  0.00    +0.000 A 
ATOM     18  C   UNL     1      45.079   4.024   8.434  0.00  0.00    +0.000 A 
ATOM     19  C   UNL     1      45.365   4.914   9.470  0.00  0.00    +0.000 A 
ATOM     20  C   UNL     1      45.197   4.449  10.786  0.00  0.00    +0.000 A 
ATOM     21  H   UNL     1      44.397   2.095  12.762  0.00  0.00    +0.000 HD
ENDBRANCH   9  12
ENDBRANCH   7  10
ENDBRANCH   1   7
BRANCH   4  22
ATOM     22  C   UNL     1      50.087   8.141  17.800  0.00  0.00    +0.000 C 
BRANCH  22  23
ATOM     23  N   UNL     1      50.621   6.839  18.193  0.00  0.00    +0.000 NA
ATOM     24  H   UNL     1      51.473   6.976  18.736  0.00  0.00    +0.000 HD
BRANCH  23  25
ATOM     25  C   UNL     1      49.666   6.072  18.987  0.00  0.00    +0.000 C 
BRANCH  25  26
ATOM     26  C   UNL     1      49.098   4.925  18.181  0.00  0.00    +0.000 A 
ATOM     27  C   UNL     1      49.855   3.772  17.928  0.00  0.00    +0.000 A 
ATOM     28  C   UNL     1      49.314   2.717  17.189  0.00  0.00    +0.000 A 
ATOM     29  C   UNL     1      48.014   2.803  16.695  0.00  0.00    +0.000 A 
ATOM     30  C   UNL     1      47.251   3.942  16.938  0.00  0.00    +0.000 A 
ATOM     31  C   UNL     1      47.789   4.995  17.678  0.00  0.00    +0.000 A 
ENDBRANCH  25  26
ENDBRANCH  23  25
ENDBRANCH  22  23
ENDBRANCH   4  22
TORSDOF 7
ENDMDL
MODEL 8
REMARK VINA RESULT:    -7.043      4.360      6.546
REMARK INTER + INTRA:         -10.907
REMARK INTER:                 -10.309
REMARK INTRA:                  -0.598
REMARK UNBOUND:                -0.982
REMARK  Name = 
REMARK  7 active torsions:
REMARK  status: ('A' for Active; 'I' for Inactive)
REMARK    1  A    between atoms: C_2  and  C_20
REMARK    2  A    between atoms: N_3  and  C_4
REMARK    3  A    between atoms: C_4  and  C_5
REMARK    4  A    between atoms: C_8  and  C_9
REMARK    5  A    between atoms: C_9  and  N_10
REMARK    6  A    between atoms: N_10  and  C_11
REMARK    7  A    between atoms: C_11  and  C_12
REMARK                            x       y       z     vdW  Elec       q    Type
REMARK                         _______ _______ _______ _____ _____    ______ ____
ROOT
ATOM      1  C   UNL     1      45.918   6.767  12.527  0.00  0.00    +0.000 A 
ATOM      2  C   UNL     1      44.872   6.907  11.606  0.00  0.00    +0.000 A 
ATOM      3  C   UNL     1      44.390   8.174  11.267  0.00  0.00    +0.000 A 
ATOM      4  C   UNL     1      44.945   9.329  11.836  0.00  0.00    +0.000 A 
ATOM      5  C   UNL     1      46.011   9.189  12.734  0.00  0.00    +0.000 A 
ATOM      6  C   UNL     1      46.495   7.921  13.072  0.00  0.00    +0.000 A 
ENDROOT
BRANCH   1   7
ATOM      7  C   UNL     1      46.401   5.403  12.935  0.00  0.00    +0.000 C 
BRANCH   7  10
ATOM      8  O   UNL     1      47.407   3.146  14.216  0.00  0.00    +0.000 OA
ATOM      9  C   UNL     1      47.164   4.145  14.889  0.00  0.00    +0.000 C 
ATOM     10  N   UNL     1      46.638   5.298  14.348  0.00  0.00    +0.000 N 
ATOM     11  H   UNL     1      46.503   6.087  14.974  0.00  0.00    +0.000 HD
BRANCH   9  12
ATOM     12  C   UNL     1      47.424   4.213  16.334  0.00  0.00    +0.000 A 
ATOM     13  N   UNL     1      46.792   3.405  17.219  0.00  0.00    +0.000 NA
ATOM     14  N   UNL     1      47.308   3.780  18.411  0.00  0.00    +0.000 N 
ATOM     15  C   UNL     1      48.216   4.791  18.334  0.00  0.00    +0.000 A 
ATOM     16  N   UNL     1      48.865   5.360  19.367  0.00  0.00    +0.000 NA
ATOM     17  C   UNL     1      49.700   6.351  18.973  0.00  0.00    +0.000 A 
ATOM     18  C   UNL     1      49.903   6.771  17.664  0.00  0.00    +0.000 A 
ATOM     19  C   UNL     1      49.204   6.139  16.634  0.00  0.00    +0.000 A 
ATOM     20  C   UNL     1      48.322   5.105  16.991  0.00  0.00    +0.000 A 
ATOM     21  H   UNL     1      47.001   3.311  19.254  0.00  0.00    +0.000 HD
ENDBRANCH   9  12
ENDBRANCH   7  10
ENDBRANCH   1   7
BRANCH   4  22
ATOM     22  C   UNL     1      44.401  10.696  11.482  0.00  0.00    +0.000 C 
BRANCH  22  23
ATOM     23  N   UNL     1      43.093  10.907  12.098  0.00  0.00    +0.000 NA
ATOM     24  H   UNL     1      43.048  11.852  12.475  0.00  0.00    +0.000 HD
BRANCH  23  25
ATOM     25  C   UNL     1      42.002  10.720  11.145  0.00  0.00    +0.000 C 
BRANCH  25  26
ATOM     26  C   UNL     1      40.666  10.983  11.802  0.00  0.00    +0.000 A 
ATOM     27  C   UNL     1      39.507  10.316  11.380  0.00  0.00    +0.000 A 
ATOM     28  C   UNL     1      38.280  10.563  12.002  0.00  0.00    +0.000 A 
ATOM     29  C   UNL     1      38.199  11.479  13.050  0.00  0.00    +0.000 A 
ATOM     30  C   UNL     1      39.341  12.149  13.478  0.00  0.00    +0.000 A 
ATOM     31  C   UNL     1      40.568  11.901  12.860  0.00  0.00    +0.000 A 
ENDBRANCH  25  26
ENDBRANCH  23  25
ENDBRANCH  22  23
ENDBRANCH   4  22
TORSDOF 7
ENDMDL
MODEL 9
REMARK VINA RESULT:    -6.636      3.002      8.402
REMARK INTER + INTRA:         -10.333
REMARK INTER:                  -8.568
REMARK INTRA:                  -1.765
REMARK UNBOUND:                -0.982
REMARK  Name = 
REMARK  7 active torsions:
REMARK  status: ('A' for Active; 'I' for Inactive)
REMARK    1  A    between atoms: C_2  and  C_20
REMARK    2  A    between atoms: N_3  and  C_4
REMARK    3  A    between atoms: C_4  and  C_5
REMARK    4  A    between atoms: C_8  and  C_9
REMARK    5  A    between atoms: C_9  and  N_10
REMARK    6  A    between atoms: N_10  and  C_11
REMARK    7  A    between atoms: C_11  and  C_12
REMARK                            x       y       z     vdW  Elec       q    Type
REMARK                         _______ _______ _______ _____ _____    ______ ____
ROOT
ATOM      1  C   UNL     1      49.501   7.698  15.319  0.00  0.00    +0.000 A 
ATOM      2  C   UNL     1      50.529   6.894  15.829  0.00  0.00    +0.000 A 
ATOM      3  C   UNL     1      50.678   6.723  17.209  0.00  0.00    +0.000 A 
ATOM      4  C   UNL     1      49.802   7.348  18.108  0.00  0.00    +0.000 A 
ATOM      5  C   UNL     1      48.757   8.127  17.595  0.00  0.00    +0.000 A 
ATOM      6  C   UNL     1      48.606   8.297  16.216  0.00  0.00    +0.000 A 
ENDROOT
BRANCH   1   7
ATOM      7  C   UNL     1      49.372   7.927  13.839  0.00  0.00    +0.000 C 
BRANCH   7  10
ATOM      8  O   UNL     1      48.167   5.468  13.339  0.00  0.00    +0.000 OA
ATOM      9  C   UNL     1      47.508   6.492  13.171  0.00  0.00    +0.000 C 
ATOM     10  N   UNL     1      48.027   7.753  13.366  0.00  0.00    +0.000 N 
ATOM     11  H   UNL     1      47.398   8.541  13.237  0.00  0.00    +0.000 HD
BRANCH   9  12
ATOM     12  C   UNL     1      46.097   6.470  12.759  0.00  0.00    +0.000 A 
ATOM     13  N   UNL     1      45.379   7.606  12.588  0.00  0.00    +0.000 NA
ATOM     14  N   UNL     1      44.160   7.154  12.213  0.00  0.00    +0.000 N 
ATOM     15  C   UNL     1      44.061   5.798  12.156  0.00  0.00    +0.000 A 
ATOM     16  N   UNL     1      42.962   5.093  11.827  0.00  0.00    +0.000 NA
ATOM     17  C   UNL     1      43.172   3.755  11.869  0.00  0.00    +0.000 A 
ATOM     18  C   UNL     1      44.368   3.130  12.205  0.00  0.00    +0.000 A 
ATOM     19  C   UNL     1      45.474   3.915  12.532  0.00  0.00    +0.000 A 
ATOM     20  C   UNL     1      45.307   5.310  12.506  0.00  0.00    +0.000 A 
ATOM     21  H   UNL     1      43.425   7.820  12.010  0.00  0.00    +0.000 HD
ENDBRANCH   9  12
ENDBRANCH   7  10
ENDBRANCH   1   7
BRANCH   4  22
ATOM     22  C   UNL     1      49.987   7.178  19.600  0.00  0.00    +0.000 C 
BRANCH  22  23
ATOM     23  N   UNL     1      49.929   5.766  19.971  0.00  0.00    +0.000 NA
ATOM     24  H   UNL     1      50.277   5.654  20.922  0.00  0.00    +0.000 HD
BRANCH  23  25
ATOM     25  C   UNL     1      48.572   5.233  19.892  0.00  0.00    +0.000 C 
BRANCH  25  26
ATOM     26  C   UNL     1      48.380   4.440  18.619  0.00  0.00    +0.000 A 
ATOM     27  C   UNL     1      49.274   3.422  18.258  0.00  0.00    +0.000 A 
ATOM     28  C   UNL     1      49.080   2.691  17.083  0.00  0.00    +0.000 A 
ATOM     29  C   UNL     1      47.992   2.970  16.257  0.00  0.00    +0.000 A 
ATOM     30  C   UNL     1      47.097   3.979  16.603  0.00  0.00    +0.000 A 
ATOM     31  C   UNL     1      47.288   4.707  17.778  0.00  0.00    +0.000 A 
ENDBRANCH  25  26
ENDBRANCH  23  25
ENDBRANCH  22  23
ENDBRANCH   4  22
TORSDOF 7
ENDMDL
