MODEL 1
REMARK VINA RESULT:    -7.738      0.000      0.000
REMARK INTER + INTRA:         -10.729
REMARK INTER:                 -10.000
REMARK INTRA:                  -0.729
REMARK UNBOUND:                -0.729
REMARK  Name = 
REMARK  5 active torsions:
REMARK  status: ('A' for Active; 'I' for Inactive)
REMARK    1  A    between atoms: C_2  and  C_4
REMARK    2  A    between atoms: C_8  and  S_9
REMARK    3  A    between atoms: S_9  and  C_10
REMARK    4  A    between atoms: C_10  and  C_11
REMARK    5  A    between atoms: C_16  and  C_17
REMARK                            x       y       z     vdW  Elec       q    Type
REMARK                         _______ _______ _______ _____ _____    ______ ____
ROOT
ATOM      1  C   UNL     1      44.677   4.858  12.583  0.00  0.00    +0.000 A 
ATOM      2  C   UNL     1      45.507   3.951  13.254  0.00  0.00    +0.000 A 
ATOM      3  C   UNL     1      46.686   4.394  13.846  0.00  0.00    +0.000 A 
ATOM      4  F   UNL     1      47.469   3.519  14.492  0.00  0.00    +0.000 F 
ATOM      5  C   UNL     1      47.126   5.700  13.674  0.00  0.00    +0.000 A 
ATOM      6  C   UNL     1      46.380   6.576  12.879  0.00  0.00    +0.000 A 
ATOM      7  C   UNL     1      45.085   6.198  12.517  0.00  0.00    +0.000 A 
ENDROOT
BRANCH   6   8
ATOM      8  C   UNL     1      47.100   7.715  12.164  0.00  0.00    +0.000 C 
ATOM      9  C   UNL     1      48.519   7.407  11.695  0.00  0.00    +0.000 C 
ATOM     10  C   UNL     1      49.560   7.700  12.769  0.00  0.00    +0.000 C 
ATOM     11  N   UNL     1      49.486   9.090  13.219  0.00  0.00    +0.000 NA
ATOM     12  C   UNL     1      48.189   9.373  13.830  0.00  0.00    +0.000 C 
ATOM     13  C   UNL     1      47.022   9.087  12.881  0.00  0.00    +0.000 C 
ATOM     14  H   UNL     1      49.622   9.712  12.424  0.00  0.00    +0.000 HD
ENDBRANCH   6   8
BRANCH   1  15
ATOM     15  C   UNL     1      43.411   4.367  11.905  0.00  0.00    +0.000 C 
BRANCH  15  16
ATOM     16  S   UNL     1      43.622   2.769  11.025  0.00  0.00    +0.000 S 
BRANCH  16  21
ATOM     17  C   UNL     1      46.266   2.189   8.040  0.00  0.00    +0.000 A 
ATOM     18  C   UNL     1      46.475   3.466   7.509  0.00  0.00    +0.000 A 
ATOM     19  C   UNL     1      45.832   4.567   8.071  0.00  0.00    +0.000 A 
ATOM     20  C   UNL     1      44.968   4.396   9.156  0.00  0.00    +0.000 A 
ATOM     21  C   UNL     1      44.730   3.124   9.683  0.00  0.00    +0.000 A 
ATOM     22  C   UNL     1      45.389   2.023   9.116  0.00  0.00    +0.000 A 
BRANCH  17  24
ATOM     23  N   UNL     1      47.846   1.191   6.494  0.00  0.00    +0.000 N 
ATOM     24  C   UNL     1      46.921   0.987   7.476  0.00  0.00    +0.000 C 
ATOM     25  O   UNL     1      46.680  -0.143   7.886  0.00  0.00    +0.000 OA
ATOM     26  H   UNL     1      48.364   0.360   6.199  0.00  0.00    +0.000 HD
ATOM     27  H   UNL     1      48.260   2.091   6.307  0.00  0.00    +0.000 HD
ENDBRANCH  17  24
ENDBRANCH  16  21
ENDBRANCH  15  16
ENDBRANCH   1  15
TORSDOF 5
ENDMDL
MODEL 2
REMARK VINA RESULT:    -6.965      4.370      7.617
REMARK INTER + INTRA:          -9.730
REMARK INTER:                  -9.039
REMARK INTRA:                  -0.691
REMARK UNBOUND:                -0.729
REMARK  Name = 
REMARK  5 active torsions:
REMARK  status: ('A' for Active; 'I' for Inactive)
REMARK    1  A    between atoms: C_2  and  C_4
REMARK    2  A    between atoms: C_8  and  S_9
REMARK    3  A    between atoms: S_9  and  C_10
REMARK    4  A    between atoms: C_10  and  C_11
REMARK    5  A    between atoms: C_16  and  C_17
REMARK                            x       y       z     vdW  Elec       q    Type
REMARK                         _______ _______ _______ _____ _____    ______ ____
ROOT
ATOM      1  C   UNL     1      47.747   7.145  13.423  0.00  0.00    +0.000 A 
ATOM      2  C   UNL     1      47.044   8.353  13.328  0.00  0.00    +0.000 A 
ATOM      3  C   UNL     1      45.705   8.351  12.948  0.00  0.00    +0.000 A 
ATOM      4  F   UNL     1      45.041   9.512  12.868  0.00  0.00    +0.000 F 
ATOM      5  C   UNL     1      45.081   7.183  12.533  0.00  0.00    +0.000 A 
ATOM      6  C   UNL     1      45.817   5.994  12.479  0.00  0.00    +0.000 A 
ATOM      7  C   UNL     1      47.064   5.961  13.107  0.00  0.00    +0.000 A 
ENDROOT
BRANCH   6   8
ATOM      8  C   UNL     1      45.408   4.921  11.476  0.00  0.00    +0.000 C 
ATOM      9  C   UNL     1      44.264   5.295  10.538  0.00  0.00    +0.000 C 
ATOM     10  C   UNL     1      42.899   4.967  11.132  0.00  0.00    +0.000 C 
ATOM     11  N   UNL     1      42.796   3.551  11.484  0.00  0.00    +0.000 NA
ATOM     12  C   UNL     1      43.775   3.196  12.510  0.00  0.00    +0.000 C 
ATOM     13  C   UNL     1      45.210   3.506  12.078  0.00  0.00    +0.000 C 
ATOM     14  H   UNL     1      42.962   2.982  10.655  0.00  0.00    +0.000 HD
ENDBRANCH   6   8
BRANCH   1  15
ATOM     15  C   UNL     1      49.217   7.151  13.799  0.00  0.00    +0.000 C 
BRANCH  15  16
ATOM     16  S   UNL     1      49.568   8.024  15.376  0.00  0.00    +0.000 S 
BRANCH  16  21
ATOM     17  C   UNL     1      47.861   4.871  17.217  0.00  0.00    +0.000 A 
ATOM     18  C   UNL     1      47.534   5.348  18.490  0.00  0.00    +0.000 A 
ATOM     19  C   UNL     1      47.797   6.675  18.824  0.00  0.00    +0.000 A 
ATOM     20  C   UNL     1      48.401   7.526  17.894  0.00  0.00    +0.000 A 
ATOM     21  C   UNL     1      48.756   7.059  16.627  0.00  0.00    +0.000 A 
ATOM     22  C   UNL     1      48.479   5.724  16.296  0.00  0.00    +0.000 A 
BRANCH  17  24
ATOM     23  N   UNL     1      46.881   2.701  17.676  0.00  0.00    +0.000 N 
ATOM     24  C   UNL     1      47.608   3.469  16.813  0.00  0.00    +0.000 C 
ATOM     25  O   UNL     1      47.995   3.014  15.743  0.00  0.00    +0.000 OA
ATOM     26  H   UNL     1      46.623   1.774  17.328  0.00  0.00    +0.000 HD
ATOM     27  H   UNL     1      46.331   3.087  18.427  0.00  0.00    +0.000 HD
ENDBRANCH  17  24
ENDBRANCH  16  21
ENDBRANCH  15  16
ENDBRANCH   1  15
TORSDOF 5
ENDMDL
MODEL 3
REMARK VINA RESULT:    -6.634      4.834      6.771
REMARK INTER + INTRA:          -9.302
REMARK INTER:                  -8.323
REMARK INTRA:                  -0.980
REMARK UNBOUND:                -0.729
REMARK  Name = 
REMARK  5 active torsions:
REMARK  status: ('A' for Active; 'I' for Inactive)
REMARK    1  A    between atoms: C_2  and  C_4
REMARK    2  A    between atoms: C_8  and  S_9
REMARK    3  A    between atoms: S_9  and  C_10
REMARK    4  A    between atoms: C_10  and  C_11
REMARK    5  A    between atoms: C_16  and  C_17
REMARK                            x       y       z     vdW  Elec       q    Type
REMARK                         _______ _______ _______ _____ _____    ______ ____
ROOT
ATOM      1  C   UNL     1      48.996   7.745  16.008  0.00  0.00    +0.000 A 
ATOM      2  C   UNL     1      48.565   9.051  16.276  0.00  0.00    +0.000 A 
ATOM      3  C   UNL     1      48.059   9.373  17.532  0.00  0.00    +0.000 A 
ATOM      4  F   UNL     1      47.658  10.627  17.779  0.00  0.00    +0.000 F 
ATOM      5  C   UNL     1      47.850   8.392  18.492  0.00  0.00    +0.000 A 
ATOM      6  C   UNL     1      48.136   7.058  18.183  0.00  0.00    +0.000 A 
ATOM      7  C   UNL     1      48.880   6.792  17.031  0.00  0.00    +0.000 A 
ENDROOT
BRANCH   6   8
ATOM      8  C   UNL     1      47.358   5.956  18.893  0.00  0.00    +0.000 C 
ATOM      9  C   UNL     1      47.684   5.763  20.371  0.00  0.00    +0.000 C 
ATOM     10  C   UNL     1      48.843   4.797  20.587  0.00  0.00    +0.000 C 
ATOM     11  N   UNL     1      48.575   3.497  19.974  0.00  0.00    +0.000 NA
ATOM     12  C   UNL     1      48.422   3.623  18.526  0.00  0.00    +0.000 C 
ATOM     13  C   UNL     1      47.310   4.602  18.140  0.00  0.00    +0.000 C 
ATOM     14  H   UNL     1      47.719   3.107  20.366  0.00  0.00    +0.000 HD
ENDBRANCH   6   8
BRANCH   1  15
ATOM     15  C   UNL     1      49.511   7.385  14.627  0.00  0.00    +0.000 C 
BRANCH  15  16
ATOM     16  S   UNL     1      48.602   8.217  13.265  0.00  0.00    +0.000 S 
BRANCH  16  21
ATOM     17  C   UNL     1      46.159   5.016  13.112  0.00  0.00    +0.000 A 
ATOM     18  C   UNL     1      44.909   5.550  12.782  0.00  0.00    +0.000 A 
ATOM     19  C   UNL     1      44.774   6.919  12.562  0.00  0.00    +0.000 A 
ATOM     20  C   UNL     1      45.881   7.762  12.682  0.00  0.00    +0.000 A 
ATOM     21  C   UNL     1      47.132   7.249  13.034  0.00  0.00    +0.000 A 
ATOM     22  C   UNL     1      47.260   5.867  13.246  0.00  0.00    +0.000 A 
BRANCH  17  24
ATOM     23  N   UNL     1      45.528   2.711  12.698  0.00  0.00    +0.000 N 
ATOM     24  C   UNL     1      46.355   3.570  13.362  0.00  0.00    +0.000 C 
ATOM     25  O   UNL     1      47.237   3.146  14.100  0.00  0.00    +0.000 OA
ATOM     26  H   UNL     1      45.753   1.718  12.798  0.00  0.00    +0.000 HD
ATOM     27  H   UNL     1      44.973   2.986  11.902  0.00  0.00    +0.000 HD
ENDBRANCH  17  24
ENDBRANCH  16  21
ENDBRANCH  15  16
ENDBRANCH   1  15
TORSDOF 5
ENDMDL
MODEL 4
REMARK VINA RESULT:    -6.451      3.924      5.621
REMARK INTER + INTRA:          -9.065
REMARK INTER:                  -8.251
REMARK INTRA:                  -0.814
REMARK UNBOUND:                -0.729
REMARK  Name = 
REMARK  5 active torsions:
REMARK  status: ('A' for Active; 'I' for Inactive)
REMARK    1  A    between atoms: C_2  and  C_4
REMARK    2  A    between atoms: C_8  and  S_9
REMARK    3  A    between atoms: S_9  and  C_10
REMARK    4  A    between atoms: C_10  and  C_11
REMARK    5  A    between atoms: C_16  and  C_17
REMARK                            x       y       z     vdW  Elec       q    Type
REMARK                         _______ _______ _______ _____ _____    ______ ____
ROOT
ATOM      1  C   UNL     1      48.803   7.920  14.623  0.00  0.00    +0.000 A 
ATOM      2  C   UNL     1      48.281   9.082  15.206  0.00  0.00    +0.000 A 
ATOM      3  C   UNL     1      48.404   9.288  16.577  0.00  0.00    +0.000 A 
ATOM      4  F   UNL     1      47.909  10.407  17.123  0.00  0.00    +0.000 F 
ATOM      5  C   UNL     1      48.920   8.300  17.405  0.00  0.00    +0.000 A 
ATOM      6  C   UNL     1      49.305   7.074  16.853  0.00  0.00    +0.000 A 
ATOM      7  C   UNL     1      49.422   6.984  15.464  0.00  0.00    +0.000 A 
ENDROOT
BRANCH   6   8
ATOM      8  C   UNL     1      49.246   5.824  17.725  0.00  0.00    +0.000 C 
ATOM      9  C   UNL     1      48.933   4.522  16.992  0.00  0.00    +0.000 C 
ATOM     10  C   UNL     1      47.435   4.265  16.884  0.00  0.00    +0.000 C 
ATOM     11  N   UNL     1      46.800   4.248  18.201  0.00  0.00    +0.000 NA
ATOM     12  C   UNL     1      46.937   5.543  18.865  0.00  0.00    +0.000 C 
ATOM     13  C   UNL     1      48.400   5.968  19.015  0.00  0.00    +0.000 C 
ATOM     14  H   UNL     1      47.235   3.530  18.779  0.00  0.00    +0.000 HD
ENDBRANCH   6   8
BRANCH   1  15
ATOM     15  C   UNL     1      48.635   7.679  13.135  0.00  0.00    +0.000 C 
BRANCH  15  16
ATOM     16  S   UNL     1      46.960   8.095  12.508  0.00  0.00    +0.000 S 
BRANCH  16  21
ATOM     17  C   UNL     1      45.403   4.964  10.505  0.00  0.00    +0.000 A 
ATOM     18  C   UNL     1      45.022   4.066  11.507  0.00  0.00    +0.000 A 
ATOM     19  C   UNL     1      45.200   4.404  12.847  0.00  0.00    +0.000 A 
ATOM     20  C   UNL     1      45.772   5.631  13.191  0.00  0.00    +0.000 A 
ATOM     21  C   UNL     1      46.180   6.529  12.203  0.00  0.00    +0.000 A 
ATOM     22  C   UNL     1      45.989   6.184  10.856  0.00  0.00    +0.000 A 
BRANCH  17  24
ATOM     23  N   UNL     1      44.022   4.183   8.670  0.00  0.00    +0.000 N 
ATOM     24  C   UNL     1      45.241   4.652   9.066  0.00  0.00    +0.000 C 
ATOM     25  O   UNL     1      46.138   4.834   8.251  0.00  0.00    +0.000 OA
ATOM     26  H   UNL     1      43.898   4.080   7.660  0.00  0.00    +0.000 HD
ATOM     27  H   UNL     1      43.193   4.259   9.238  0.00  0.00    +0.000 HD
ENDBRANCH  17  24
ENDBRANCH  16  21
ENDBRANCH  15  16
ENDBRANCH   1  15
TORSDOF 5
ENDMDL
MODEL 5
REMARK VINA RESULT:    -6.341      3.890      7.195
REMARK INTER + INTRA:          -8.923
REMARK INTER:                  -8.154
REMARK INTRA:                  -0.769
REMARK UNBOUND:                -0.729
REMARK  Name = 
REMARK  5 active torsions:
REMARK  status: ('A' for Active; 'I' for Inactive)
REMARK    1  A    between atoms: C_2  and  C_4
REMARK    2  A    between atoms: C_8  and  S_9
REMARK    3  A    between atoms: S_9  and  C_10
REMARK    4  A    between atoms: C_10  and  C_11
REMARK    5  A    between atoms: C_16  and  C_17
REMARK                            x       y       z     vdW  Elec       q    Type
REMARK                         _______ _______ _______ _____ _____    ______ ____
ROOT
ATOM      1  C   UNL     1      48.049   6.497  13.734  0.00  0.00    +0.000 A 
ATOM      2  C   UNL     1      47.987   5.748  14.916  0.00  0.00    +0.000 A 
ATOM      3  C   UNL     1      47.129   4.656  15.004  0.00  0.00    +0.000 A 
ATOM      4  F   UNL     1      47.085   3.942  16.136  0.00  0.00    +0.000 F 
ATOM      5  C   UNL     1      46.232   4.368  13.984  0.00  0.00    +0.000 A 
ATOM      6  C   UNL     1      46.178   5.201  12.861  0.00  0.00    +0.000 A 
ATOM      7  C   UNL     1      47.212   6.121  12.673  0.00  0.00    +0.000 A 
ENDROOT
BRANCH   6   8
ATOM      8  C   UNL     1      44.865   5.319  12.095  0.00  0.00    +0.000 C 
ATOM      9  C   UNL     1      43.663   4.629  12.734  0.00  0.00    +0.000 C 
ATOM     10  C   UNL     1      43.540   3.171  12.310  0.00  0.00    +0.000 C 
ATOM     11  N   UNL     1      43.458   3.044  10.855  0.00  0.00    +0.000 NA
ATOM     12  C   UNL     1      44.673   3.545  10.217  0.00  0.00    +0.000 C 
ATOM     13  C   UNL     1      44.963   5.004  10.581  0.00  0.00    +0.000 C 
ATOM     14  H   UNL     1      42.659   3.575  10.512  0.00  0.00    +0.000 HD
ENDBRANCH   6   8
BRANCH   1  15
ATOM     15  C   UNL     1      48.956   7.711  13.653  0.00  0.00    +0.000 C 
BRANCH  15  16
ATOM     16  S   UNL     1      49.466   8.134  11.940  0.00  0.00    +0.000 S 
BRANCH  16  21
ATOM     17  C   UNL     1      46.439  10.774  11.614  0.00  0.00    +0.000 A 
ATOM     18  C   UNL     1      47.035  11.921  11.080  0.00  0.00    +0.000 A 
ATOM     19  C   UNL     1      48.393  11.917  10.767  0.00  0.00    +0.000 A 
ATOM     20  C   UNL     1      49.163  10.774  10.999  0.00  0.00    +0.000 A 
ATOM     21  C   UNL     1      48.589   9.629  11.554  0.00  0.00    +0.000 A 
ATOM     22  C   UNL     1      47.219   9.639  11.858  0.00  0.00    +0.000 A 
BRANCH  17  24
ATOM     23  N   UNL     1      44.576   9.642  12.678  0.00  0.00    +0.000 N 
ATOM     24  C   UNL     1      45.002  10.728  11.970  0.00  0.00    +0.000 C 
ATOM     25  O   UNL     1      44.226  11.631  11.680  0.00  0.00    +0.000 OA
ATOM     26  H   UNL     1      43.609   9.684  13.008  0.00  0.00    +0.000 HD
ATOM     27  H   UNL     1      45.205   9.014  13.154  0.00  0.00    +0.000 HD
ENDBRANCH  17  24
ENDBRANCH  16  21
ENDBRANCH  15  16
ENDBRANCH   1  15
TORSDOF 5
ENDMDL
MODEL 6
REMARK VINA RESULT:    -6.337      3.563      5.190
REMARK INTER + INTRA:          -8.919
REMARK INTER:                  -8.183
REMARK INTRA:                  -0.736
REMARK UNBOUND:                -0.729
REMARK  Name = 
REMARK  5 active torsions:
REMARK  status: ('A' for Active; 'I' for Inactive)
REMARK    1  A    between atoms: C_2  and  C_4
REMARK    2  A    between atoms: C_8  and  S_9
REMARK    3  A    between atoms: S_9  and  C_10
REMARK    4  A    between atoms: C_10  and  C_11
REMARK    5  A    between atoms: C_16  and  C_17
REMARK                            x       y       z     vdW  Elec       q    Type
REMARK                         _______ _______ _______ _____ _____    ______ ____
ROOT
ATOM      1  C   UNL     1      48.252   6.518  13.698  0.00  0.00    +0.000 A 
ATOM      2  C   UNL     1      49.248   7.471  13.947  0.00  0.00    +0.000 A 
ATOM      3  C   UNL     1      49.926   7.467  15.163  0.00  0.00    +0.000 A 
ATOM      4  F   UNL     1      50.884   8.377  15.387  0.00  0.00    +0.000 F 
ATOM      5  C   UNL     1      49.546   6.615  16.191  0.00  0.00    +0.000 A 
ATOM      6  C   UNL     1      48.452   5.763  16.007  0.00  0.00    +0.000 A 
ATOM      7  C   UNL     1      47.959   5.593  14.711  0.00  0.00    +0.000 A 
ENDROOT
BRANCH   6   8
ATOM      8  C   UNL     1      47.639   5.335  17.224  0.00  0.00    +0.000 C 
ATOM      9  C   UNL     1      48.299   5.581  18.578  0.00  0.00    +0.000 C 
ATOM     10  C   UNL     1      49.178   4.414  19.014  0.00  0.00    +0.000 C 
ATOM     11  N   UNL     1      48.421   3.164  19.061  0.00  0.00    +0.000 NA
ATOM     12  C   UNL     1      47.912   2.811  17.737  0.00  0.00    +0.000 C 
ATOM     13  C   UNL     1      47.034   3.911  17.137  0.00  0.00    +0.000 C 
ATOM     14  H   UNL     1      47.635   3.266  19.702  0.00  0.00    +0.000 HD
ENDBRANCH   6   8
BRANCH   1  15
ATOM     15  C   UNL     1      47.487   6.548  12.388  0.00  0.00    +0.000 C 
BRANCH  15  16
ATOM     16  S   UNL     1      45.708   6.958  12.587  0.00  0.00    +0.000 S 
BRANCH  16  21
ATOM     17  C   UNL     1      44.440   3.640  10.682  0.00  0.00    +0.000 A 
ATOM     18  C   UNL     1      43.628   2.992  11.619  0.00  0.00    +0.000 A 
ATOM     19  C   UNL     1      43.411   3.569  12.869  0.00  0.00    +0.000 A 
ATOM     20  C   UNL     1      44.015   4.786  13.193  0.00  0.00    +0.000 A 
ATOM     21  C   UNL     1      44.848   5.435  12.279  0.00  0.00    +0.000 A 
ATOM     22  C   UNL     1      45.053   4.851  11.020  0.00  0.00    +0.000 A 
BRANCH  17  24
ATOM     23  N   UNL     1      44.353   3.827   8.266  0.00  0.00    +0.000 N 
ATOM     24  C   UNL     1      44.707   3.068   9.343  0.00  0.00    +0.000 C 
ATOM     25  O   UNL     1      45.251   1.981   9.192  0.00  0.00    +0.000 OA
ATOM     26  H   UNL     1      44.647   3.463   7.356  0.00  0.00    +0.000 HD
ATOM     27  H   UNL     1      44.146   4.812   8.330  0.00  0.00    +0.000 HD
ENDBRANCH  17  24
ENDBRANCH  16  21
ENDBRANCH  15  16
ENDBRANCH   1  15
TORSDOF 5
ENDMDL
MODEL 7
REMARK VINA RESULT:    -6.314      4.491      6.517
REMARK INTER + INTRA:          -8.889
REMARK INTER:                  -7.917
REMARK INTRA:                  -0.971
REMARK UNBOUND:                -0.729
REMARK  Name = 
REMARK  5 active torsions:
REMARK  status: ('A' for Active; 'I' for Inactive)
REMARK    1  A    between atoms: C_2  and  C_4
REMARK    2  A    between atoms: C_8  and  S_9
REMARK    3  A    between atoms: S_9  and  C_10
REMARK    4  A    between atoms: C_10  and  C_11
REMARK    5  A    between atoms: C_16  and  C_17
REMARK                            x       y       z     vdW  Elec       q    Type
REMARK                         _______ _______ _______ _____ _____    ______ ____
ROOT
ATOM      1  C   UNL     1      48.783   7.696  15.695  0.00  0.00    +0.000 A 
ATOM      2  C   UNL     1      48.312   8.763  16.471  0.00  0.00    +0.000 A 
ATOM      3  C   UNL     1      48.156   8.608  17.845  0.00  0.00    +0.000 A 
ATOM      4  F   UNL     1      47.713   9.639  18.578  0.00  0.00    +0.000 F 
ATOM      5  C   UNL     1      48.333   7.371  18.450  0.00  0.00    +0.000 A 
ATOM      6  C   UNL     1      48.656   6.262  17.661  0.00  0.00    +0.000 A 
ATOM      7  C   UNL     1      49.064   6.485  16.344  0.00  0.00    +0.000 A 
ENDROOT
BRANCH   6   8
ATOM      8  C   UNL     1      48.232   4.875  18.134  0.00  0.00    +0.000 C 
ATOM      9  C   UNL     1      49.366   3.942  18.547  0.00  0.00    +0.000 C 
ATOM     10  C   UNL     1      49.918   3.145  17.371  0.00  0.00    +0.000 C 
ATOM     11  N   UNL     1      48.867   2.372  16.711  0.00  0.00    +0.000 NA
ATOM     12  C   UNL     1      47.842   3.251  16.154  0.00  0.00    +0.000 C 
ATOM     13  C   UNL     1      47.211   4.157  17.215  0.00  0.00    +0.000 C 
ATOM     14  H   UNL     1      48.434   1.742  17.386  0.00  0.00    +0.000 HD
ENDBRANCH   6   8
BRANCH   1  15
ATOM     15  C   UNL     1      48.917   7.854  14.192  0.00  0.00    +0.000 C 
BRANCH  15  16
ATOM     16  S   UNL     1      47.365   8.390  13.369  0.00  0.00    +0.000 S 
BRANCH  16  21
ATOM     17  C   UNL     1      44.416   5.920  12.169  0.00  0.00    +0.000 A 
ATOM     18  C   UNL     1      44.885   4.641  12.485  0.00  0.00    +0.000 A 
ATOM     19  C   UNL     1      46.119   4.489  13.113  0.00  0.00    +0.000 A 
ATOM     20  C   UNL     1      46.896   5.610  13.414  0.00  0.00    +0.000 A 
ATOM     21  C   UNL     1      46.454   6.893  13.083  0.00  0.00    +0.000 A 
ATOM     22  C   UNL     1      45.206   7.038  12.459  0.00  0.00    +0.000 A 
BRANCH  17  24
ATOM     23  N   UNL     1      42.848   7.402  11.060  0.00  0.00    +0.000 N 
ATOM     24  C   UNL     1      43.115   6.137  11.496  0.00  0.00    +0.000 C 
ATOM     25  O   UNL     1      42.319   5.226  11.301  0.00  0.00    +0.000 OA
ATOM     26  H   UNL     1      41.997   7.505  10.503  0.00  0.00    +0.000 HD
ATOM     27  H   UNL     1      43.557   8.112  10.965  0.00  0.00    +0.000 HD
ENDBRANCH  17  24
ENDBRANCH  16  21
ENDBRANCH  15  16
ENDBRANCH   1  15
TORSDOF 5
ENDMDL
MODEL 8
REMARK VINA RESULT:    -6.216      4.508      7.394
REMARK INTER + INTRA:          -8.762
REMARK INTER:                  -7.763
REMARK INTRA:                  -0.999
REMARK UNBOUND:                -0.729
REMARK  Name = 
REMARK  5 active torsions:
REMARK  status: ('A' for Active; 'I' for Inactive)
REMARK    1  A    between atoms: C_2  and  C_4
REMARK    2  A    between atoms: C_8  and  S_9
REMARK    3  A    between atoms: S_9  and  C_10
REMARK    4  A    between atoms: C_10  and  C_11
REMARK    5  A    between atoms: C_16  and  C_17
REMARK                            x       y       z     vdW  Elec       q    Type
REMARK                         _______ _______ _______ _____ _____    ______ ____
ROOT
ATOM      1  C   UNL     1      49.161   7.415  14.223  0.00  0.00    +0.000 A 
ATOM      2  C   UNL     1      49.840   7.433  12.998  0.00  0.00    +0.000 A 
ATOM      3  C   UNL     1      49.124   7.519  11.807  0.00  0.00    +0.000 A 
ATOM      4  F   UNL     1      49.784   7.545  10.642  0.00  0.00    +0.000 F 
ATOM      5  C   UNL     1      47.737   7.455  11.801  0.00  0.00    +0.000 A 
ATOM      6  C   UNL     1      47.052   7.284  13.008  0.00  0.00    +0.000 A 
ATOM      7  C   UNL     1      47.760   7.464  14.199  0.00  0.00    +0.000 A 
ENDROOT
BRANCH   6   8
ATOM      8  C   UNL     1      45.695   6.588  12.992  0.00  0.00    +0.000 C 
ATOM      9  C   UNL     1      45.657   5.201  13.627  0.00  0.00    +0.000 C 
ATOM     10  C   UNL     1      46.003   4.099  12.631  0.00  0.00    +0.000 C 
ATOM     11  N   UNL     1      45.111   4.129  11.472  0.00  0.00    +0.000 NA
ATOM     12  C   UNL     1      45.246   5.387  10.741  0.00  0.00    +0.000 C 
ATOM     13  C   UNL     1      44.969   6.607  11.623  0.00  0.00    +0.000 C 
ATOM     14  H   UNL     1      44.146   4.028  11.783  0.00  0.00    +0.000 HD
ENDBRANCH   6   8
BRANCH   1  15
ATOM     15  C   UNL     1      49.940   7.282  15.518  0.00  0.00    +0.000 C 
BRANCH  15  16
ATOM     16  S   UNL     1      48.876   7.029  16.993  0.00  0.00    +0.000 S 
BRANCH  16  21
ATOM     17  C   UNL     1      49.640   3.084  17.295  0.00  0.00    +0.000 A 
ATOM     18  C   UNL     1      48.377   2.483  17.268  0.00  0.00    +0.000 A 
ATOM     19  C   UNL     1      47.236   3.270  17.123  0.00  0.00    +0.000 A 
ATOM     20  C   UNL     1      47.350   4.658  17.018  0.00  0.00    +0.000 A 
ATOM     21  C   UNL     1      48.601   5.276  17.067  0.00  0.00    +0.000 A 
ATOM     22  C   UNL     1      49.746   4.476  17.205  0.00  0.00    +0.000 A 
BRANCH  17  24
ATOM     23  N   UNL     1      51.887   2.864  18.181  0.00  0.00    +0.000 N 
ATOM     24  C   UNL     1      50.883   2.295  17.454  0.00  0.00    +0.000 C 
ATOM     25  O   UNL     1      51.006   1.167  16.990  0.00  0.00    +0.000 OA
ATOM     26  H   UNL     1      52.690   2.260  18.371  0.00  0.00    +0.000 HD
ATOM     27  H   UNL     1      51.746   3.658  18.787  0.00  0.00    +0.000 HD
ENDBRANCH  17  24
ENDBRANCH  16  21
ENDBRANCH  15  16
ENDBRANCH   1  15
TORSDOF 5
ENDMDL
MODEL 9
REMARK VINA RESULT:    -6.184      4.266      6.143
REMARK INTER + INTRA:          -8.721
REMARK INTER:                  -7.812
REMARK INTRA:                  -0.909
REMARK UNBOUND:                -0.729
REMARK  Name = 
REMARK  5 active torsions:
REMARK  status: ('A' for Active; 'I' for Inactive)
REMARK    1  A    between atoms: C_2  and  C_4
REMARK    2  A    between atoms: C_8  and  S_9
REMARK    3  A    between atoms: S_9  and  C_10
REMARK    4  A    between atoms: C_10  and  C_11
REMARK    5  A    between atoms: C_16  and  C_17
REMARK                            x       y       z     vdW  Elec       q    Type
REMARK                         _______ _______ _______ _____ _____    ______ ____
ROOT
ATOM      1  C   UNL     1      49.256   7.971  15.072  0.00  0.00    +0.000 A 
ATOM      2  C   UNL     1      50.510   8.570  15.255  0.00  0.00    +0.000 A 
ATOM      3  C   UNL     1      51.512   7.889  15.941  0.00  0.00    +0.000 A 
ATOM      4  F   UNL     1      52.709   8.468  16.102  0.00  0.00    +0.000 F 
ATOM      5  C   UNL     1      51.254   6.676  16.565  0.00  0.00    +0.000 A 
ATOM      6  C   UNL     1      49.963   6.140  16.517  0.00  0.00    +0.000 A 
ATOM      7  C   UNL     1      49.052   6.695  15.615  0.00  0.00    +0.000 A 
ENDROOT
BRANCH   6   8
ATOM      8  C   UNL     1      49.500   5.237  17.655  0.00  0.00    +0.000 C 
ATOM      9  C   UNL     1      48.635   4.049  17.244  0.00  0.00    +0.000 C 
ATOM     10  C   UNL     1      47.153   4.401  17.198  0.00  0.00    +0.000 C 
ATOM     11  N   UNL     1      46.687   4.921  18.483  0.00  0.00    +0.000 NA
ATOM     12  C   UNL     1      47.383   6.159  18.829  0.00  0.00    +0.000 C 
ATOM     13  C   UNL     1      48.903   5.980  18.877  0.00  0.00    +0.000 C 
ATOM     14  H   UNL     1      46.858   4.230  19.212  0.00  0.00    +0.000 HD
ENDBRANCH   6   8
BRANCH   1  15
ATOM     15  C   UNL     1      48.152   8.729  14.358  0.00  0.00    +0.000 C 
BRANCH  15  16
ATOM     16  S   UNL     1      48.071   8.385  12.557  0.00  0.00    +0.000 S 
BRANCH  16  21
ATOM     17  C   UNL     1      45.929   4.973  12.651  0.00  0.00    +0.000 A 
ATOM     18  C   UNL     1      44.661   5.347  12.195  0.00  0.00    +0.000 A 
ATOM     19  C   UNL     1      44.422   6.664  11.807  0.00  0.00    +0.000 A 
ATOM     20  C   UNL     1      45.442   7.614  11.887  0.00  0.00    +0.000 A 
ATOM     21  C   UNL     1      46.708   7.263  12.363  0.00  0.00    +0.000 A 
ATOM     22  C   UNL     1      46.942   5.933  12.743  0.00  0.00    +0.000 A 
BRANCH  17  24
ATOM     23  N   UNL     1      45.458   2.595  12.556  0.00  0.00    +0.000 N 
ATOM     24  C   UNL     1      46.233   3.588  13.080  0.00  0.00    +0.000 C 
ATOM     25  O   UNL     1      47.157   3.327  13.842  0.00  0.00    +0.000 OA
ATOM     26  H   UNL     1      45.755   1.642  12.778  0.00  0.00    +0.000 HD
ATOM     27  H   UNL     1      44.870   2.725  11.748  0.00  0.00    +0.000 HD
ENDBRANCH  17  24
ENDBRANCH  16  21
ENDBRANCH  15  16
ENDBRANCH   1  15
TORSDOF 5
ENDMDL
