MODEL 1
REMARK VINA RESULT:    -8.130      0.000      0.000
REMARK INTER + INTRA:         -12.127
REMARK INTER:                 -10.982
REMARK INTRA:                  -1.145
REMARK UNBOUND:                -1.145
REMARK  Name = 
REMARK  7 active torsions:
REMARK  status: ('A' for Active; 'I' for Inactive)
REMARK    1  A    between atoms: C_1  and  C_2
REMARK    2  A    between atoms: C_2  and  N_3
REMARK    3  A    between atoms: C_2  and  C_16
REMARK    4  A    between atoms: C_4  and  C_6
REMARK    5  A    between atoms: C_19  and  C_20
REMARK    6  A    between atoms: C_20  and  N_21
REMARK    7  A    between atoms: C_22  and  C_24
REMARK                            x       y       z     vdW  Elec       q    Type
REMARK                         _______ _______ _______ _____ _____    ______ ____
ROOT
ATOM      1  C   UNL     1      43.918   2.647  11.118  0.00  0.00    +0.000 C 
ATOM      2  C   UNL     1      44.196   3.746  10.084  0.00  0.00    +0.000 C 
ENDROOT
BRANCH   2   3
ATOM      3  C   UNL     1      45.107   3.218   8.979  0.00  0.00    +0.000 A 
ATOM      4  C   UNL     1      45.416   1.853   8.893  0.00  0.00    +0.000 A 
ATOM      5  C   UNL     1      46.245   1.368   7.871  0.00  0.00    +0.000 A 
ATOM      6  C   UNL     1      46.790   2.237   6.915  0.00  0.00    +0.000 A 
ATOM      7  C   UNL     1      46.473   3.598   6.991  0.00  0.00    +0.000 A 
ATOM      8  C   UNL     1      45.646   4.082   8.011  0.00  0.00    +0.000 A 
BRANCH   6   9
ATOM      9  C   UNL     1      47.677   1.717   5.812  0.00  0.00    +0.000 C 
BRANCH   9  10
ATOM     10  N   UNL     1      47.340   0.357   5.450  0.00  0.00    +0.000 N 
ATOM     11  C   UNL     1      47.089   0.025   4.136  0.00  0.00    +0.000 C 
ATOM     12  O   UNL     1      47.116   0.835   3.218  0.00  0.00    +0.000 OA
ATOM     13  H   UNL     1      47.536  -0.369   6.127  0.00  0.00    +0.000 HD
BRANCH  11  14
ATOM     14  C   UNL     1      46.796  -1.402   3.859  0.00  0.00    +0.000 A 
ATOM     15  C   UNL     1      46.705  -1.921   2.567  0.00  0.00    +0.000 A 
ATOM     16  C   UNL     1      46.439  -3.279   2.391  0.00  0.00    +0.000 A 
ATOM     17  C   UNL     1      46.272  -4.071   3.517  0.00  0.00    +0.000 A 
ATOM     18  N   UNL     1      46.366  -3.603   4.781  0.00  0.00    +0.000 NA
ATOM     19  C   UNL     1      46.638  -2.280   4.925  0.00  0.00    +0.000 A 
ENDBRANCH  11  14
ENDBRANCH   9  10
ENDBRANCH   6   9
ENDBRANCH   2   3
BRANCH   2  20
ATOM     20  N   UNL     1      44.794   4.934  10.679  0.00  0.00    +0.000 N 
ATOM     21  C   UNL     1      44.056   5.964  11.208  0.00  0.00    +0.000 C 
ATOM     22  O   UNL     1      42.830   5.936  11.273  0.00  0.00    +0.000 OA
ATOM     23  H   UNL     1      45.746   5.140  10.390  0.00  0.00    +0.000 HD
BRANCH  21  24
ATOM     24  C   UNL     1      44.811   7.095  11.760  0.00  0.00    +0.000 A 
ATOM     25  C   UNL     1      44.520   8.387  11.340  0.00  0.00    +0.000 A 
ATOM     26  S   UNL     1      45.491   9.581  12.074  0.00  0.00    +0.000 S 
ATOM     27  C   UNL     1      46.364   8.411  12.947  0.00  0.00    +0.000 A 
ATOM     28  N   UNL     1      47.397   8.767  13.756  0.00  0.00    +0.000 NA
ATOM     29  C   UNL     1      47.993   7.776  14.329  0.00  0.00    +0.000 A 
ATOM     30  N   UNL     1      47.639   6.461  14.180  0.00  0.00    +0.000 N 
ATOM     31  C   UNL     1      46.572   6.059  13.411  0.00  0.00    +0.000 A 
ATOM     32  O   UNL     1      46.229   4.882  13.362  0.00  0.00    +0.000 OA
ATOM     33  C   UNL     1      45.895   7.130  12.712  0.00  0.00    +0.000 A 
ATOM     34  H   UNL     1      48.131   5.733  14.674  0.00  0.00    +0.000 HD
ENDBRANCH  21  24
ENDBRANCH   2  20
TORSDOF 6
ENDMDL
MODEL 2
REMARK VINA RESULT:    -8.129      3.798      6.617
REMARK INTER + INTRA:         -12.125
REMARK INTER:                 -10.930
REMARK INTRA:                  -1.195
REMARK UNBOUND:                -1.145
REMARK  Name = 
REMARK  7 active torsions:
REMARK  status: ('A' for Active; 'I' for Inactive)
REMARK    1  A    between atoms: C_1  and  C_2
REMARK    2  A    between atoms: C_2  and  N_3
REMARK    3  A    between atoms: C_2  and  C_16
REMARK    4  A    between atoms: C_4  and  C_6
REMARK    5  A    between atoms: C_19  and  C_20
REMARK    6  A    between atoms: C_20  and  N_21
REMARK    7  A    between atoms: C_22  and  C_24
REMARK                            x       y       z     vdW  Elec       q    Type
REMARK                         _______ _______ _______ _____ _____    ______ ____
ROOT
ATOM      1  C   UNL     1      47.743   8.675  13.791  0.00  0.00    +0.000 C 
ATOM      2  C   UNL     1      48.101   7.201  14.024  0.00  0.00    +0.000 C 
ENDROOT
BRANCH   2   3
ATOM      3  C   UNL     1      47.152   6.294  13.246  0.00  0.00    +0.000 A 
ATOM      4  C   UNL     1      46.631   6.692  12.005  0.00  0.00    +0.000 A 
ATOM      5  C   UNL     1      45.768   5.854  11.287  0.00  0.00    +0.000 A 
ATOM      6  C   UNL     1      45.397   4.600  11.793  0.00  0.00    +0.000 A 
ATOM      7  C   UNL     1      45.924   4.195  13.025  0.00  0.00    +0.000 A 
ATOM      8  C   UNL     1      46.787   5.032  13.742  0.00  0.00    +0.000 A 
BRANCH   6   9
ATOM      9  C   UNL     1      44.472   3.694  11.020  0.00  0.00    +0.000 C 
BRANCH   9  10
ATOM     10  N   UNL     1      45.177   2.966   9.987  0.00  0.00    +0.000 N 
ATOM     11  C   UNL     1      45.215   3.447   8.695  0.00  0.00    +0.000 C 
ATOM     12  O   UNL     1      44.658   4.480   8.342  0.00  0.00    +0.000 OA
ATOM     13  H   UNL     1      45.832   2.254  10.281  0.00  0.00    +0.000 HD
BRANCH  11  14
ATOM     14  C   UNL     1      45.999   2.655   7.718  0.00  0.00    +0.000 A 
ATOM     15  C   UNL     1      46.455   3.180   6.507  0.00  0.00    +0.000 A 
ATOM     16  C   UNL     1      47.199   2.372   5.647  0.00  0.00    +0.000 A 
ATOM     17  C   UNL     1      47.460   1.066   6.029  0.00  0.00    +0.000 A 
ATOM     18  N   UNL     1      47.045   0.531   7.198  0.00  0.00    +0.000 NA
ATOM     19  C   UNL     1      46.333   1.341   8.024  0.00  0.00    +0.000 A 
ENDBRANCH  11  14
ENDBRANCH   9  10
ENDBRANCH   6   9
ENDBRANCH   2   3
BRANCH   2  20
ATOM     20  N   UNL     1      48.072   6.836  15.434  0.00  0.00    +0.000 N 
ATOM     21  C   UNL     1      49.194   6.486  16.144  0.00  0.00    +0.000 C 
ATOM     22  O   UNL     1      50.322   6.511  15.658  0.00  0.00    +0.000 OA
ATOM     23  H   UNL     1      47.175   6.517  15.789  0.00  0.00    +0.000 HD
BRANCH  21  24
ATOM     24  C   UNL     1      48.994   6.134  17.555  0.00  0.00    +0.000 A 
ATOM     25  C   UNL     1      49.341   4.865  18.004  0.00  0.00    +0.000 A 
ATOM     26  S   UNL     1      49.039   4.620  19.664  0.00  0.00    +0.000 S 
ATOM     27  C   UNL     1      48.396   6.185  19.833  0.00  0.00    +0.000 A 
ATOM     28  N   UNL     1      47.898   6.613  21.024  0.00  0.00    +0.000 NA
ATOM     29  C   UNL     1      47.409   7.807  21.001  0.00  0.00    +0.000 A 
ATOM     30  N   UNL     1      47.387   8.620  19.899  0.00  0.00    +0.000 N 
ATOM     31  C   UNL     1      47.922   8.249  18.688  0.00  0.00    +0.000 A 
ATOM     32  O   UNL     1      47.962   9.029  17.742  0.00  0.00    +0.000 OA
ATOM     33  C   UNL     1      48.446   6.900  18.649  0.00  0.00    +0.000 A 
ATOM     34  H   UNL     1      47.011   9.555  19.952  0.00  0.00    +0.000 HD
ENDBRANCH  21  24
ENDBRANCH   2  20
TORSDOF 6
ENDMDL
MODEL 3
REMARK VINA RESULT:    -8.102      3.514      6.346
REMARK INTER + INTRA:         -12.089
REMARK INTER:                 -11.068
REMARK INTRA:                  -1.022
REMARK UNBOUND:                -1.145
REMARK  Name = 
REMARK  7 active torsions:
REMARK  status: ('A' for Active; 'I' for Inactive)
REMARK    1  A    between atoms: C_1  and  C_2
REMARK    2  A    between atoms: C_2  and  N_3
REMARK    3  A    between atoms: C_2  and  C_16
REMARK    4  A    between atoms: C_4  and  C_6
REMARK    5  A    between atoms: C_19  and  C_20
REMARK    6  A    between atoms: C_20  and  N_21
REMARK    7  A    between atoms: C_22  and  C_24
REMARK                            x       y       z     vdW  Elec       q    Type
REMARK                         _______ _______ _______ _____ _____    ______ ____
ROOT
ATOM      1  C   UNL     1      47.536   9.106  13.243  0.00  0.00    +0.000 C 
ATOM      2  C   UNL     1      47.967   7.699  13.678  0.00  0.00    +0.000 C 
ENDROOT
BRANCH   2   3
ATOM      3  C   UNL     1      47.093   6.644  13.004  0.00  0.00    +0.000 A 
ATOM      4  C   UNL     1      46.898   5.387  13.595  0.00  0.00    +0.000 A 
ATOM      5  C   UNL     1      46.087   4.424  12.980  0.00  0.00    +0.000 A 
ATOM      6  C   UNL     1      45.457   4.689  11.756  0.00  0.00    +0.000 A 
ATOM      7  C   UNL     1      45.641   5.947  11.169  0.00  0.00    +0.000 A 
ATOM      8  C   UNL     1      46.450   6.909  11.783  0.00  0.00    +0.000 A 
BRANCH   6   9
ATOM      9  C   UNL     1      44.580   3.656  11.095  0.00  0.00    +0.000 C 
BRANCH   9  10
ATOM     10  N   UNL     1      45.283   2.951  10.045  0.00  0.00    +0.000 N 
ATOM     11  C   UNL     1      45.152   3.344   8.729  0.00  0.00    +0.000 C 
ATOM     12  O   UNL     1      44.441   4.275   8.371  0.00  0.00    +0.000 OA
ATOM     13  H   UNL     1      46.046   2.345  10.318  0.00  0.00    +0.000 HD
BRANCH  11  14
ATOM     14  C   UNL     1      45.946   2.589   7.732  0.00  0.00    +0.000 A 
ATOM     15  C   UNL     1      46.370   3.143   6.522  0.00  0.00    +0.000 A 
ATOM     16  C   UNL     1      47.126   2.369   5.642  0.00  0.00    +0.000 A 
ATOM     17  C   UNL     1      47.432   1.066   6.004  0.00  0.00    +0.000 A 
ATOM     18  N   UNL     1      47.049   0.504   7.171  0.00  0.00    +0.000 NA
ATOM     19  C   UNL     1      46.324   1.282   8.016  0.00  0.00    +0.000 A 
ENDBRANCH  11  14
ENDBRANCH   9  10
ENDBRANCH   6   9
ENDBRANCH   2   3
BRANCH   2  20
ATOM     20  N   UNL     1      47.914   7.521  15.123  0.00  0.00    +0.000 N 
ATOM     21  C   UNL     1      48.969   7.042  15.861  0.00  0.00    +0.000 C 
ATOM     22  O   UNL     1      50.062   6.782  15.365  0.00  0.00    +0.000 OA
ATOM     23  H   UNL     1      46.985   7.433  15.523  0.00  0.00    +0.000 HD
BRANCH  21  24
ATOM     24  C   UNL     1      48.751   6.911  17.307  0.00  0.00    +0.000 A 
ATOM     25  C   UNL     1      48.543   8.049  18.077  0.00  0.00    +0.000 A 
ATOM     26  S   UNL     1      48.313   7.720  19.734  0.00  0.00    +0.000 S 
ATOM     27  C   UNL     1      48.525   6.051  19.488  0.00  0.00    +0.000 A 
ATOM     28  N   UNL     1      48.494   5.180  20.532  0.00  0.00    +0.000 NA
ATOM     29  C   UNL     1      48.705   3.949  20.207  0.00  0.00    +0.000 A 
ATOM     30  N   UNL     1      48.928   3.507  18.929  0.00  0.00    +0.000 N 
ATOM     31  C   UNL     1      48.920   4.344  17.838  0.00  0.00    +0.000 A 
ATOM     32  O   UNL     1      49.041   3.907  16.698  0.00  0.00    +0.000 OA
ATOM     33  C   UNL     1      48.729   5.743  18.155  0.00  0.00    +0.000 A 
ATOM     34  H   UNL     1      49.063   2.526  18.737  0.00  0.00    +0.000 HD
ENDBRANCH  21  24
ENDBRANCH   2  20
TORSDOF 6
ENDMDL
MODEL 4
REMARK VINA RESULT:    -7.797      3.247      5.771
REMARK INTER + INTRA:         -11.676
REMARK INTER:                 -10.384
REMARK INTRA:                  -1.293
REMARK UNBOUND:                -1.145
REMARK  Name = 
REMARK  7 active torsions:
REMARK  status: ('A' for Active; 'I' for Inactive)
REMARK    1  A    between atoms: C_1  and  C_2
REMARK    2  A    between atoms: C_2  and  N_3
REMARK    3  A    between atoms: C_2  and  C_16
REMARK    4  A    between atoms: C_4  and  C_6
REMARK    5  A    between atoms: C_19  and  C_20
REMARK    6  A    between atoms: C_20  and  N_21
REMARK    7  A    between atoms: C_22  and  C_24
REMARK                            x       y       z     vdW  Elec       q    Type
REMARK                         _______ _______ _______ _____ _____    ______ ____
ROOT
ATOM      1  C   UNL     1      47.431   4.091  15.642  0.00  0.00    +0.000 C 
ATOM      2  C   UNL     1      47.178   5.388  14.862  0.00  0.00    +0.000 C 
ENDROOT
BRANCH   2   3
ATOM      3  C   UNL     1      46.329   5.107  13.625  0.00  0.00    +0.000 A 
ATOM      4  C   UNL     1      46.071   3.792  13.213  0.00  0.00    +0.000 A 
ATOM      5  C   UNL     1      45.283   3.536  12.083  0.00  0.00    +0.000 A 
ATOM      6  C   UNL     1      44.739   4.588  11.332  0.00  0.00    +0.000 A 
ATOM      7  C   UNL     1      44.985   5.901  11.747  0.00  0.00    +0.000 A 
ATOM      8  C   UNL     1      45.772   6.157  12.876  0.00  0.00    +0.000 A 
BRANCH   6   9
ATOM      9  C   UNL     1      43.886   4.315  10.118  0.00  0.00    +0.000 C 
BRANCH   9  10
ATOM     10  N   UNL     1      44.555   3.437   9.182  0.00  0.00    +0.000 N 
ATOM     11  C   UNL     1      45.543   3.923   8.351  0.00  0.00    +0.000 C 
ATOM     12  O   UNL     1      45.898   5.095   8.338  0.00  0.00    +0.000 OA
ATOM     13  H   UNL     1      44.460   2.440   9.326  0.00  0.00    +0.000 HD
BRANCH  11  14
ATOM     14  C   UNL     1      46.199   2.937   7.459  0.00  0.00    +0.000 A 
ATOM     15  C   UNL     1      46.605   3.244   6.159  0.00  0.00    +0.000 A 
ATOM     16  C   UNL     1      47.229   2.263   5.387  0.00  0.00    +0.000 A 
ATOM     17  C   UNL     1      47.423   1.008   5.944  0.00  0.00    +0.000 A 
ATOM     18  N   UNL     1      47.054   0.683   7.203  0.00  0.00    +0.000 NA
ATOM     19  C   UNL     1      46.461   1.659   7.938  0.00  0.00    +0.000 A 
ENDBRANCH  11  14
ENDBRANCH   9  10
ENDBRANCH   6   9
ENDBRANCH   2   3
BRANCH   2  20
ATOM     20  N   UNL     1      48.413   6.050  14.462  0.00  0.00    +0.000 N 
ATOM     21  C   UNL     1      48.995   7.059  15.188  0.00  0.00    +0.000 C 
ATOM     22  O   UNL     1      48.549   7.444  16.266  0.00  0.00    +0.000 OA
ATOM     23  H   UNL     1      48.648   5.987  13.476  0.00  0.00    +0.000 HD
BRANCH  21  24
ATOM     24  C   UNL     1      50.233   7.629  14.643  0.00  0.00    +0.000 A 
ATOM     25  C   UNL     1      51.404   7.570  15.389  0.00  0.00    +0.000 A 
ATOM     26  S   UNL     1      52.746   8.281  14.614  0.00  0.00    +0.000 S 
ATOM     27  C   UNL     1      51.802   8.731  13.273  0.00  0.00    +0.000 A 
ATOM     28  N   UNL     1      52.341   9.431  12.240  0.00  0.00    +0.000 NA
ATOM     29  C   UNL     1      51.503   9.736  11.307  0.00  0.00    +0.000 A 
ATOM     30  N   UNL     1      50.178   9.391  11.304  0.00  0.00    +0.000 N 
ATOM     31  C   UNL     1      49.600   8.643  12.303  0.00  0.00    +0.000 A 
ATOM     32  O   UNL     1      48.431   8.278  12.234  0.00  0.00    +0.000 OA
ATOM     33  C   UNL     1      50.489   8.310  13.397  0.00  0.00    +0.000 A 
ATOM     34  H   UNL     1      49.578   9.640  10.532  0.00  0.00    +0.000 HD
ENDBRANCH  21  24
ENDBRANCH   2  20
TORSDOF 6
ENDMDL
MODEL 5
REMARK VINA RESULT:    -7.151      5.597     10.302
REMARK INTER + INTRA:         -10.804
REMARK INTER:                  -9.668
REMARK INTRA:                  -1.136
REMARK UNBOUND:                -1.145
REMARK  Name = 
REMARK  7 active torsions:
REMARK  status: ('A' for Active; 'I' for Inactive)
REMARK    1  A    between atoms: C_1  and  C_2
REMARK    2  A    between atoms: C_2  and  N_3
REMARK    3  A    between atoms: C_2  and  C_16
REMARK    4  A    between atoms: C_4  and  C_6
REMARK    5  A    between atoms: C_19  and  C_20
REMARK    6  A    between atoms: C_20  and  N_21
REMARK    7  A    between atoms: C_22  and  C_24
REMARK                            x       y       z     vdW  Elec       q    Type
REMARK                         _______ _______ _______ _____ _____    ______ ____
ROOT
ATOM      1  C   UNL     1      49.824   7.977  11.700  0.00  0.00    +0.000 C 
ATOM      2  C   UNL     1      48.547   7.622  12.474  0.00  0.00    +0.000 C 
ENDROOT
BRANCH   2   3
ATOM      3  C   UNL     1      48.896   7.133  13.877  0.00  0.00    +0.000 A 
ATOM      4  C   UNL     1      50.060   7.573  14.524  0.00  0.00    +0.000 A 
ATOM      5  C   UNL     1      50.373   7.132  15.817  0.00  0.00    +0.000 A 
ATOM      6  C   UNL     1      49.534   6.234  16.493  0.00  0.00    +0.000 A 
ATOM      7  C   UNL     1      48.366   5.802  15.854  0.00  0.00    +0.000 A 
ATOM      8  C   UNL     1      48.053   6.243  14.564  0.00  0.00    +0.000 A 
BRANCH   6   9
ATOM      9  C   UNL     1      49.866   5.762  17.886  0.00  0.00    +0.000 C 
BRANCH   9  10
ATOM     10  N   UNL     1      50.991   4.852  17.888  0.00  0.00    +0.000 N 
ATOM     11  C   UNL     1      50.789   3.490  17.812  0.00  0.00    +0.000 C 
ATOM     12  O   UNL     1      49.680   2.974  17.757  0.00  0.00    +0.000 OA
ATOM     13  H   UNL     1      51.905   5.239  17.696  0.00  0.00    +0.000 HD
BRANCH  11  14
ATOM     14  C   UNL     1      52.005   2.643  17.775  0.00  0.00    +0.000 A 
ATOM     15  C   UNL     1      51.971   1.278  17.483  0.00  0.00    +0.000 A 
ATOM     16  C   UNL     1      53.162   0.553  17.456  0.00  0.00    +0.000 A 
ATOM     17  C   UNL     1      54.348   1.220  17.722  0.00  0.00    +0.000 A 
ATOM     18  N   UNL     1      54.418   2.542  17.995  0.00  0.00    +0.000 NA
ATOM     19  C   UNL     1      53.245   3.228  18.004  0.00  0.00    +0.000 A 
ENDBRANCH  11  14
ENDBRANCH   9  10
ENDBRANCH   6   9
ENDBRANCH   2   3
BRANCH   2  20
ATOM     20  N   UNL     1      47.746   6.612  11.794  0.00  0.00    +0.000 N 
ATOM     21  C   UNL     1      46.389   6.722  11.619  0.00  0.00    +0.000 C 
ATOM     22  O   UNL     1      45.752   7.712  11.970  0.00  0.00    +0.000 OA
ATOM     23  H   UNL     1      48.149   5.680  11.758  0.00  0.00    +0.000 HD
BRANCH  21  24
ATOM     24  C   UNL     1      45.726   5.612  10.923  0.00  0.00    +0.000 A 
ATOM     25  C   UNL     1      45.772   5.544   9.536  0.00  0.00    +0.000 A 
ATOM     26  S   UNL     1      44.949   4.199   8.889  0.00  0.00    +0.000 S 
ATOM     27  C   UNL     1      44.465   3.682  10.435  0.00  0.00    +0.000 A 
ATOM     28  N   UNL     1      43.677   2.586  10.592  0.00  0.00    +0.000 NA
ATOM     29  C   UNL     1      43.356   2.330  11.816  0.00  0.00    +0.000 A 
ATOM     30  N   UNL     1      43.766   3.061  12.900  0.00  0.00    +0.000 N 
ATOM     31  C   UNL     1      44.602   4.147  12.793  0.00  0.00    +0.000 A 
ATOM     32  O   UNL     1      45.019   4.733  13.787  0.00  0.00    +0.000 OA
ATOM     33  C   UNL     1      44.957   4.503  11.435  0.00  0.00    +0.000 A 
ATOM     34  H   UNL     1      43.500   2.795  13.835  0.00  0.00    +0.000 HD
ENDBRANCH  21  24
ENDBRANCH   2  20
TORSDOF 6
ENDMDL
MODEL 6
REMARK VINA RESULT:    -7.060      7.295     10.412
REMARK INTER + INTRA:         -10.682
REMARK INTER:                  -9.745
REMARK INTRA:                  -0.937
REMARK UNBOUND:                -1.145
REMARK  Name = 
REMARK  7 active torsions:
REMARK  status: ('A' for Active; 'I' for Inactive)
REMARK    1  A    between atoms: C_1  and  C_2
REMARK    2  A    between atoms: C_2  and  N_3
REMARK    3  A    between atoms: C_2  and  C_16
REMARK    4  A    between atoms: C_4  and  C_6
REMARK    5  A    between atoms: C_19  and  C_20
REMARK    6  A    between atoms: C_20  and  N_21
REMARK    7  A    between atoms: C_22  and  C_24
REMARK                            x       y       z     vdW  Elec       q    Type
REMARK                         _______ _______ _______ _____ _____    ______ ____
ROOT
ATOM      1  C   UNL     1      46.528   3.433  13.115  0.00  0.00    +0.000 C 
ATOM      2  C   UNL     1      46.151   4.565  14.080  0.00  0.00    +0.000 C 
ENDROOT
BRANCH   2   3
ATOM      3  C   UNL     1      45.778   5.824  13.301  0.00  0.00    +0.000 A 
ATOM      4  C   UNL     1      44.628   5.860  12.499  0.00  0.00    +0.000 A 
ATOM      5  C   UNL     1      44.281   7.020  11.793  0.00  0.00    +0.000 A 
ATOM      6  C   UNL     1      45.079   8.171  11.866  0.00  0.00    +0.000 A 
ATOM      7  C   UNL     1      46.221   8.142  12.675  0.00  0.00    +0.000 A 
ATOM      8  C   UNL     1      46.566   6.984  13.380  0.00  0.00    +0.000 A 
BRANCH   6   9
ATOM      9  C   UNL     1      44.705   9.422  11.112  0.00  0.00    +0.000 C 
BRANCH   9  10
ATOM     10  N   UNL     1      43.279   9.663  11.149  0.00  0.00    +0.000 N 
ATOM     11  C   UNL     1      42.787  10.903  11.498  0.00  0.00    +0.000 C 
ATOM     12  O   UNL     1      43.501  11.849  11.808  0.00  0.00    +0.000 OA
ATOM     13  H   UNL     1      42.680   8.995  10.681  0.00  0.00    +0.000 HD
BRANCH  11  14
ATOM     14  C   UNL     1      41.314  11.063  11.463  0.00  0.00    +0.000 A 
ATOM     15  C   UNL     1      40.531  10.650  10.383  0.00  0.00    +0.000 A 
ATOM     16  C   UNL     1      39.148  10.825  10.433  0.00  0.00    +0.000 A 
ATOM     17  C   UNL     1      38.596  11.408  11.563  0.00  0.00    +0.000 A 
ATOM     18  N   UNL     1      39.323  11.806  12.630  0.00  0.00    +0.000 NA
ATOM     19  C   UNL     1      40.666  11.614  12.563  0.00  0.00    +0.000 A 
ENDBRANCH  11  14
ENDBRANCH   9  10
ENDBRANCH   6   9
ENDBRANCH   2   3
BRANCH   2  20
ATOM     20  N   UNL     1      47.220   4.876  15.020  0.00  0.00    +0.000 N 
ATOM     21  C   UNL     1      47.310   4.315  16.270  0.00  0.00    +0.000 C 
ATOM     22  O   UNL     1      46.525   3.459  16.671  0.00  0.00    +0.000 OA
ATOM     23  H   UNL     1      47.698   5.759  14.868  0.00  0.00    +0.000 HD
BRANCH  21  24
ATOM     24  C   UNL     1      48.442   4.742  17.100  0.00  0.00    +0.000 A 
ATOM     25  C   UNL     1      48.450   6.018  17.649  0.00  0.00    +0.000 A 
ATOM     26  S   UNL     1      49.838   6.354  18.581  0.00  0.00    +0.000 S 
ATOM     27  C   UNL     1      50.498   4.822  18.249  0.00  0.00    +0.000 A 
ATOM     28  N   UNL     1      51.724   4.471  18.720  0.00  0.00    +0.000 NA
ATOM     29  C   UNL     1      52.116   3.295  18.363  0.00  0.00    +0.000 A 
ATOM     30  N   UNL     1      51.387   2.430  17.591  0.00  0.00    +0.000 N 
ATOM     31  C   UNL     1      50.124   2.723  17.133  0.00  0.00    +0.000 A 
ATOM     32  O   UNL     1      49.462   1.897  16.512  0.00  0.00    +0.000 OA
ATOM     33  C   UNL     1      49.654   4.050  17.471  0.00  0.00    +0.000 A 
ATOM     34  H   UNL     1      51.740   1.512  17.365  0.00  0.00    +0.000 HD
ENDBRANCH  21  24
ENDBRANCH   2  20
TORSDOF 6
ENDMDL
MODEL 7
REMARK VINA RESULT:    -6.246      7.410     10.424
REMARK INTER + INTRA:          -9.581
REMARK INTER:                  -8.632
REMARK INTRA:                  -0.950
REMARK UNBOUND:                -1.145
REMARK  Name = 
REMARK  7 active torsions:
REMARK  status: ('A' for Active; 'I' for Inactive)
REMARK    1  A    between atoms: C_1  and  C_2
REMARK    2  A    between atoms: C_2  and  N_3
REMARK    3  A    between atoms: C_2  and  C_16
REMARK    4  A    between atoms: C_4  and  C_6
REMARK    5  A    between atoms: C_19  and  C_20
REMARK    6  A    between atoms: C_20  and  N_21
REMARK    7  A    between atoms: C_22  and  C_24
REMARK                            x       y       z     vdW  Elec       q    Type
REMARK                         _______ _______ _______ _____ _____    ______ ____
ROOT
ATOM      1  C   UNL     1      46.753   3.447  13.236  0.00  0.00    +0.000 C 
ATOM      2  C   UNL     1      46.266   4.565  14.167  0.00  0.00    +0.000 C 
ENDROOT
BRANCH   2   3
ATOM      3  C   UNL     1      45.854   5.790  13.355  0.00  0.00    +0.000 A 
ATOM      4  C   UNL     1      46.734   6.868  13.182  0.00  0.00    +0.000 A 
ATOM      5  C   UNL     1      46.357   7.988  12.427  0.00  0.00    +0.000 A 
ATOM      6  C   UNL     1      45.090   8.061  11.833  0.00  0.00    +0.000 A 
ATOM      7  C   UNL     1      44.213   6.982  11.995  0.00  0.00    +0.000 A 
ATOM      8  C   UNL     1      44.589   5.864  12.748  0.00  0.00    +0.000 A 
BRANCH   6   9
ATOM      9  C   UNL     1      44.683   9.262  11.016  0.00  0.00    +0.000 C 
BRANCH   9  10
ATOM     10  N   UNL     1      43.268   9.535  11.136  0.00  0.00    +0.000 N 
ATOM     11  C   UNL     1      42.827  10.778  11.541  0.00  0.00    +0.000 C 
ATOM     12  O   UNL     1      43.580  11.698  11.834  0.00  0.00    +0.000 OA
ATOM     13  H   UNL     1      42.628   8.894  10.685  0.00  0.00    +0.000 HD
BRANCH  11  14
ATOM     14  C   UNL     1      41.359  10.975  11.589  0.00  0.00    +0.000 A 
ATOM     15  C   UNL     1      40.715  11.625  12.644  0.00  0.00    +0.000 A 
ATOM     16  C   UNL     1      39.329  11.781  12.608  0.00  0.00    +0.000 A 
ATOM     17  C   UNL     1      38.636  11.280  11.517  0.00  0.00    +0.000 A 
ATOM     18  N   UNL     1      39.229  10.658  10.475  0.00  0.00    +0.000 NA
ATOM     19  C   UNL     1      40.580  10.529  10.527  0.00  0.00    +0.000 A 
ENDBRANCH  11  14
ENDBRANCH   9  10
ENDBRANCH   6   9
ENDBRANCH   2   3
BRANCH   2  20
ATOM     20  N   UNL     1      47.271   4.951  15.150  0.00  0.00    +0.000 N 
ATOM     21  C   UNL     1      47.359   4.385  16.397  0.00  0.00    +0.000 C 
ATOM     22  O   UNL     1      46.632   3.464  16.762  0.00  0.00    +0.000 OA
ATOM     23  H   UNL     1      47.681   5.872  15.023  0.00  0.00    +0.000 HD
BRANCH  21  24
ATOM     24  C   UNL     1      48.422   4.893  17.274  0.00  0.00    +0.000 A 
ATOM     25  C   UNL     1      49.752   4.742  16.901  0.00  0.00    +0.000 A 
ATOM     26  S   UNL     1      50.856   5.382  18.031  0.00  0.00    +0.000 S 
ATOM     27  C   UNL     1      49.599   5.844  19.079  0.00  0.00    +0.000 A 
ATOM     28  N   UNL     1      49.866   6.421  20.281  0.00  0.00    +0.000 NA
ATOM     29  C   UNL     1      48.821   6.688  20.989  0.00  0.00    +0.000 A 
ATOM     30  N   UNL     1      47.530   6.444  20.598  0.00  0.00    +0.000 N 
ATOM     31  C   UNL     1      47.211   5.907  19.373  0.00  0.00    +0.000 A 
ATOM     32  O   UNL     1      46.044   5.777  19.018  0.00  0.00    +0.000 OA
ATOM     33  C   UNL     1      48.352   5.550  18.557  0.00  0.00    +0.000 A 
ATOM     34  H   UNL     1      46.753   6.697  21.189  0.00  0.00    +0.000 HD
ENDBRANCH  21  24
ENDBRANCH   2  20
TORSDOF 6
ENDMDL
MODEL 8
REMARK VINA RESULT:    -5.953      3.637      6.460
REMARK INTER + INTRA:          -9.186
REMARK INTER:                  -8.063
REMARK INTRA:                  -1.123
REMARK UNBOUND:                -1.145
REMARK  Name = 
REMARK  7 active torsions:
REMARK  status: ('A' for Active; 'I' for Inactive)
REMARK    1  A    between atoms: C_1  and  C_2
REMARK    2  A    between atoms: C_2  and  N_3
REMARK    3  A    between atoms: C_2  and  C_16
REMARK    4  A    between atoms: C_4  and  C_6
REMARK    5  A    between atoms: C_19  and  C_20
REMARK    6  A    between atoms: C_20  and  N_21
REMARK    7  A    between atoms: C_22  and  C_24
REMARK                            x       y       z     vdW  Elec       q    Type
REMARK                         _______ _______ _______ _____ _____    ______ ____
ROOT
ATOM      1  C   UNL     1      48.262   3.537  16.456  0.00  0.00    +0.000 C 
ATOM      2  C   UNL     1      47.722   4.891  15.979  0.00  0.00    +0.000 C 
ENDROOT
BRANCH   2   3
ATOM      3  C   UNL     1      46.963   4.727  14.665  0.00  0.00    +0.000 A 
ATOM      4  C   UNL     1      46.808   3.464  14.076  0.00  0.00    +0.000 A 
ATOM      5  C   UNL     1      46.102   3.314  12.875  0.00  0.00    +0.000 A 
ATOM      6  C   UNL     1      45.540   4.423  12.228  0.00  0.00    +0.000 A 
ATOM      7  C   UNL     1      45.684   5.684  12.818  0.00  0.00    +0.000 A 
ATOM      8  C   UNL     1      46.388   5.834  14.018  0.00  0.00    +0.000 A 
BRANCH   6   9
ATOM      9  C   UNL     1      44.776   4.264  10.937  0.00  0.00    +0.000 C 
BRANCH   9  10
ATOM     10  N   UNL     1      45.500   3.450   9.984  0.00  0.00    +0.000 N 
ATOM     11  C   UNL     1      45.229   3.545   8.635  0.00  0.00    +0.000 C 
ATOM     12  O   UNL     1      44.374   4.288   8.169  0.00  0.00    +0.000 OA
ATOM     13  H   UNL     1      46.356   3.012  10.299  0.00  0.00    +0.000 HD
BRANCH  11  14
ATOM     14  C   UNL     1      46.053   2.704   7.736  0.00  0.00    +0.000 A 
ATOM     15  C   UNL     1      46.425   1.395   8.049  0.00  0.00    +0.000 A 
ATOM     16  C   UNL     1      47.192   0.665   7.142  0.00  0.00    +0.000 A 
ATOM     17  C   UNL     1      47.562   1.270   5.951  0.00  0.00    +0.000 A 
ATOM     18  N   UNL     1      47.209   2.529   5.611  0.00  0.00    +0.000 NA
ATOM     19  C   UNL     1      46.451   3.216   6.506  0.00  0.00    +0.000 A 
ENDBRANCH  11  14
ENDBRANCH   9  10
ENDBRANCH   6   9
ENDBRANCH   2   3
BRANCH   2  20
ATOM     20  N   UNL     1      48.775   5.884  15.810  0.00  0.00    +0.000 N 
ATOM     21  C   UNL     1      48.979   6.921  16.687  0.00  0.00    +0.000 C 
ATOM     22  O   UNL     1      48.325   7.057  17.718  0.00  0.00    +0.000 OA
ATOM     23  H   UNL     1      49.130   5.993  14.865  0.00  0.00    +0.000 HD
BRANCH  21  24
ATOM     24  C   UNL     1      50.077   7.842  16.368  0.00  0.00    +0.000 A 
ATOM     25  C   UNL     1      49.798   9.176  16.099  0.00  0.00    +0.000 A 
ATOM     26  S   UNL     1      51.182  10.106  15.743  0.00  0.00    +0.000 S 
ATOM     27  C   UNL     1      52.198   8.751  15.894  0.00  0.00    +0.000 A 
ATOM     28  N   UNL     1      53.535   8.849  15.666  0.00  0.00    +0.000 NA
ATOM     29  C   UNL     1      54.179   7.737  15.781  0.00  0.00    +0.000 A 
ATOM     30  N   UNL     1      53.611   6.537  16.120  0.00  0.00    +0.000 N 
ATOM     31  C   UNL     1      52.273   6.400  16.406  0.00  0.00    +0.000 A 
ATOM     32  O   UNL     1      51.807   5.330  16.786  0.00  0.00    +0.000 OA
ATOM     33  C   UNL     1      51.497   7.612  16.250  0.00  0.00    +0.000 A 
ATOM     34  H   UNL     1      54.174   5.705  16.217  0.00  0.00    +0.000 HD
ENDBRANCH  21  24
ENDBRANCH   2  20
TORSDOF 6
ENDMDL
MODEL 9
REMARK VINA RESULT:    -5.936      4.824      8.585
REMARK INTER + INTRA:          -9.163
REMARK INTER:                  -7.902
REMARK INTRA:                  -1.261
REMARK UNBOUND:                -1.145
REMARK  Name = 
REMARK  7 active torsions:
REMARK  status: ('A' for Active; 'I' for Inactive)
REMARK    1  A    between atoms: C_1  and  C_2
REMARK    2  A    between atoms: C_2  and  N_3
REMARK    3  A    between atoms: C_2  and  C_16
REMARK    4  A    between atoms: C_4  and  C_6
REMARK    5  A    between atoms: C_19  and  C_20
REMARK    6  A    between atoms: C_20  and  N_21
REMARK    7  A    between atoms: C_22  and  C_24
REMARK                            x       y       z     vdW  Elec       q    Type
REMARK                         _______ _______ _______ _____ _____    ______ ____
ROOT
ATOM      1  C   UNL     1      51.654   9.511  14.306  0.00  0.00    +0.000 C 
ATOM      2  C   UNL     1      51.095   8.087  14.429  0.00  0.00    +0.000 C 
ENDROOT
BRANCH   2   3
ATOM      3  C   UNL     1      49.746   7.983  13.722  0.00  0.00    +0.000 A 
ATOM      4  C   UNL     1      48.561   7.821  14.453  0.00  0.00    +0.000 A 
ATOM      5  C   UNL     1      47.322   7.737  13.802  0.00  0.00    +0.000 A 
ATOM      6  C   UNL     1      47.239   7.805  12.405  0.00  0.00    +0.000 A 
ATOM      7  C   UNL     1      48.419   7.978  11.672  0.00  0.00    +0.000 A 
ATOM      8  C   UNL     1      49.655   8.063  12.322  0.00  0.00    +0.000 A 
BRANCH   6   9
ATOM      9  C   UNL     1      45.907   7.719  11.702  0.00  0.00    +0.000 C 
BRANCH   9  10
ATOM     10  N   UNL     1      45.807   6.526  10.890  0.00  0.00    +0.000 N 
ATOM     11  C   UNL     1      44.809   5.603  11.123  0.00  0.00    +0.000 C 
ATOM     12  O   UNL     1      43.978   5.718  12.015  0.00  0.00    +0.000 OA
ATOM     13  H   UNL     1      46.314   6.512  10.015  0.00  0.00    +0.000 HD
BRANCH  11  14
ATOM     14  C   UNL     1      44.762   4.436  10.210  0.00  0.00    +0.000 A 
ATOM     15  C   UNL     1      45.343   4.442   8.940  0.00  0.00    +0.000 A 
ATOM     16  C   UNL     1      45.267   3.298   8.146  0.00  0.00    +0.000 A 
ATOM     17  C   UNL     1      44.611   2.186   8.651  0.00  0.00    +0.000 A 
ATOM     18  N   UNL     1      44.049   2.142   9.879  0.00  0.00    +0.000 NA
ATOM     19  C   UNL     1      44.148   3.265  10.638  0.00  0.00    +0.000 A 
ENDBRANCH  11  14
ENDBRANCH   9  10
ENDBRANCH   6   9
ENDBRANCH   2   3
BRANCH   2  20
ATOM     20  N   UNL     1      50.949   7.662  15.815  0.00  0.00    +0.000 N 
ATOM     21  C   UNL     1      51.875   6.885  16.465  0.00  0.00    +0.000 C 
ATOM     22  O   UNL     1      52.932   6.536  15.945  0.00  0.00    +0.000 OA
ATOM     23  H   UNL     1      50.001   7.664  16.179  0.00  0.00    +0.000 HD
BRANCH  21  24
ATOM     24  C   UNL     1      51.574   6.534  17.859  0.00  0.00    +0.000 A 
ATOM     25  C   UNL     1      52.422   6.960  18.874  0.00  0.00    +0.000 A 
ATOM     26  S   UNL     1      51.931   6.463  20.429  0.00  0.00    +0.000 S 
ATOM     27  C   UNL     1      50.593   5.625  19.798  0.00  0.00    +0.000 A 
ATOM     28  N   UNL     1      49.760   4.922  20.611  0.00  0.00    +0.000 NA
ATOM     29  C   UNL     1      48.808   4.306  19.995  0.00  0.00    +0.000 A 
ATOM     30  N   UNL     1      48.602   4.342  18.641  0.00  0.00    +0.000 N 
ATOM     31  C   UNL     1      49.389   5.078  17.787  0.00  0.00    +0.000 A 
ATOM     32  O   UNL     1      49.130   5.157  16.590  0.00  0.00    +0.000 OA
ATOM     33  C   UNL     1      50.498   5.755  18.424  0.00  0.00    +0.000 A 
ATOM     34  H   UNL     1      47.823   3.856  18.222  0.00  0.00    +0.000 HD
ENDBRANCH  21  24
ENDBRANCH   2  20
TORSDOF 6
ENDMDL
