MODEL 1
REMARK VINA RESULT:    -8.185      0.000      0.000
REMARK INTER + INTRA:         -13.484
REMARK INTER:                 -12.491
REMARK INTRA:                  -0.993
REMARK UNBOUND:                -0.993
REMARK  Name = 
REMARK  10 active torsions:
REMARK  status: ('A' for Active; 'I' for Inactive)
REMARK    1  A    between atoms: C_1  and  O_2
REMARK    2  A    between atoms: O_2  and  C_3
REMARK    3  A    between atoms: C_3  and  C_4
REMARK    4  A    between atoms: C_3  and  C_13
REMARK    5  A    between atoms: C_4  and  N_5
REMARK    6  A    between atoms: N_5  and  C_6
REMARK    7  A    between atoms: C_6  and  C_7
REMARK    8  A    between atoms: C_16  and  C_17
REMARK    9  A    between atoms: C_17  and  N_18
REMARK   10  A    between atoms: C_19  and  C_21
REMARK                            x       y       z     vdW  Elec       q    Type
REMARK                         _______ _______ _______ _____ _____    ______ ____
ROOT
ATOM      1  C   UNL     1      45.222   4.763  12.060  0.00  0.00    +0.000 A 
ATOM      2  C   UNL     1      45.732   4.357  13.305  0.00  0.00    +0.000 A 
ATOM      3  C   UNL     1      46.803   5.025  13.907  0.00  0.00    +0.000 A 
ATOM      4  C   UNL     1      47.387   6.135  13.291  0.00  0.00    +0.000 A 
ATOM      5  C   UNL     1      46.928   6.517  12.029  0.00  0.00    +0.000 A 
ATOM      6  C   UNL     1      45.869   5.834  11.421  0.00  0.00    +0.000 A 
ENDROOT
BRANCH   1   7
ATOM      7  C   UNL     1      44.023   4.046  11.419  0.00  0.00    +0.000 C 
BRANCH   7   9
ATOM      8  C   UNL     1      42.298   5.717  11.764  0.00  0.00    +0.000 C 
ATOM      9  O   UNL     1      42.839   4.462  12.129  0.00  0.00    +0.000 OA
ENDBRANCH   7   9
BRANCH   7  10
ATOM     10  C   UNL     1      43.894   4.323   9.884  0.00  0.00    +0.000 C 
BRANCH  10  11
ATOM     11  N   UNL     1      43.965   3.106   9.078  0.00  0.00    +0.000 NA
ATOM     12  H   UNL     1      43.969   3.320   8.080  0.00  0.00    +0.000 HD
BRANCH  11  13
ATOM     13  C   UNL     1      45.110   2.253   9.368  0.00  0.00    +0.000 C 
BRANCH  13  14
ATOM     14  C   UNL     1      45.947   2.088   8.113  0.00  0.00    +0.000 A 
ATOM     15  C   UNL     1      46.109   3.155   7.231  0.00  0.00    +0.000 A 
ATOM     16  C   UNL     1      46.925   2.990   6.116  0.00  0.00    +0.000 A 
ATOM     17  C   UNL     1      47.577   1.778   5.924  0.00  0.00    +0.000 A 
ATOM     18  C   UNL     1      47.392   0.780   6.866  0.00  0.00    +0.000 A 
ATOM     19  N   UNL     1      46.597   0.904   7.951  0.00  0.00    +0.000 NA
ENDBRANCH  13  14
ENDBRANCH  11  13
ENDBRANCH  10  11
ENDBRANCH   7  10
ENDBRANCH   1   7
BRANCH   4  20
ATOM     20  C   UNL     1      48.501   6.890  13.961  0.00  0.00    +0.000 C 
BRANCH  20  21
ATOM     21  N   UNL     1      48.254   7.046  15.370  0.00  0.00    +0.000 N 
ATOM     22  C   UNL     1      49.193   6.675  16.297  0.00  0.00    +0.000 C 
ATOM     23  O   UNL     1      50.298   6.247  15.975  0.00  0.00    +0.000 OA
ATOM     24  H   UNL     1      47.289   7.180  15.656  0.00  0.00    +0.000 HD
BRANCH  22  25
ATOM     25  C   UNL     1      48.832   6.877  17.705  0.00  0.00    +0.000 A 
ATOM     26  C   UNL     1      48.570   8.156  18.174  0.00  0.00    +0.000 A 
ATOM     27  S   UNL     1      48.139   8.202  19.826  0.00  0.00    +0.000 S 
ATOM     28  C   UNL     1      48.326   6.520  19.977  0.00  0.00    +0.000 A 
ATOM     29  N   UNL     1      48.130   5.895  21.171  0.00  0.00    +0.000 NA
ATOM     30  C   UNL     1      48.334   4.625  21.149  0.00  0.00    +0.000 A 
ATOM     31  N   UNL     1      48.713   3.911  20.034  0.00  0.00    +0.000 N 
ATOM     32  C   UNL     1      48.896   4.490  18.802  0.00  0.00    +0.000 A 
ATOM     33  O   UNL     1      49.181   3.816  17.822  0.00  0.00    +0.000 OA
ATOM     34  C   UNL     1      48.692   5.925  18.780  0.00  0.00    +0.000 A 
ATOM     35  H   UNL     1      48.841   2.911  20.082  0.00  0.00    +0.000 HD
ENDBRANCH  22  25
ENDBRANCH  20  21
ENDBRANCH   4  20
TORSDOF 9
ENDMDL
MODEL 2
REMARK VINA RESULT:    -8.046      2.559      3.120
REMARK INTER + INTRA:         -13.272
REMARK INTER:                 -12.129
REMARK INTRA:                  -1.143
REMARK UNBOUND:                -0.993
REMARK  Name = 
REMARK  10 active torsions:
REMARK  status: ('A' for Active; 'I' for Inactive)
REMARK    1  A    between atoms: C_1  and  O_2
REMARK    2  A    between atoms: O_2  and  C_3
REMARK    3  A    between atoms: C_3  and  C_4
REMARK    4  A    between atoms: C_3  and  C_13
REMARK    5  A    between atoms: C_4  and  N_5
REMARK    6  A    between atoms: N_5  and  C_6
REMARK    7  A    between atoms: C_6  and  C_7
REMARK    8  A    between atoms: C_16  and  C_17
REMARK    9  A    between atoms: C_17  and  N_18
REMARK   10  A    between atoms: C_19  and  C_21
REMARK                            x       y       z     vdW  Elec       q    Type
REMARK                         _______ _______ _______ _____ _____    ______ ____
ROOT
ATOM      1  C   UNL     1      46.332   5.053  12.920  0.00  0.00    +0.000 A 
ATOM      2  C   UNL     1      46.613   4.534  14.196  0.00  0.00    +0.000 A 
ATOM      3  C   UNL     1      47.507   5.171  15.061  0.00  0.00    +0.000 A 
ATOM      4  C   UNL     1      48.137   6.361  14.686  0.00  0.00    +0.000 A 
ATOM      5  C   UNL     1      47.911   6.860  13.401  0.00  0.00    +0.000 A 
ATOM      6  C   UNL     1      47.029   6.210  12.531  0.00  0.00    +0.000 A 
ENDROOT
BRANCH   1   7
ATOM      7  C   UNL     1      45.321   4.368  11.987  0.00  0.00    +0.000 C 
BRANCH   7   9
ATOM      8  C   UNL     1      43.485   2.796  12.200  0.00  0.00    +0.000 C 
ATOM      9  O   UNL     1      44.297   3.779  12.814  0.00  0.00    +0.000 OA
ENDBRANCH   7   9
BRANCH   7  10
ATOM     10  C   UNL     1      44.708   5.344  10.929  0.00  0.00    +0.000 C 
BRANCH  10  11
ATOM     11  N   UNL     1      45.213   5.110   9.577  0.00  0.00    +0.000 NA
ATOM     12  H   UNL     1      46.205   4.873   9.586  0.00  0.00    +0.000 HD
BRANCH  11  13
ATOM     13  C   UNL     1      44.502   4.077   8.836  0.00  0.00    +0.000 C 
BRANCH  13  14
ATOM     14  C   UNL     1      45.504   3.159   8.163  0.00  0.00    +0.000 A 
ATOM     15  C   UNL     1      46.405   3.667   7.227  0.00  0.00    +0.000 A 
ATOM     16  C   UNL     1      47.347   2.812   6.665  0.00  0.00    +0.000 A 
ATOM     17  C   UNL     1      47.384   1.482   7.068  0.00  0.00    +0.000 A 
ATOM     18  C   UNL     1      46.479   1.065   8.029  0.00  0.00    +0.000 A 
ATOM     19  N   UNL     1      45.544   1.866   8.585  0.00  0.00    +0.000 NA
ENDBRANCH  13  14
ENDBRANCH  11  13
ENDBRANCH  10  11
ENDBRANCH   7  10
ENDBRANCH   1   7
BRANCH   4  20
ATOM     20  C   UNL     1      49.057   7.078  15.635  0.00  0.00    +0.000 C 
BRANCH  20  21
ATOM     21  N   UNL     1      50.077   6.197  16.140  0.00  0.00    +0.000 N 
ATOM     22  C   UNL     1      50.063   5.774  17.444  0.00  0.00    +0.000 C 
ATOM     23  O   UNL     1      49.162   6.078  18.220  0.00  0.00    +0.000 OA
ATOM     24  H   UNL     1      50.931   6.120  15.594  0.00  0.00    +0.000 HD
BRANCH  22  25
ATOM     25  C   UNL     1      51.154   4.881  17.850  0.00  0.00    +0.000 A 
ATOM     26  C   UNL     1      52.282   5.405  18.466  0.00  0.00    +0.000 A 
ATOM     27  S   UNL     1      53.436   4.222  18.895  0.00  0.00    +0.000 S 
ATOM     28  C   UNL     1      52.484   2.977  18.238  0.00  0.00    +0.000 A 
ATOM     29  N   UNL     1      52.912   1.684  18.251  0.00  0.00    +0.000 NA
ATOM     30  C   UNL     1      52.105   0.850  17.695  0.00  0.00    +0.000 A 
ATOM     31  N   UNL     1      50.897   1.187  17.126  0.00  0.00    +0.000 N 
ATOM     32  C   UNL     1      50.410   2.472  17.112  0.00  0.00    +0.000 A 
ATOM     33  O   UNL     1      49.308   2.725  16.646  0.00  0.00    +0.000 OA
ATOM     34  C   UNL     1      51.291   3.452  17.715  0.00  0.00    +0.000 A 
ATOM     35  H   UNL     1      50.304   0.480  16.720  0.00  0.00    +0.000 HD
ENDBRANCH  22  25
ENDBRANCH  20  21
ENDBRANCH   4  20
TORSDOF 9
ENDMDL
MODEL 3
REMARK VINA RESULT:    -7.454      1.961      3.012
REMARK INTER + INTRA:         -12.369
REMARK INTER:                 -11.110
REMARK INTRA:                  -1.259
REMARK UNBOUND:                -0.993
REMARK  Name = 
REMARK  10 active torsions:
REMARK  status: ('A' for Active; 'I' for Inactive)
REMARK    1  A    between atoms: C_1  and  O_2
REMARK    2  A    between atoms: O_2  and  C_3
REMARK    3  A    between atoms: C_3  and  C_4
REMARK    4  A    between atoms: C_3  and  C_13
REMARK    5  A    between atoms: C_4  and  N_5
REMARK    6  A    between atoms: N_5  and  C_6
REMARK    7  A    between atoms: C_6  and  C_7
REMARK    8  A    between atoms: C_16  and  C_17
REMARK    9  A    between atoms: C_17  and  N_18
REMARK   10  A    between atoms: C_19  and  C_21
REMARK                            x       y       z     vdW  Elec       q    Type
REMARK                         _______ _______ _______ _____ _____    ______ ____
ROOT
ATOM      1  C   UNL     1      45.965   5.056  12.522  0.00  0.00    +0.000 A 
ATOM      2  C   UNL     1      46.128   3.829  13.189  0.00  0.00    +0.000 A 
ATOM      3  C   UNL     1      46.857   3.739  14.379  0.00  0.00    +0.000 A 
ATOM      4  C   UNL     1      47.432   4.876  14.952  0.00  0.00    +0.000 A 
ATOM      5  C   UNL     1      47.325   6.092  14.273  0.00  0.00    +0.000 A 
ATOM      6  C   UNL     1      46.610   6.176  13.073  0.00  0.00    +0.000 A 
ENDROOT
BRANCH   1   7
ATOM      7  C   UNL     1      45.133   5.156  11.234  0.00  0.00    +0.000 C 
BRANCH   7   9
ATOM      8  C   UNL     1      42.748   5.048  11.667  0.00  0.00    +0.000 C 
ATOM      9  O   UNL     1      43.910   5.847  11.559  0.00  0.00    +0.000 OA
ENDBRANCH   7   9
BRANCH   7  10
ATOM     10  C   UNL     1      45.897   5.866  10.067  0.00  0.00    +0.000 C 
BRANCH  10  11
ATOM     11  N   UNL     1      45.588   5.300   8.755  0.00  0.00    +0.000 NA
ATOM     12  H   UNL     1      46.413   5.282   8.154  0.00  0.00    +0.000 HD
BRANCH  11  13
ATOM     13  C   UNL     1      45.021   3.959   8.794  0.00  0.00    +0.000 C 
BRANCH  13  14
ATOM     14  C   UNL     1      45.885   3.021   7.972  0.00  0.00    +0.000 A 
ATOM     15  C   UNL     1      46.640   3.513   6.908  0.00  0.00    +0.000 A 
ATOM     16  C   UNL     1      47.464   2.639   6.205  0.00  0.00    +0.000 A 
ATOM     17  C   UNL     1      47.535   1.308   6.598  0.00  0.00    +0.000 A 
ATOM     18  C   UNL     1      46.782   0.907   7.689  0.00  0.00    +0.000 A 
ATOM     19  N   UNL     1      45.962   1.727   8.383  0.00  0.00    +0.000 NA
ENDBRANCH  13  14
ENDBRANCH  11  13
ENDBRANCH  10  11
ENDBRANCH   7  10
ENDBRANCH   1   7
BRANCH   4  20
ATOM     20  C   UNL     1      48.169   4.792  16.259  0.00  0.00    +0.000 C 
BRANCH  20  21
ATOM     21  N   UNL     1      47.818   5.883  17.128  0.00  0.00    +0.000 N 
ATOM     22  C   UNL     1      48.622   6.233  18.183  0.00  0.00    +0.000 C 
ATOM     23  O   UNL     1      49.692   5.674  18.403  0.00  0.00    +0.000 OA
ATOM     24  H   UNL     1      46.854   6.201  17.103  0.00  0.00    +0.000 HD
BRANCH  22  25
ATOM     25  C   UNL     1      48.164   7.359  19.004  0.00  0.00    +0.000 A 
ATOM     26  C   UNL     1      47.874   7.161  20.347  0.00  0.00    +0.000 A 
ATOM     27  S   UNL     1      47.383   8.583  21.155  0.00  0.00    +0.000 S 
ATOM     28  C   UNL     1      47.504   9.501  19.729  0.00  0.00    +0.000 A 
ATOM     29  N   UNL     1      47.191  10.826  19.717  0.00  0.00    +0.000 NA
ATOM     30  C   UNL     1      47.301  11.389  18.566  0.00  0.00    +0.000 A 
ATOM     31  N   UNL     1      47.702  10.750  17.415  0.00  0.00    +0.000 N 
ATOM     32  C   UNL     1      48.055   9.422  17.381  0.00  0.00    +0.000 A 
ATOM     33  O   UNL     1      48.458   8.900  16.350  0.00  0.00    +0.000 OA
ATOM     34  C   UNL     1      47.934   8.739  18.653  0.00  0.00    +0.000 A 
ATOM     35  H   UNL     1      47.782  11.255  16.545  0.00  0.00    +0.000 HD
ENDBRANCH  22  25
ENDBRANCH  20  21
ENDBRANCH   4  20
TORSDOF 9
ENDMDL
MODEL 4
REMARK VINA RESULT:    -7.209      3.856     10.207
REMARK INTER + INTRA:         -11.994
REMARK INTER:                 -10.096
REMARK INTRA:                  -1.898
REMARK UNBOUND:                -0.993
REMARK  Name = 
REMARK  10 active torsions:
REMARK  status: ('A' for Active; 'I' for Inactive)
REMARK    1  A    between atoms: C_1  and  O_2
REMARK    2  A    between atoms: O_2  and  C_3
REMARK    3  A    between atoms: C_3  and  C_4
REMARK    4  A    between atoms: C_3  and  C_13
REMARK    5  A    between atoms: C_4  and  N_5
REMARK    6  A    between atoms: N_5  and  C_6
REMARK    7  A    between atoms: C_6  and  C_7
REMARK    8  A    between atoms: C_16  and  C_17
REMARK    9  A    between atoms: C_17  and  N_18
REMARK   10  A    between atoms: C_19  and  C_21
REMARK                            x       y       z     vdW  Elec       q    Type
REMARK                         _______ _______ _______ _____ _____    ______ ____
ROOT
ATOM      1  C   UNL     1      51.426   4.532  17.791  0.00  0.00    +0.000 A 
ATOM      2  C   UNL     1      51.009   3.192  17.713  0.00  0.00    +0.000 A 
ATOM      3  C   UNL     1      49.693   2.856  17.382  0.00  0.00    +0.000 A 
ATOM      4  C   UNL     1      48.754   3.850  17.098  0.00  0.00    +0.000 A 
ATOM      5  C   UNL     1      49.137   5.188  17.225  0.00  0.00    +0.000 A 
ATOM      6  C   UNL     1      50.450   5.520  17.575  0.00  0.00    +0.000 A 
ENDROOT
BRANCH   1   7
ATOM      7  C   UNL     1      52.883   4.894  18.121  0.00  0.00    +0.000 C 
BRANCH   7   9
ATOM      8  C   UNL     1      53.867   6.113  16.268  0.00  0.00    +0.000 C 
ATOM      9  O   UNL     1      53.167   6.162  17.497  0.00  0.00    +0.000 OA
ENDBRANCH   7   9
BRANCH   7  10
ATOM     10  C   UNL     1      53.168   4.940  19.659  0.00  0.00    +0.000 C 
BRANCH  10  11
ATOM     11  N   UNL     1      52.191   4.184  20.442  0.00  0.00    +0.000 NA
ATOM     12  H   UNL     1      52.590   3.312  20.793  0.00  0.00    +0.000 HD
BRANCH  11  13
ATOM     13  C   UNL     1      51.624   4.914  21.568  0.00  0.00    +0.000 C 
BRANCH  13  14
ATOM     14  C   UNL     1      50.304   5.537  21.152  0.00  0.00    +0.000 A 
ATOM     15  C   UNL     1      49.158   4.749  21.046  0.00  0.00    +0.000 A 
ATOM     16  C   UNL     1      47.951   5.356  20.714  0.00  0.00    +0.000 A 
ATOM     17  C   UNL     1      47.913   6.733  20.523  0.00  0.00    +0.000 A 
ATOM     18  C   UNL     1      49.088   7.448  20.683  0.00  0.00    +0.000 A 
ATOM     19  N   UNL     1      50.278   6.887  20.991  0.00  0.00    +0.000 NA
ENDBRANCH  13  14
ENDBRANCH  11  13
ENDBRANCH  10  11
ENDBRANCH   7  10
ENDBRANCH   1   7
BRANCH   4  20
ATOM     20  C   UNL     1      47.353   3.492  16.688  0.00  0.00    +0.000 C 
BRANCH  20  21
ATOM     21  N   UNL     1      46.819   4.450  15.756  0.00  0.00    +0.000 N 
ATOM     22  C   UNL     1      46.841   4.211  14.406  0.00  0.00    +0.000 C 
ATOM     23  O   UNL     1      47.262   3.158  13.935  0.00  0.00    +0.000 OA
ATOM     24  H   UNL     1      46.679   5.397  16.098  0.00  0.00    +0.000 HD
BRANCH  22  25
ATOM     25  C   UNL     1      46.273   5.259  13.551  0.00  0.00    +0.000 A 
ATOM     26  C   UNL     1      46.968   6.443  13.356  0.00  0.00    +0.000 A 
ATOM     27  S   UNL     1      46.175   7.536  12.312  0.00  0.00    +0.000 S 
ATOM     28  C   UNL     1      44.859   6.478  12.115  0.00  0.00    +0.000 A 
ATOM     29  N   UNL     1      43.790   6.821  11.345  0.00  0.00    +0.000 NA
ATOM     30  C   UNL     1      42.855   5.939  11.307  0.00  0.00    +0.000 A 
ATOM     31  N   UNL     1      42.888   4.732  11.969  0.00  0.00    +0.000 N 
ATOM     32  C   UNL     1      43.955   4.328  12.735  0.00  0.00    +0.000 A 
ATOM     33  O   UNL     1      43.972   3.226  13.265  0.00  0.00    +0.000 OA
ATOM     34  C   UNL     1      45.030   5.296  12.820  0.00  0.00    +0.000 A 
ATOM     35  H   UNL     1      42.126   4.076  11.884  0.00  0.00    +0.000 HD
ENDBRANCH  22  25
ENDBRANCH  20  21
ENDBRANCH   4  20
TORSDOF 9
ENDMDL
MODEL 5
REMARK VINA RESULT:    -7.188      3.022      9.255
REMARK INTER + INTRA:         -11.962
REMARK INTER:                 -10.051
REMARK INTRA:                  -1.911
REMARK UNBOUND:                -0.993
REMARK  Name = 
REMARK  10 active torsions:
REMARK  status: ('A' for Active; 'I' for Inactive)
REMARK    1  A    between atoms: C_1  and  O_2
REMARK    2  A    between atoms: O_2  and  C_3
REMARK    3  A    between atoms: C_3  and  C_4
REMARK    4  A    between atoms: C_3  and  C_13
REMARK    5  A    between atoms: C_4  and  N_5
REMARK    6  A    between atoms: N_5  and  C_6
REMARK    7  A    between atoms: C_6  and  C_7
REMARK    8  A    between atoms: C_16  and  C_17
REMARK    9  A    between atoms: C_17  and  N_18
REMARK   10  A    between atoms: C_19  and  C_21
REMARK                            x       y       z     vdW  Elec       q    Type
REMARK                         _______ _______ _______ _____ _____    ______ ____
ROOT
ATOM      1  C   UNL     1      48.901   8.095  16.520  0.00  0.00    +0.000 A 
ATOM      2  C   UNL     1      49.069   6.878  15.836  0.00  0.00    +0.000 A 
ATOM      3  C   UNL     1      48.717   6.745  14.490  0.00  0.00    +0.000 A 
ATOM      4  C   UNL     1      48.202   7.830  13.777  0.00  0.00    +0.000 A 
ATOM      5  C   UNL     1      47.978   9.030  14.456  0.00  0.00    +0.000 A 
ATOM      6  C   UNL     1      48.314   9.155  15.808  0.00  0.00    +0.000 A 
ENDROOT
BRANCH   1   7
ATOM      7  C   UNL     1      49.323   8.246  17.991  0.00  0.00    +0.000 C 
BRANCH   7   9
ATOM      8  C   UNL     1      51.558   9.192  17.992  0.00  0.00    +0.000 C 
ATOM      9  O   UNL     1      50.163   9.414  18.083  0.00  0.00    +0.000 OA
ENDBRANCH   7   9
BRANCH   7  10
ATOM     10  C   UNL     1      48.105   8.341  18.969  0.00  0.00    +0.000 C 
BRANCH  10  11
ATOM     11  N   UNL     1      47.209   7.189  18.877  0.00  0.00    +0.000 NA
ATOM     12  H   UNL     1      47.031   6.933  17.905  0.00  0.00    +0.000 HD
BRANCH  11  13
ATOM     13  C   UNL     1      47.674   6.004  19.586  0.00  0.00    +0.000 C 
BRANCH  13  14
ATOM     14  C   UNL     1      47.954   4.896  18.588  0.00  0.00    +0.000 A 
ATOM     15  C   UNL     1      49.180   4.233  18.600  0.00  0.00    +0.000 A 
ATOM     16  C   UNL     1      49.390   3.186  17.707  0.00  0.00    +0.000 A 
ATOM     17  C   UNL     1      48.364   2.811  16.848  0.00  0.00    +0.000 A 
ATOM     18  C   UNL     1      47.163   3.496  16.924  0.00  0.00    +0.000 A 
ATOM     19  N   UNL     1      46.933   4.525  17.769  0.00  0.00    +0.000 NA
ENDBRANCH  13  14
ENDBRANCH  11  13
ENDBRANCH  10  11
ENDBRANCH   7  10
ENDBRANCH   1   7
BRANCH   4  20
ATOM     20  C   UNL     1      47.874   7.705  12.315  0.00  0.00    +0.000 C 
BRANCH  20  21
ATOM     21  N   UNL     1      47.108   6.517  12.050  0.00  0.00    +0.000 N 
ATOM     22  C   UNL     1      45.738   6.530  12.116  0.00  0.00    +0.000 C 
ATOM     23  O   UNL     1      45.104   7.555  12.347  0.00  0.00    +0.000 OA
ATOM     24  H   UNL     1      47.605   5.631  12.081  0.00  0.00    +0.000 HD
BRANCH  22  25
ATOM     25  C   UNL     1      45.061   5.260  11.830  0.00  0.00    +0.000 A 
ATOM     26  C   UNL     1      44.366   4.607  12.837  0.00  0.00    +0.000 A 
ATOM     27  S   UNL     1      43.618   3.161  12.322  0.00  0.00    +0.000 S 
ATOM     28  C   UNL     1      44.230   3.341  10.747  0.00  0.00    +0.000 A 
ATOM     29  N   UNL     1      43.980   2.410   9.785  0.00  0.00    +0.000 NA
ATOM     30  C   UNL     1      44.528   2.658   8.648  0.00  0.00    +0.000 A 
ATOM     31  N   UNL     1      45.305   3.762   8.376  0.00  0.00    +0.000 N 
ATOM     32  C   UNL     1      45.564   4.741   9.304  0.00  0.00    +0.000 A 
ATOM     33  O   UNL     1      46.215   5.735   9.010  0.00  0.00    +0.000 OA
ATOM     34  C   UNL     1      44.979   4.499  10.607  0.00  0.00    +0.000 A 
ATOM     35  H   UNL     1      45.693   3.904   7.455  0.00  0.00    +0.000 HD
ENDBRANCH  22  25
ENDBRANCH  20  21
ENDBRANCH   4  20
TORSDOF 9
ENDMDL
MODEL 6
REMARK VINA RESULT:    -7.151      2.136      2.547
REMARK INTER + INTRA:         -11.907
REMARK INTER:                 -10.783
REMARK INTRA:                  -1.123
REMARK UNBOUND:                -0.993
REMARK  Name = 
REMARK  10 active torsions:
REMARK  status: ('A' for Active; 'I' for Inactive)
REMARK    1  A    between atoms: C_1  and  O_2
REMARK    2  A    between atoms: O_2  and  C_3
REMARK    3  A    between atoms: C_3  and  C_4
REMARK    4  A    between atoms: C_3  and  C_13
REMARK    5  A    between atoms: C_4  and  N_5
REMARK    6  A    between atoms: N_5  and  C_6
REMARK    7  A    between atoms: C_6  and  C_7
REMARK    8  A    between atoms: C_16  and  C_17
REMARK    9  A    between atoms: C_17  and  N_18
REMARK   10  A    between atoms: C_19  and  C_21
REMARK                            x       y       z     vdW  Elec       q    Type
REMARK                         _______ _______ _______ _____ _____    ______ ____
ROOT
ATOM      1  C   UNL     1      45.597   5.470  12.129  0.00  0.00    +0.000 A 
ATOM      2  C   UNL     1      46.573   5.026  13.037  0.00  0.00    +0.000 A 
ATOM      3  C   UNL     1      47.725   5.775  13.295  0.00  0.00    +0.000 A 
ATOM      4  C   UNL     1      47.930   7.006  12.665  0.00  0.00    +0.000 A 
ATOM      5  C   UNL     1      46.997   7.436  11.719  0.00  0.00    +0.000 A 
ATOM      6  C   UNL     1      45.855   6.674  11.450  0.00  0.00    +0.000 A 
ENDROOT
BRANCH   1   7
ATOM      7  C   UNL     1      44.316   4.659  11.876  0.00  0.00    +0.000 C 
BRANCH   7   9
ATOM      8  C   UNL     1      42.126   5.702  11.844  0.00  0.00    +0.000 C 
ATOM      9  O   UNL     1      43.248   5.297  12.604  0.00  0.00    +0.000 OA
ENDBRANCH   7   9
BRANCH   7  10
ATOM     10  C   UNL     1      43.969   4.524  10.356  0.00  0.00    +0.000 C 
BRANCH  10  11
ATOM     11  N   UNL     1      45.081   4.005   9.562  0.00  0.00    +0.000 NA
ATOM     12  H   UNL     1      45.981   4.298   9.943  0.00  0.00    +0.000 HD
BRANCH  11  13
ATOM     13  C   UNL     1      45.096   2.555   9.418  0.00  0.00    +0.000 C 
BRANCH  13  14
ATOM     14  C   UNL     1      45.906   2.178   8.192  0.00  0.00    +0.000 A 
ATOM     15  C   UNL     1      46.221   3.141   7.234  0.00  0.00    +0.000 A 
ATOM     16  C   UNL     1      47.010   2.779   6.147  0.00  0.00    +0.000 A 
ATOM     17  C   UNL     1      47.486   1.476   6.057  0.00  0.00    +0.000 A 
ATOM     18  C   UNL     1      47.159   0.590   7.069  0.00  0.00    +0.000 A 
ATOM     19  N   UNL     1      46.385   0.906   8.130  0.00  0.00    +0.000 NA
ENDBRANCH  13  14
ENDBRANCH  11  13
ENDBRANCH  10  11
ENDBRANCH   7  10
ENDBRANCH   1   7
BRANCH   4  20
ATOM     20  C   UNL     1      49.140   7.840  12.981  0.00  0.00    +0.000 C 
BRANCH  20  21
ATOM     21  N   UNL     1      49.983   7.193  13.951  0.00  0.00    +0.000 N 
ATOM     22  C   UNL     1      50.779   7.924  14.795  0.00  0.00    +0.000 C 
ATOM     23  O   UNL     1      50.773   9.151  14.800  0.00  0.00    +0.000 OA
ATOM     24  H   UNL     1      50.170   6.204  13.813  0.00  0.00    +0.000 HD
BRANCH  22  25
ATOM     25  C   UNL     1      51.599   7.159  15.741  0.00  0.00    +0.000 A 
ATOM     26  C   UNL     1      52.975   7.338  15.764  0.00  0.00    +0.000 A 
ATOM     27  S   UNL     1      53.766   6.389  16.943  0.00  0.00    +0.000 S 
ATOM     28  C   UNL     1      52.302   5.681  17.435  0.00  0.00    +0.000 A 
ATOM     29  N   UNL     1      52.272   4.738  18.417  0.00  0.00    +0.000 NA
ATOM     30  C   UNL     1      51.101   4.267  18.668  0.00  0.00    +0.000 A 
ATOM     31  N   UNL     1      49.945   4.657  18.031  0.00  0.00    +0.000 N 
ATOM     32  C   UNL     1      49.919   5.624  17.054  0.00  0.00    +0.000 A 
ATOM     33  O   UNL     1      48.865   5.983  16.548  0.00  0.00    +0.000 OA
ATOM     34  C   UNL     1      51.218   6.175  16.725  0.00  0.00    +0.000 A 
ATOM     35  H   UNL     1      49.055   4.258  18.288  0.00  0.00    +0.000 HD
ENDBRANCH  22  25
ENDBRANCH  20  21
ENDBRANCH   4  20
TORSDOF 9
ENDMDL
MODEL 7
REMARK VINA RESULT:    -6.982      3.413      5.315
REMARK INTER + INTRA:         -11.648
REMARK INTER:                 -10.261
REMARK INTRA:                  -1.388
REMARK UNBOUND:                -0.993
REMARK  Name = 
REMARK  10 active torsions:
REMARK  status: ('A' for Active; 'I' for Inactive)
REMARK    1  A    between atoms: C_1  and  O_2
REMARK    2  A    between atoms: O_2  and  C_3
REMARK    3  A    between atoms: C_3  and  C_4
REMARK    4  A    between atoms: C_3  and  C_13
REMARK    5  A    between atoms: C_4  and  N_5
REMARK    6  A    between atoms: N_5  and  C_6
REMARK    7  A    between atoms: C_6  and  C_7
REMARK    8  A    between atoms: C_16  and  C_17
REMARK    9  A    between atoms: C_17  and  N_18
REMARK   10  A    between atoms: C_19  and  C_21
REMARK                            x       y       z     vdW  Elec       q    Type
REMARK                         _______ _______ _______ _____ _____    ______ ____
ROOT
ATOM      1  C   UNL     1      45.647   5.017  12.292  0.00  0.00    +0.000 A 
ATOM      2  C   UNL     1      46.198   4.333  13.390  0.00  0.00    +0.000 A 
ATOM      3  C   UNL     1      47.143   4.937  14.225  0.00  0.00    +0.000 A 
ATOM      4  C   UNL     1      47.555   6.253  14.001  0.00  0.00    +0.000 A 
ATOM      5  C   UNL     1      47.058   6.927  12.883  0.00  0.00    +0.000 A 
ATOM      6  C   UNL     1      46.127   6.313  12.038  0.00  0.00    +0.000 A 
ENDROOT
BRANCH   1   7
ATOM      7  C   UNL     1      44.583   4.360  11.398  0.00  0.00    +0.000 C 
BRANCH   7   9
ATOM      8  C   UNL     1      42.445   5.370  11.944  0.00  0.00    +0.000 C 
ATOM      9  O   UNL     1      43.356   4.307  12.152  0.00  0.00    +0.000 OA
ENDBRANCH   7   9
BRANCH   7  10
ATOM     10  C   UNL     1      44.384   5.106  10.037  0.00  0.00    +0.000 C 
BRANCH  10  11
ATOM     11  N   UNL     1      44.459   4.214   8.881  0.00  0.00    +0.000 NA
ATOM     12  H   UNL     1      45.070   4.594   8.157  0.00  0.00    +0.000 HD
BRANCH  11  13
ATOM     13  C   UNL     1      44.902   2.861   9.190  0.00  0.00    +0.000 C 
BRANCH  13  14
ATOM     14  C   UNL     1      45.806   2.360   8.080  0.00  0.00    +0.000 A 
ATOM     15  C   UNL     1      46.178   3.210   7.039  0.00  0.00    +0.000 A 
ATOM     16  C   UNL     1      47.051   2.740   6.063  0.00  0.00    +0.000 A 
ATOM     17  C   UNL     1      47.551   1.446   6.165  0.00  0.00    +0.000 A 
ATOM     18  C   UNL     1      47.161   0.679   7.249  0.00  0.00    +0.000 A 
ATOM     19  N   UNL     1      46.305   1.101   8.206  0.00  0.00    +0.000 NA
ENDBRANCH  13  14
ENDBRANCH  11  13
ENDBRANCH  10  11
ENDBRANCH   7  10
ENDBRANCH   1   7
BRANCH   4  20
ATOM     20  C   UNL     1      48.528   6.924  14.929  0.00  0.00    +0.000 C 
BRANCH  20  21
ATOM     21  N   UNL     1      49.787   7.171  14.277  0.00  0.00    +0.000 N 
ATOM     22  C   UNL     1      50.317   8.434  14.219  0.00  0.00    +0.000 C 
ATOM     23  O   UNL     1      49.779   9.395  14.760  0.00  0.00    +0.000 OA
ATOM     24  H   UNL     1      50.127   6.452  13.644  0.00  0.00    +0.000 HD
BRANCH  22  25
ATOM     25  C   UNL     1      51.604   8.568  13.527  0.00  0.00    +0.000 A 
ATOM     26  C   UNL     1      52.710   9.052  14.212  0.00  0.00    +0.000 A 
ATOM     27  S   UNL     1      54.127   9.115  13.262  0.00  0.00    +0.000 S 
ATOM     28  C   UNL     1      53.301   8.534  11.894  0.00  0.00    +0.000 A 
ATOM     29  N   UNL     1      53.940   8.374  10.702  0.00  0.00    +0.000 NA
ATOM     30  C   UNL     1      53.189   7.955   9.746  0.00  0.00    +0.000 A 
ATOM     31  N   UNL     1      51.847   7.672   9.870  0.00  0.00    +0.000 N 
ATOM     32  C   UNL     1      51.164   7.791  11.056  0.00  0.00    +0.000 A 
ATOM     33  O   UNL     1      49.984   7.479  11.140  0.00  0.00    +0.000 OA
ATOM     34  C   UNL     1      51.966   8.275  12.162  0.00  0.00    +0.000 A 
ATOM     35  H   UNL     1      51.318   7.330   9.082  0.00  0.00    +0.000 HD
ENDBRANCH  22  25
ENDBRANCH  20  21
ENDBRANCH   4  20
TORSDOF 9
ENDMDL
MODEL 8
REMARK VINA RESULT:    -6.924      3.455      4.980
REMARK INTER + INTRA:         -11.560
REMARK INTER:                 -10.430
REMARK INTRA:                  -1.130
REMARK UNBOUND:                -0.993
REMARK  Name = 
REMARK  10 active torsions:
REMARK  status: ('A' for Active; 'I' for Inactive)
REMARK    1  A    between atoms: C_1  and  O_2
REMARK    2  A    between atoms: O_2  and  C_3
REMARK    3  A    between atoms: C_3  and  C_4
REMARK    4  A    between atoms: C_3  and  C_13
REMARK    5  A    between atoms: C_4  and  N_5
REMARK    6  A    between atoms: N_5  and  C_6
REMARK    7  A    between atoms: C_6  and  C_7
REMARK    8  A    between atoms: C_16  and  C_17
REMARK    9  A    between atoms: C_17  and  N_18
REMARK   10  A    between atoms: C_19  and  C_21
REMARK                            x       y       z     vdW  Elec       q    Type
REMARK                         _______ _______ _______ _____ _____    ______ ____
ROOT
ATOM      1  C   UNL     1      47.348   6.046  14.035  0.00  0.00    +0.000 A 
ATOM      2  C   UNL     1      46.800   4.752  13.988  0.00  0.00    +0.000 A 
ATOM      3  C   UNL     1      46.985   3.843  15.034  0.00  0.00    +0.000 A 
ATOM      4  C   UNL     1      47.710   4.205  16.173  0.00  0.00    +0.000 A 
ATOM      5  C   UNL     1      48.307   5.467  16.211  0.00  0.00    +0.000 A 
ATOM      6  C   UNL     1      48.135   6.367  15.154  0.00  0.00    +0.000 A 
ENDROOT
BRANCH   1   7
ATOM      7  C   UNL     1      47.111   7.052  12.898  0.00  0.00    +0.000 C 
BRANCH   7   9
ATOM      8  C   UNL     1      49.110   7.824  11.759  0.00  0.00    +0.000 C 
ATOM      9  O   UNL     1      48.241   7.948  12.869  0.00  0.00    +0.000 OA
ENDBRANCH   7   9
BRANCH   7  10
ATOM     10  C   UNL     1      46.892   6.365  11.510  0.00  0.00    +0.000 C 
BRANCH  10  11
ATOM     11  N   UNL     1      45.563   6.614  10.953  0.00  0.00    +0.000 NA
ATOM     12  H   UNL     1      45.618   6.932   9.985  0.00  0.00    +0.000 HD
BRANCH  11  13
ATOM     13  C   UNL     1      44.661   5.472  11.010  0.00  0.00    +0.000 C 
BRANCH  13  14
ATOM     14  C   UNL     1      45.080   4.445   9.975  0.00  0.00    +0.000 A 
ATOM     15  C   UNL     1      44.803   3.093  10.174  0.00  0.00    +0.000 A 
ATOM     16  C   UNL     1      45.152   2.180   9.183  0.00  0.00    +0.000 A 
ATOM     17  C   UNL     1      45.742   2.641   8.012  0.00  0.00    +0.000 A 
ATOM     18  C   UNL     1      45.950   4.003   7.877  0.00  0.00    +0.000 A 
ATOM     19  N   UNL     1      45.635   4.913   8.825  0.00  0.00    +0.000 NA
ENDBRANCH  13  14
ENDBRANCH  11  13
ENDBRANCH  10  11
ENDBRANCH   7  10
ENDBRANCH   1   7
BRANCH   4  20
ATOM     20  C   UNL     1      47.864   3.250  17.323  0.00  0.00    +0.000 C 
BRANCH  20  21
ATOM     21  N   UNL     1      49.248   3.072  17.673  0.00  0.00    +0.000 N 
ATOM     22  C   UNL     1      50.053   2.220  16.961  0.00  0.00    +0.000 C 
ATOM     23  O   UNL     1      49.652   1.615  15.971  0.00  0.00    +0.000 OA
ATOM     24  H   UNL     1      49.533   3.377  18.599  0.00  0.00    +0.000 HD
BRANCH  22  25
ATOM     25  C   UNL     1      51.446   2.114  17.409  0.00  0.00    +0.000 A 
ATOM     26  C   UNL     1      52.008   0.865  17.628  0.00  0.00    +0.000 A 
ATOM     27  S   UNL     1      53.643   0.929  18.118  0.00  0.00    +0.000 S 
ATOM     28  C   UNL     1      53.642   2.628  18.090  0.00  0.00    +0.000 A 
ATOM     29  N   UNL     1      54.750   3.338  18.438  0.00  0.00    +0.000 NA
ATOM     30  C   UNL     1      54.600   4.615  18.399  0.00  0.00    +0.000 A 
ATOM     31  N   UNL     1      53.437   5.257  18.037  0.00  0.00    +0.000 N 
ATOM     32  C   UNL     1      52.301   4.587  17.651  0.00  0.00    +0.000 A 
ATOM     33  O   UNL     1      51.304   5.192  17.284  0.00  0.00    +0.000 OA
ATOM     34  C   UNL     1      52.417   3.143  17.692  0.00  0.00    +0.000 A 
ATOM     35  H   UNL     1      53.391   6.265  18.012  0.00  0.00    +0.000 HD
ENDBRANCH  22  25
ENDBRANCH  20  21
ENDBRANCH   4  20
TORSDOF 9
ENDMDL
MODEL 9
REMARK VINA RESULT:    -6.624      4.077      9.396
REMARK INTER + INTRA:         -11.102
REMARK INTER:                  -8.774
REMARK INTRA:                  -2.327
REMARK UNBOUND:                -0.993
REMARK  Name = 
REMARK  10 active torsions:
REMARK  status: ('A' for Active; 'I' for Inactive)
REMARK    1  A    between atoms: C_1  and  O_2
REMARK    2  A    between atoms: O_2  and  C_3
REMARK    3  A    between atoms: C_3  and  C_4
REMARK    4  A    between atoms: C_3  and  C_13
REMARK    5  A    between atoms: C_4  and  N_5
REMARK    6  A    between atoms: N_5  and  C_6
REMARK    7  A    between atoms: C_6  and  C_7
REMARK    8  A    between atoms: C_16  and  C_17
REMARK    9  A    between atoms: C_17  and  N_18
REMARK   10  A    between atoms: C_19  and  C_21
REMARK                            x       y       z     vdW  Elec       q    Type
REMARK                         _______ _______ _______ _____ _____    ______ ____
ROOT
ATOM      1  C   UNL     1      50.533   8.899  11.409  0.00  0.00    +0.000 A 
ATOM      2  C   UNL     1      49.720   9.994  11.752  0.00  0.00    +0.000 A 
ATOM      3  C   UNL     1      48.398   9.817  12.170  0.00  0.00    +0.000 A 
ATOM      4  C   UNL     1      47.849   8.537  12.278  0.00  0.00    +0.000 A 
ATOM      5  C   UNL     1      48.626   7.443  11.889  0.00  0.00    +0.000 A 
ATOM      6  C   UNL     1      49.942   7.624  11.453  0.00  0.00    +0.000 A 
ENDROOT
BRANCH   1   7
ATOM      7  C   UNL     1      51.997   9.096  10.984  0.00  0.00    +0.000 C 
BRANCH   7   9
ATOM      8  C   UNL     1      53.141  11.215  10.687  0.00  0.00    +0.000 C 
ATOM      9  O   UNL     1      52.083  10.361  10.297  0.00  0.00    +0.000 OA
ENDBRANCH   7   9
BRANCH   7  10
ATOM     10  C   UNL     1      52.996   9.032  12.187  0.00  0.00    +0.000 C 
BRANCH  10  11
ATOM     11  N   UNL     1      52.616   8.041  13.192  0.00  0.00    +0.000 NA
ATOM     12  H   UNL     1      53.260   7.249  13.197  0.00  0.00    +0.000 HD
BRANCH  11  13
ATOM     13  C   UNL     1      52.518   8.562  14.549  0.00  0.00    +0.000 C 
BRANCH  13  14
ATOM     14  C   UNL     1      51.102   8.379  15.059  0.00  0.00    +0.000 A 
ATOM     15  C   UNL     1      50.319   9.490  15.373  0.00  0.00    +0.000 A 
ATOM     16  C   UNL     1      49.006   9.293  15.789  0.00  0.00    +0.000 A 
ATOM     17  C   UNL     1      48.500   8.000  15.856  0.00  0.00    +0.000 A 
ATOM     18  C   UNL     1      49.331   6.954  15.491  0.00  0.00    +0.000 A 
ATOM     19  N   UNL     1      50.614   7.110  15.097  0.00  0.00    +0.000 NA
ENDBRANCH  13  14
ENDBRANCH  11  13
ENDBRANCH  10  11
ENDBRANCH   7  10
ENDBRANCH   1   7
BRANCH   4  20
ATOM     20  C   UNL     1      46.446   8.340  12.779  0.00  0.00    +0.000 C 
BRANCH  20  21
ATOM     21  N   UNL     1      45.992   6.995  12.547  0.00  0.00    +0.000 N 
ATOM     22  C   UNL     1      44.945   6.739  11.699  0.00  0.00    +0.000 C 
ATOM     23  O   UNL     1      44.386   7.628  11.064  0.00  0.00    +0.000 OA
ATOM     24  H   UNL     1      46.281   6.288  13.217  0.00  0.00    +0.000 HD
BRANCH  22  25
ATOM     25  C   UNL     1      44.565   5.331  11.541  0.00  0.00    +0.000 A 
ATOM     26  C   UNL     1      43.874   4.684  12.556  0.00  0.00    +0.000 A 
ATOM     27  S   UNL     1      43.490   3.060  12.192  0.00  0.00    +0.000 S 
ATOM     28  C   UNL     1      44.267   3.158  10.683  0.00  0.00    +0.000 A 
ATOM     29  N   UNL     1      44.331   2.079   9.854  0.00  0.00    +0.000 NA
ATOM     30  C   UNL     1      44.972   2.286   8.758  0.00  0.00    +0.000 A 
ATOM     31  N   UNL     1      45.558   3.481   8.406  0.00  0.00    +0.000 N 
ATOM     32  C   UNL     1      45.497   4.605   9.194  0.00  0.00    +0.000 A 
ATOM     33  O   UNL     1      45.983   5.665   8.824  0.00  0.00    +0.000 OA
ATOM     34  C   UNL     1      44.796   4.418  10.448  0.00  0.00    +0.000 A 
ATOM     35  H   UNL     1      46.034   3.581   7.522  0.00  0.00    +0.000 HD
ENDBRANCH  22  25
ENDBRANCH  20  21
ENDBRANCH   4  20
TORSDOF 9
ENDMDL
