MODEL 1
REMARK VINA RESULT:    -7.866      0.000      0.000
REMARK INTER + INTRA:         -10.311
REMARK INTER:                  -9.705
REMARK INTRA:                  -0.606
REMARK UNBOUND:                -0.606
REMARK  Name = 
REMARK  5 active torsions:
REMARK  status: ('A' for Active; 'I' for Inactive)
REMARK    1  A    between atoms: C_1  and  C_2
REMARK    2  A    between atoms: C_5  and  O_6
REMARK    3  A    between atoms: O_6  and  C_7
REMARK    4  A    between atoms: C_7  and  C_8
REMARK    5  A    between atoms: C_12  and  C_13
REMARK                            x       y       z     vdW  Elec       q    Type
REMARK                         _______ _______ _______ _____ _____    ______ ____
ROOT
ATOM      1  C   UNL     1      45.408   5.372  12.062  0.00  0.00    +0.000 A 
ATOM      2  C   UNL     1      46.141   6.385  11.427  0.00  0.00    +0.000 A 
ATOM      3  C   UNL     1      47.342   6.864  11.951  0.00  0.00    +0.000 A 
ATOM      4  C   UNL     1      47.826   6.360  13.153  0.00  0.00    +0.000 A 
ATOM      5  C   UNL     1      47.138   5.351  13.843  0.00  0.00    +0.000 A 
ATOM      6  C   UNL     1      45.962   4.847  13.250  0.00  0.00    +0.000 A 
ENDROOT
BRANCH   5   7
ATOM      7  C   UNL     1      47.580   4.891  15.173  0.00  0.00    +0.000 A 
ATOM      8  C   UNL     1      47.235   3.638  15.696  0.00  0.00    +0.000 A 
ATOM      9  C   UNL     1      47.635   3.269  16.980  0.00  0.00    +0.000 A 
ATOM     10  C   UNL     1      48.387   4.165  17.718  0.00  0.00    +0.000 A 
ATOM     11  N   UNL     1      48.754   5.379  17.265  0.00  0.00    +0.000 NA
ATOM     12  C   UNL     1      48.341   5.710  16.016  0.00  0.00    +0.000 A 
ENDBRANCH   5   7
BRANCH   1  13
ATOM     13  C   UNL     1      44.035   4.922  11.556  0.00  0.00    +0.000 C 
ATOM     14  C   UNL     1      42.849   5.094  12.511  0.00  0.00    +0.000 C 
ATOM     15  C   UNL     1      42.963   5.966  11.309  0.00  0.00    +0.000 C 
BRANCH  13  16
ATOM     16  O   UNL     1      43.953   3.644  10.878  0.00  0.00    +0.000 OA
BRANCH  16  21
ATOM     17  C   UNL     1      47.185   2.763   6.374  0.00  0.00    +0.000 C 
ATOM     18  C   UNL     1      46.208   2.950   7.496  0.00  0.00    +0.000 A 
ATOM     19  C   UNL     1      45.903   1.903   8.360  0.00  0.00    +0.000 A 
ATOM     20  C   UNL     1      45.105   2.163   9.475  0.00  0.00    +0.000 A 
ATOM     21  C   UNL     1      44.622   3.447   9.701  0.00  0.00    +0.000 A 
ATOM     22  C   UNL     1      44.925   4.412   8.756  0.00  0.00    +0.000 A 
ATOM     23  N   UNL     1      45.707   4.194   7.664  0.00  0.00    +0.000 NA
ENDBRANCH  16  21
ENDBRANCH  13  16
ENDBRANCH   1  13
TORSDOF 4
ENDMDL
MODEL 2
REMARK VINA RESULT:    -7.862      2.140      3.587
REMARK INTER + INTRA:         -10.307
REMARK INTER:                  -9.373
REMARK INTRA:                  -0.933
REMARK UNBOUND:                -0.606
REMARK  Name = 
REMARK  5 active torsions:
REMARK  status: ('A' for Active; 'I' for Inactive)
REMARK    1  A    between atoms: C_1  and  C_2
REMARK    2  A    between atoms: C_5  and  O_6
REMARK    3  A    between atoms: O_6  and  C_7
REMARK    4  A    between atoms: C_7  and  C_8
REMARK    5  A    between atoms: C_12  and  C_13
REMARK                            x       y       z     vdW  Elec       q    Type
REMARK                         _______ _______ _______ _____ _____    ______ ____
ROOT
ATOM      1  C   UNL     1      45.105   5.074  12.144  0.00  0.00    +0.000 A 
ATOM      2  C   UNL     1      45.712   4.106  12.958  0.00  0.00    +0.000 A 
ATOM      3  C   UNL     1      46.958   4.316  13.548  0.00  0.00    +0.000 A 
ATOM      4  C   UNL     1      47.651   5.498  13.309  0.00  0.00    +0.000 A 
ATOM      5  C   UNL     1      47.104   6.504  12.498  0.00  0.00    +0.000 A 
ATOM      6  C   UNL     1      45.814   6.283  11.972  0.00  0.00    +0.000 A 
ENDROOT
BRANCH   5   7
ATOM      7  C   UNL     1      47.877   7.711  12.145  0.00  0.00    +0.000 A 
ATOM      8  C   UNL     1      49.237   7.670  11.814  0.00  0.00    +0.000 A 
ATOM      9  C   UNL     1      49.937   8.845  11.538  0.00  0.00    +0.000 A 
ATOM     10  C   UNL     1      49.252  10.045  11.589  0.00  0.00    +0.000 A 
ATOM     11  N   UNL     1      47.945  10.145  11.895  0.00  0.00    +0.000 NA
ATOM     12  C   UNL     1      47.297   8.984  12.167  0.00  0.00    +0.000 A 
ENDBRANCH   5   7
BRANCH   1  13
ATOM     13  C   UNL     1      43.794   4.806  11.401  0.00  0.00    +0.000 C 
ATOM     14  C   UNL     1      42.492   5.059  12.170  0.00  0.00    +0.000 C 
ATOM     15  C   UNL     1      42.888   5.973  11.062  0.00  0.00    +0.000 C 
BRANCH  13  16
ATOM     16  O   UNL     1      43.693   3.581  10.633  0.00  0.00    +0.000 OA
BRANCH  16  21
ATOM     17  C   UNL     1      47.477   2.660   6.590  0.00  0.00    +0.000 C 
ATOM     18  C   UNL     1      46.363   2.862   7.573  0.00  0.00    +0.000 A 
ATOM     19  C   UNL     1      45.917   1.815   8.372  0.00  0.00    +0.000 A 
ATOM     20  C   UNL     1      44.984   2.084   9.374  0.00  0.00    +0.000 A 
ATOM     21  C   UNL     1      44.510   3.379   9.553  0.00  0.00    +0.000 A 
ATOM     22  C   UNL     1      44.962   4.345   8.673  0.00  0.00    +0.000 A 
ATOM     23  N   UNL     1      45.877   4.117   7.691  0.00  0.00    +0.000 NA
ENDBRANCH  16  21
ENDBRANCH  13  16
ENDBRANCH   1  13
TORSDOF 4
ENDMDL
MODEL 3
REMARK VINA RESULT:    -7.273      1.745      2.504
REMARK INTER + INTRA:          -9.580
REMARK INTER:                  -8.918
REMARK INTRA:                  -0.662
REMARK UNBOUND:                -0.606
REMARK  Name = 
REMARK  5 active torsions:
REMARK  status: ('A' for Active; 'I' for Inactive)
REMARK    1  A    between atoms: C_1  and  C_2
REMARK    2  A    between atoms: C_5  and  O_6
REMARK    3  A    between atoms: O_6  and  C_7
REMARK    4  A    between atoms: C_7  and  C_8
REMARK    5  A    between atoms: C_12  and  C_13
REMARK                            x       y       z     vdW  Elec       q    Type
REMARK                         _______ _______ _______ _____ _____    ______ ____
ROOT
ATOM      1  C   UNL     1      44.929   6.539  11.987  0.00  0.00    +0.000 A 
ATOM      2  C   UNL     1      44.486   7.810  11.589  0.00  0.00    +0.000 A 
ATOM      3  C   UNL     1      45.241   8.960  11.823  0.00  0.00    +0.000 A 
ATOM      4  C   UNL     1      46.453   8.870  12.498  0.00  0.00    +0.000 A 
ATOM      5  C   UNL     1      46.950   7.632  12.929  0.00  0.00    +0.000 A 
ATOM      6  C   UNL     1      46.192   6.485  12.618  0.00  0.00    +0.000 A 
ENDROOT
BRANCH   5   7
ATOM      7  C   UNL     1      48.177   7.539  13.745  0.00  0.00    +0.000 A 
ATOM      8  C   UNL     1      49.280   8.380  13.554  0.00  0.00    +0.000 A 
ATOM      9  C   UNL     1      50.437   8.219  14.316  0.00  0.00    +0.000 A 
ATOM     10  C   UNL     1      50.462   7.217  15.270  0.00  0.00    +0.000 A 
ATOM     11  N   UNL     1      49.430   6.383  15.501  0.00  0.00    +0.000 NA
ATOM     12  C   UNL     1      48.324   6.562  14.736  0.00  0.00    +0.000 A 
ENDBRANCH   5   7
BRANCH   1  13
ATOM     13  C   UNL     1      44.058   5.290  11.837  0.00  0.00    +0.000 C 
ATOM     14  C   UNL     1      43.041   5.012  12.950  0.00  0.00    +0.000 C 
ATOM     15  C   UNL     1      42.569   5.455  11.608  0.00  0.00    +0.000 C 
BRANCH  13  16
ATOM     16  O   UNL     1      44.708   4.060  11.433  0.00  0.00    +0.000 OA
BRANCH  16  21
ATOM     17  C   UNL     1      46.598   3.000   6.255  0.00  0.00    +0.000 C 
ATOM     18  C   UNL     1      45.956   3.279   7.581  0.00  0.00    +0.000 A 
ATOM     19  C   UNL     1      45.530   2.241   8.402  0.00  0.00    +0.000 A 
ATOM     20  C   UNL     1      45.077   2.542   9.687  0.00  0.00    +0.000 A 
ATOM     21  C   UNL     1      45.048   3.862  10.123  0.00  0.00    +0.000 A 
ATOM     22  C   UNL     1      45.433   4.835   9.218  0.00  0.00    +0.000 A 
ATOM     23  N   UNL     1      45.887   4.574   7.961  0.00  0.00    +0.000 NA
ENDBRANCH  16  21
ENDBRANCH  13  16
ENDBRANCH   1  13
TORSDOF 4
ENDMDL
MODEL 4
REMARK VINA RESULT:    -7.110      1.761      7.108
REMARK INTER + INTRA:          -9.379
REMARK INTER:                  -8.626
REMARK INTRA:                  -0.753
REMARK UNBOUND:                -0.606
REMARK  Name = 
REMARK  5 active torsions:
REMARK  status: ('A' for Active; 'I' for Inactive)
REMARK    1  A    between atoms: C_1  and  C_2
REMARK    2  A    between atoms: C_5  and  O_6
REMARK    3  A    between atoms: O_6  and  C_7
REMARK    4  A    between atoms: C_7  and  C_8
REMARK    5  A    between atoms: C_12  and  C_13
REMARK                            x       y       z     vdW  Elec       q    Type
REMARK                         _______ _______ _______ _____ _____    ______ ____
ROOT
ATOM      1  C   UNL     1      45.387   6.206  11.852  0.00  0.00    +0.000 A 
ATOM      2  C   UNL     1      43.995   6.370  11.926  0.00  0.00    +0.000 A 
ATOM      3  C   UNL     1      43.122   5.606  11.152  0.00  0.00    +0.000 A 
ATOM      4  C   UNL     1      43.625   4.674  10.250  0.00  0.00    +0.000 A 
ATOM      5  C   UNL     1      45.005   4.467  10.121  0.00  0.00    +0.000 A 
ATOM      6  C   UNL     1      45.855   5.211  10.967  0.00  0.00    +0.000 A 
ENDROOT
BRANCH   5   7
ATOM      7  C   UNL     1      45.553   3.566   9.089  0.00  0.00    +0.000 A 
ATOM      8  C   UNL     1      46.101   4.033   7.888  0.00  0.00    +0.000 A 
ATOM      9  C   UNL     1      46.560   3.139   6.920  0.00  0.00    +0.000 A 
ATOM     10  C   UNL     1      46.469   1.784   7.181  0.00  0.00    +0.000 A 
ATOM     11  N   UNL     1      45.958   1.277   8.320  0.00  0.00    +0.000 NA
ATOM     12  C   UNL     1      45.513   2.175   9.235  0.00  0.00    +0.000 A 
ENDBRANCH   5   7
BRANCH   1  13
ATOM     13  C   UNL     1      46.354   7.117  12.611  0.00  0.00    +0.000 C 
ATOM     14  C   UNL     1      46.655   8.486  11.991  0.00  0.00    +0.000 C 
ATOM     15  C   UNL     1      45.829   8.399  13.227  0.00  0.00    +0.000 C 
BRANCH  13  16
ATOM     16  O   UNL     1      47.570   6.524  13.131  0.00  0.00    +0.000 OA
BRANCH  16  21
ATOM     17  C   UNL     1      47.991   3.384  17.765  0.00  0.00    +0.000 C 
ATOM     18  C   UNL     1      47.773   4.300  16.598  0.00  0.00    +0.000 A 
ATOM     19  C   UNL     1      48.447   5.512  16.505  0.00  0.00    +0.000 A 
ATOM     20  C   UNL     1      48.327   6.260  15.333  0.00  0.00    +0.000 A 
ATOM     21  C   UNL     1      47.536   5.794  14.288  0.00  0.00    +0.000 A 
ATOM     22  C   UNL     1      46.854   4.608  14.493  0.00  0.00    +0.000 A 
ATOM     23  N   UNL     1      46.956   3.851  15.619  0.00  0.00    +0.000 NA
ENDBRANCH  16  21
ENDBRANCH  13  16
ENDBRANCH   1  13
TORSDOF 4
ENDMDL
MODEL 5
REMARK VINA RESULT:    -6.762      3.485      7.111
REMARK INTER + INTRA:          -8.949
REMARK INTER:                  -8.105
REMARK INTRA:                  -0.844
REMARK UNBOUND:                -0.606
REMARK  Name = 
REMARK  5 active torsions:
REMARK  status: ('A' for Active; 'I' for Inactive)
REMARK    1  A    between atoms: C_1  and  C_2
REMARK    2  A    between atoms: C_5  and  O_6
REMARK    3  A    between atoms: O_6  and  C_7
REMARK    4  A    between atoms: C_7  and  C_8
REMARK    5  A    between atoms: C_12  and  C_13
REMARK                            x       y       z     vdW  Elec       q    Type
REMARK                         _______ _______ _______ _____ _____    ______ ____
ROOT
ATOM      1  C   UNL     1      45.031   6.455  11.734  0.00  0.00    +0.000 A 
ATOM      2  C   UNL     1      43.669   6.275  12.018  0.00  0.00    +0.000 A 
ATOM      3  C   UNL     1      42.924   5.250  11.433  0.00  0.00    +0.000 A 
ATOM      4  C   UNL     1      43.522   4.393  10.515  0.00  0.00    +0.000 A 
ATOM      5  C   UNL     1      44.877   4.524  10.180  0.00  0.00    +0.000 A 
ATOM      6  C   UNL     1      45.613   5.530  10.840  0.00  0.00    +0.000 A 
ENDROOT
BRANCH   5   7
ATOM      7  C   UNL     1      45.491   3.696   9.124  0.00  0.00    +0.000 A 
ATOM      8  C   UNL     1      46.083   4.244   7.980  0.00  0.00    +0.000 A 
ATOM      9  C   UNL     1      46.605   3.417   6.984  0.00  0.00    +0.000 A 
ATOM     10  C   UNL     1      46.531   2.048   7.161  0.00  0.00    +0.000 A 
ATOM     11  N   UNL     1      45.979   1.465   8.243  0.00  0.00    +0.000 NA
ATOM     12  C   UNL     1      45.473   2.298   9.187  0.00  0.00    +0.000 A 
ENDBRANCH   5   7
BRANCH   1  13
ATOM     13  C   UNL     1      45.825   7.644  12.280  0.00  0.00    +0.000 C 
ATOM     14  C   UNL     1      46.887   7.343  13.345  0.00  0.00    +0.000 C 
ATOM     15  C   UNL     1      47.306   7.744  11.973  0.00  0.00    +0.000 C 
BRANCH  13  16
ATOM     16  O   UNL     1      45.089   8.842  12.630  0.00  0.00    +0.000 OA
BRANCH  16  21
ATOM     17  C   UNL     1      44.668  12.584   8.468  0.00  0.00    +0.000 C 
ATOM     18  C   UNL     1      44.675  11.662   9.650  0.00  0.00    +0.000 A 
ATOM     19  C   UNL     1      43.794  10.588   9.723  0.00  0.00    +0.000 A 
ATOM     20  C   UNL     1      43.936   9.673  10.766  0.00  0.00    +0.000 A 
ATOM     21  C   UNL     1      44.939   9.848  11.714  0.00  0.00    +0.000 A 
ATOM     22  C   UNL     1      45.730  10.977  11.596  0.00  0.00    +0.000 A 
ATOM     23  N   UNL     1      45.623  11.884  10.587  0.00  0.00    +0.000 NA
ENDBRANCH  16  21
ENDBRANCH  13  16
ENDBRANCH   1  13
TORSDOF 4
ENDMDL
MODEL 6
REMARK VINA RESULT:    -6.618      2.346      7.162
REMARK INTER + INTRA:          -8.771
REMARK INTER:                  -8.073
REMARK INTRA:                  -0.698
REMARK UNBOUND:                -0.606
REMARK  Name = 
REMARK  5 active torsions:
REMARK  status: ('A' for Active; 'I' for Inactive)
REMARK    1  A    between atoms: C_1  and  C_2
REMARK    2  A    between atoms: C_5  and  O_6
REMARK    3  A    between atoms: O_6  and  C_7
REMARK    4  A    between atoms: C_7  and  C_8
REMARK    5  A    between atoms: C_12  and  C_13
REMARK                            x       y       z     vdW  Elec       q    Type
REMARK                         _______ _______ _______ _____ _____    ______ ____
ROOT
ATOM      1  C   UNL     1      45.060   6.541  11.464  0.00  0.00    +0.000 A 
ATOM      2  C   UNL     1      43.706   6.348  11.776  0.00  0.00    +0.000 A 
ATOM      3  C   UNL     1      42.982   5.267  11.273  0.00  0.00    +0.000 A 
ATOM      4  C   UNL     1      43.591   4.362  10.411  0.00  0.00    +0.000 A 
ATOM      5  C   UNL     1      44.940   4.502  10.053  0.00  0.00    +0.000 A 
ATOM      6  C   UNL     1      45.657   5.570  10.631  0.00  0.00    +0.000 A 
ENDROOT
BRANCH   5   7
ATOM      7  C   UNL     1      45.564   3.616   9.051  0.00  0.00    +0.000 A 
ATOM      8  C   UNL     1      46.218   4.103   7.912  0.00  0.00    +0.000 A 
ATOM      9  C   UNL     1      46.748   3.224   6.967  0.00  0.00    +0.000 A 
ATOM     10  C   UNL     1      46.620   1.865   7.188  0.00  0.00    +0.000 A 
ATOM     11  N   UNL     1      46.007   1.340   8.266  0.00  0.00    +0.000 NA
ATOM     12  C   UNL     1      45.495   2.223   9.161  0.00  0.00    +0.000 A 
ENDBRANCH   5   7
BRANCH   1  13
ATOM     13  C   UNL     1      45.830   7.785  11.916  0.00  0.00    +0.000 C 
ATOM     14  C   UNL     1      45.288   9.144  11.460  0.00  0.00    +0.000 C 
ATOM     15  C   UNL     1      45.173   8.743  12.890  0.00  0.00    +0.000 C 
BRANCH  13  16
ATOM     16  O   UNL     1      47.275   7.758  11.810  0.00  0.00    +0.000 OA
BRANCH  16  21
ATOM     17  C   UNL     1      50.871   6.886  16.030  0.00  0.00    +0.000 C 
ATOM     18  C   UNL     1      49.832   7.204  14.996  0.00  0.00    +0.000 A 
ATOM     19  C   UNL     1      49.933   8.346  14.210  0.00  0.00    +0.000 A 
ATOM     20  C   UNL     1      49.028   8.524  13.163  0.00  0.00    +0.000 A 
ATOM     21  C   UNL     1      48.042   7.572  12.927  0.00  0.00    +0.000 A 
ATOM     22  C   UNL     1      47.978   6.499  13.798  0.00  0.00    +0.000 A 
ATOM     23  N   UNL     1      48.850   6.292  14.822  0.00  0.00    +0.000 NA
ENDBRANCH  16  21
ENDBRANCH  13  16
ENDBRANCH   1  13
TORSDOF 4
ENDMDL
MODEL 7
REMARK VINA RESULT:    -6.615      2.480      3.181
REMARK INTER + INTRA:          -8.768
REMARK INTER:                  -8.850
REMARK INTRA:                   0.082
REMARK UNBOUND:                -0.606
REMARK  Name = 
REMARK  5 active torsions:
REMARK  status: ('A' for Active; 'I' for Inactive)
REMARK    1  A    between atoms: C_1  and  C_2
REMARK    2  A    between atoms: C_5  and  O_6
REMARK    3  A    between atoms: O_6  and  C_7
REMARK    4  A    between atoms: C_7  and  C_8
REMARK    5  A    between atoms: C_12  and  C_13
REMARK                            x       y       z     vdW  Elec       q    Type
REMARK                         _______ _______ _______ _____ _____    ______ ____
ROOT
ATOM      1  C   UNL     1      44.511   5.491  11.396  0.00  0.00    +0.000 A 
ATOM      2  C   UNL     1      43.593   6.536  11.206  0.00  0.00    +0.000 A 
ATOM      3  C   UNL     1      43.969   7.875  11.316  0.00  0.00    +0.000 A 
ATOM      4  C   UNL     1      45.276   8.205  11.654  0.00  0.00    +0.000 A 
ATOM      5  C   UNL     1      46.241   7.210  11.865  0.00  0.00    +0.000 A 
ATOM      6  C   UNL     1      45.841   5.870  11.682  0.00  0.00    +0.000 A 
ENDROOT
BRANCH   5   7
ATOM      7  C   UNL     1      47.599   7.544  12.337  0.00  0.00    +0.000 A 
ATOM      8  C   UNL     1      48.265   6.799  13.318  0.00  0.00    +0.000 A 
ATOM      9  C   UNL     1      49.528   7.185  13.768  0.00  0.00    +0.000 A 
ATOM     10  C   UNL     1      50.108   8.313  13.214  0.00  0.00    +0.000 A 
ATOM     11  N   UNL     1      49.517   9.063  12.264  0.00  0.00    +0.000 NA
ATOM     12  C   UNL     1      48.286   8.664  11.856  0.00  0.00    +0.000 A 
ENDBRANCH   5   7
BRANCH   1  13
ATOM     13  C   UNL     1      44.083   4.022  11.392  0.00  0.00    +0.000 C 
ATOM     14  C   UNL     1      44.939   3.044  12.204  0.00  0.00    +0.000 C 
ATOM     15  C   UNL     1      43.572   3.400  12.676  0.00  0.00    +0.000 C 
BRANCH  13  16
ATOM     16  O   UNL     1      43.716   3.431  10.120  0.00  0.00    +0.000 OA
BRANCH  16  21
ATOM     17  C   UNL     1      47.993   2.514   6.603  0.00  0.00    +0.000 C 
ATOM     18  C   UNL     1      46.760   2.718   7.432  0.00  0.00    +0.000 A 
ATOM     19  C   UNL     1      46.197   1.665   8.145  0.00  0.00    +0.000 A 
ATOM     20  C   UNL     1      45.142   1.933   9.018  0.00  0.00    +0.000 A 
ATOM     21  C   UNL     1      44.666   3.233   9.156  0.00  0.00    +0.000 A 
ATOM     22  C   UNL     1      45.246   4.206   8.362  0.00  0.00    +0.000 A 
ATOM     23  N   UNL     1      46.281   3.979   7.507  0.00  0.00    +0.000 NA
ENDBRANCH  16  21
ENDBRANCH  13  16
ENDBRANCH   1  13
TORSDOF 4
ENDMDL
MODEL 8
REMARK VINA RESULT:    -6.320      2.385      7.742
REMARK INTER + INTRA:          -8.405
REMARK INTER:                  -7.668
REMARK INTRA:                  -0.736
REMARK UNBOUND:                -0.606
REMARK  Name = 
REMARK  5 active torsions:
REMARK  status: ('A' for Active; 'I' for Inactive)
REMARK    1  A    between atoms: C_1  and  C_2
REMARK    2  A    between atoms: C_5  and  O_6
REMARK    3  A    between atoms: O_6  and  C_7
REMARK    4  A    between atoms: C_7  and  C_8
REMARK    5  A    between atoms: C_12  and  C_13
REMARK                            x       y       z     vdW  Elec       q    Type
REMARK                         _______ _______ _______ _____ _____    ______ ____
ROOT
ATOM      1  C   UNL     1      47.355   7.336  12.790  0.00  0.00    +0.000 A 
ATOM      2  C   UNL     1      46.415   8.360  12.983  0.00  0.00    +0.000 A 
ATOM      3  C   UNL     1      45.112   8.265  12.493  0.00  0.00    +0.000 A 
ATOM      4  C   UNL     1      44.724   7.147  11.762  0.00  0.00    +0.000 A 
ATOM      5  C   UNL     1      45.617   6.092  11.527  0.00  0.00    +0.000 A 
ATOM      6  C   UNL     1      46.905   6.194  12.093  0.00  0.00    +0.000 A 
ENDROOT
BRANCH   5   7
ATOM      7  C   UNL     1      45.252   4.957  10.657  0.00  0.00    +0.000 A 
ATOM      8  C   UNL     1      45.492   4.951   9.278  0.00  0.00    +0.000 A 
ATOM      9  C   UNL     1      45.082   3.875   8.490  0.00  0.00    +0.000 A 
ATOM     10  C   UNL     1      44.444   2.814   9.105  0.00  0.00    +0.000 A 
ATOM     11  N   UNL     1      44.193   2.762  10.428  0.00  0.00    +0.000 NA
ATOM     12  C   UNL     1      44.597   3.829  11.163  0.00  0.00    +0.000 A 
ENDBRANCH   5   7
BRANCH   1  13
ATOM     13  C   UNL     1      48.816   7.482  13.223  0.00  0.00    +0.000 C 
ATOM     14  C   UNL     1      49.855   7.685  12.114  0.00  0.00    +0.000 C 
ATOM     15  C   UNL     1      49.513   8.813  13.025  0.00  0.00    +0.000 C 
BRANCH  13  16
ATOM     16  O   UNL     1      49.319   6.557  14.218  0.00  0.00    +0.000 OA
BRANCH  16  21
ATOM     17  C   UNL     1      47.990   6.903  19.661  0.00  0.00    +0.000 C 
ATOM     18  C   UNL     1      48.206   6.853  18.178  0.00  0.00    +0.000 A 
ATOM     19  C   UNL     1      48.586   7.989  17.472  0.00  0.00    +0.000 A 
ATOM     20  C   UNL     1      48.919   7.862  16.123  0.00  0.00    +0.000 A 
ATOM     21  C   UNL     1      48.859   6.617  15.506  0.00  0.00    +0.000 A 
ATOM     22  C   UNL     1      48.412   5.554  16.270  0.00  0.00    +0.000 A 
ATOM     23  N   UNL     1      48.088   5.642  17.589  0.00  0.00    +0.000 NA
ENDBRANCH  16  21
ENDBRANCH  13  16
ENDBRANCH   1  13
TORSDOF 4
ENDMDL
MODEL 9
REMARK VINA RESULT:    -5.951      2.755      4.479
REMARK INTER + INTRA:          -7.949
REMARK INTER:                  -7.214
REMARK INTRA:                  -0.734
REMARK UNBOUND:                -0.606
REMARK  Name = 
REMARK  5 active torsions:
REMARK  status: ('A' for Active; 'I' for Inactive)
REMARK    1  A    between atoms: C_1  and  C_2
REMARK    2  A    between atoms: C_5  and  O_6
REMARK    3  A    between atoms: O_6  and  C_7
REMARK    4  A    between atoms: C_7  and  C_8
REMARK    5  A    between atoms: C_12  and  C_13
REMARK                            x       y       z     vdW  Elec       q    Type
REMARK                         _______ _______ _______ _____ _____    ______ ____
ROOT
ATOM      1  C   UNL     1      48.401   7.985  13.896  0.00  0.00    +0.000 A 
ATOM      2  C   UNL     1      48.448   9.126  14.711  0.00  0.00    +0.000 A 
ATOM      3  C   UNL     1      48.578   9.037  16.097  0.00  0.00    +0.000 A 
ATOM      4  C   UNL     1      48.630   7.791  16.711  0.00  0.00    +0.000 A 
ATOM      5  C   UNL     1      48.580   6.610  15.956  0.00  0.00    +0.000 A 
ATOM      6  C   UNL     1      48.515   6.740  14.553  0.00  0.00    +0.000 A 
ENDROOT
BRANCH   5   7
ATOM      7  C   UNL     1      48.520   5.286  16.604  0.00  0.00    +0.000 A 
ATOM      8  C   UNL     1      49.571   4.768  17.370  0.00  0.00    +0.000 A 
ATOM      9  C   UNL     1      49.487   3.488  17.920  0.00  0.00    +0.000 A 
ATOM     10  C   UNL     1      48.338   2.752  17.698  0.00  0.00    +0.000 A 
ATOM     11  N   UNL     1      47.293   3.200  16.976  0.00  0.00    +0.000 NA
ATOM     12  C   UNL     1      47.413   4.445  16.448  0.00  0.00    +0.000 A 
ENDBRANCH   5   7
BRANCH   1  13
ATOM     13  C   UNL     1      48.144   8.071  12.390  0.00  0.00    +0.000 C 
ATOM     14  C   UNL     1      48.999   9.061  11.591  0.00  0.00    +0.000 C 
ATOM     15  C   UNL     1      49.217   7.596  11.431  0.00  0.00    +0.000 C 
BRANCH  13  16
ATOM     16  O   UNL     1      46.766   8.124  11.944  0.00  0.00    +0.000 OA
BRANCH  16  21
ATOM     17  C   UNL     1      43.266   3.746  11.646  0.00  0.00    +0.000 C 
ATOM     18  C   UNL     1      44.302   4.822  11.779  0.00  0.00    +0.000 A 
ATOM     19  C   UNL     1      45.218   5.062  10.761  0.00  0.00    +0.000 A 
ATOM     20  C   UNL     1      46.064   6.166  10.865  0.00  0.00    +0.000 A 
ATOM     21  C   UNL     1      45.989   6.998  11.977  0.00  0.00    +0.000 A 
ATOM     22  C   UNL     1      45.092   6.647  12.969  0.00  0.00    +0.000 A 
ATOM     23  N   UNL     1      44.246   5.583  12.895  0.00  0.00    +0.000 NA
ENDBRANCH  16  21
ENDBRANCH  13  16
ENDBRANCH   1  13
TORSDOF 4
ENDMDL
