MODEL 1
REMARK VINA RESULT:    -8.259      0.000      0.000
REMARK INTER + INTRA:         -12.316
REMARK INTER:                 -11.156
REMARK INTRA:                  -1.161
REMARK UNBOUND:                -1.161
REMARK  Name = 
REMARK  8 active torsions:
REMARK  status: ('A' for Active; 'I' for Inactive)
REMARK    1  A    between atoms: C_1  and  C_2
REMARK    2  A    between atoms: C_4  and  C_5
REMARK    3  A    between atoms: C_12  and  C_13
REMARK    4  A    between atoms: C_13  and  C_14
REMARK    5  A    between atoms: C_13  and  C_15
REMARK    6  A    between atoms: C_15  and  N_16
REMARK    7  A    between atoms: N_16  and  C_17
REMARK    8  A    between atoms: C_20  and  C_21
REMARK                            x       y       z     vdW  Elec       q    Type
REMARK                         _______ _______ _______ _____ _____    ______ ____
ROOT
ATOM      1  C   UNL     1      44.479   4.531  12.133  0.00  0.00    +0.000 C 
ATOM      2  C   UNL     1      43.438   4.286  13.233  0.00  0.00    +0.000 C 
ENDROOT
BRANCH   1   8
ATOM      3  C   UNL     1      48.475   7.621  11.815  0.00  0.00    +0.000 C 
ATOM      4  C   UNL     1      47.672   6.616  12.590  0.00  0.00    +0.000 A 
ATOM      5  C   UNL     1      48.097   6.190  13.860  0.00  0.00    +0.000 A 
ATOM      6  C   UNL     1      47.376   5.239  14.598  0.00  0.00    +0.000 A 
ATOM      7  C   UNL     1      46.206   4.723  14.008  0.00  0.00    +0.000 A 
ATOM      8  C   UNL     1      45.746   5.132  12.742  0.00  0.00    +0.000 A 
ATOM      9  C   UNL     1      46.492   6.090  12.046  0.00  0.00    +0.000 A 
BRANCH   6  10
ATOM     10  C   UNL     1      47.821   4.774  15.937  0.00  0.00    +0.000 A 
ATOM     11  C   UNL     1      48.631   5.584  16.756  0.00  0.00    +0.000 A 
ATOM     12  C   UNL     1      49.013   5.184  18.040  0.00  0.00    +0.000 A 
ATOM     13  C   UNL     1      48.611   3.948  18.531  0.00  0.00    +0.000 A 
ATOM     14  C   UNL     1      47.833   3.112  17.736  0.00  0.00    +0.000 A 
ATOM     15  C   UNL     1      47.440   3.523  16.457  0.00  0.00    +0.000 A 
ENDBRANCH   6  10
ENDBRANCH   1   8
BRANCH   1  16
ATOM     16  C   UNL     1      43.943   5.423  10.986  0.00  0.00    +0.000 C 
BRANCH  16  17
ATOM     17  N   UNL     1      43.576   4.648   9.788  0.00  0.00    +0.000 N 
ATOM     18  H   UNL     1      43.037   5.194   9.119  0.00  0.00    +0.000 HD
BRANCH  17  19
ATOM     19  C   UNL     1      44.602   3.945   9.131  0.00  0.00    +0.000 A 
ATOM     20  C   UNL     1      44.679   2.547   9.121  0.00  0.00    +0.000 A 
ATOM     21  C   UNL     1      45.667   1.892   8.386  0.00  0.00    +0.000 A 
ATOM     22  C   UNL     1      46.553   2.658   7.644  0.00  0.00    +0.000 A 
ATOM     23  N   UNL     1      46.512   4.017   7.587  0.00  0.00    +0.000 NA
ATOM     24  C   UNL     1      45.528   4.608   8.316  0.00  0.00    +0.000 A 
BRANCH  22  25
ATOM     25  C   UNL     1      47.604   1.971   6.829  0.00  0.00    +0.000 C 
ATOM     26  N   UNL     1      48.658   2.751   6.445  0.00  0.00    +0.000 N 
ATOM     27  O   UNL     1      47.531   0.789   6.517  0.00  0.00    +0.000 OA
ATOM     28  H   UNL     1      48.672   3.732   6.696  0.00  0.00    +0.000 HD
ATOM     29  H   UNL     1      49.381   2.357   5.859  0.00  0.00    +0.000 HD
ENDBRANCH  22  25
ENDBRANCH  17  19
ENDBRANCH  16  17
ENDBRANCH   1  16
TORSDOF 6
ENDMDL
MODEL 2
REMARK VINA RESULT:    -8.111      0.960      1.526
REMARK INTER + INTRA:         -12.117
REMARK INTER:                 -11.131
REMARK INTRA:                  -0.986
REMARK UNBOUND:                -1.161
REMARK  Name = 
REMARK  8 active torsions:
REMARK  status: ('A' for Active; 'I' for Inactive)
REMARK    1  A    between atoms: C_1  and  C_2
REMARK    2  A    between atoms: C_4  and  C_5
REMARK    3  A    between atoms: C_12  and  C_13
REMARK    4  A    between atoms: C_13  and  C_14
REMARK    5  A    between atoms: C_13  and  C_15
REMARK    6  A    between atoms: C_15  and  N_16
REMARK    7  A    between atoms: N_16  and  C_17
REMARK    8  A    between atoms: C_20  and  C_21
REMARK                            x       y       z     vdW  Elec       q    Type
REMARK                         _______ _______ _______ _____ _____    ______ ____
ROOT
ATOM      1  C   UNL     1      44.809   5.040  12.099  0.00  0.00    +0.000 C 
ATOM      2  C   UNL     1      43.586   5.126  13.022  0.00  0.00    +0.000 C 
ENDROOT
BRANCH   1   8
ATOM      3  C   UNL     1      48.934   7.966  12.318  0.00  0.00    +0.000 C 
ATOM      4  C   UNL     1      48.042   6.934  12.946  0.00  0.00    +0.000 A 
ATOM      5  C   UNL     1      48.362   6.382  14.198  0.00  0.00    +0.000 A 
ATOM      6  C   UNL     1      47.555   5.403  14.800  0.00  0.00    +0.000 A 
ATOM      7  C   UNL     1      46.410   4.993  14.091  0.00  0.00    +0.000 A 
ATOM      8  C   UNL     1      46.053   5.530  12.840  0.00  0.00    +0.000 A 
ATOM      9  C   UNL     1      46.882   6.510  12.282  0.00  0.00    +0.000 A 
BRANCH   6  10
ATOM     10  C   UNL     1      47.890   4.805  16.118  0.00  0.00    +0.000 A 
ATOM     11  C   UNL     1      47.405   3.535  16.485  0.00  0.00    +0.000 A 
ATOM     12  C   UNL     1      47.756   2.934  17.698  0.00  0.00    +0.000 A 
ATOM     13  C   UNL     1      48.587   3.602  18.589  0.00  0.00    +0.000 A 
ATOM     14  C   UNL     1      49.060   4.871  18.268  0.00  0.00    +0.000 A 
ATOM     15  C   UNL     1      48.719   5.462  17.046  0.00  0.00    +0.000 A 
ENDBRANCH   6  10
ENDBRANCH   1   8
BRANCH   1  16
ATOM     16  C   UNL     1      44.618   5.817  10.773  0.00  0.00    +0.000 C 
BRANCH  16  17
ATOM     17  N   UNL     1      43.909   5.028   9.751  0.00  0.00    +0.000 N 
ATOM     18  H   UNL     1      43.429   5.613   9.069  0.00  0.00    +0.000 HD
BRANCH  17  19
ATOM     19  C   UNL     1      44.630   4.011   9.101  0.00  0.00    +0.000 A 
ATOM     20  C   UNL     1      45.634   4.273   8.160  0.00  0.00    +0.000 A 
ATOM     21  C   UNL     1      46.379   3.234   7.603  0.00  0.00    +0.000 A 
ATOM     22  C   UNL     1      46.121   1.939   8.024  0.00  0.00    +0.000 A 
ATOM     23  N   UNL     1      45.182   1.620   8.956  0.00  0.00    +0.000 NA
ATOM     24  C   UNL     1      44.486   2.668   9.473  0.00  0.00    +0.000 A 
BRANCH  22  25
ATOM     25  C   UNL     1      46.928   0.814   7.456  0.00  0.00    +0.000 C 
ATOM     26  N   UNL     1      47.809   1.157   6.470  0.00  0.00    +0.000 N 
ATOM     27  O   UNL     1      46.811  -0.344   7.838  0.00  0.00    +0.000 OA
ATOM     28  H   UNL     1      47.860   2.120   6.158  0.00  0.00    +0.000 HD
ATOM     29  H   UNL     1      48.355   0.438   6.016  0.00  0.00    +0.000 HD
ENDBRANCH  22  25
ENDBRANCH  17  19
ENDBRANCH  16  17
ENDBRANCH   1  16
TORSDOF 6
ENDMDL
MODEL 3
REMARK VINA RESULT:    -7.995      3.360      8.090
REMARK INTER + INTRA:         -11.961
REMARK INTER:                 -10.901
REMARK INTRA:                  -1.059
REMARK UNBOUND:                -1.161
REMARK  Name = 
REMARK  8 active torsions:
REMARK  status: ('A' for Active; 'I' for Inactive)
REMARK    1  A    between atoms: C_1  and  C_2
REMARK    2  A    between atoms: C_4  and  C_5
REMARK    3  A    between atoms: C_12  and  C_13
REMARK    4  A    between atoms: C_13  and  C_14
REMARK    5  A    between atoms: C_13  and  C_15
REMARK    6  A    between atoms: C_15  and  N_16
REMARK    7  A    between atoms: N_16  and  C_17
REMARK    8  A    between atoms: C_20  and  C_21
REMARK                            x       y       z     vdW  Elec       q    Type
REMARK                         _______ _______ _______ _____ _____    ______ ____
ROOT
ATOM      1  C   UNL     1      45.714   6.661  10.829  0.00  0.00    +0.000 C 
ATOM      2  C   UNL     1      44.588   7.277  11.669  0.00  0.00    +0.000 C 
ENDROOT
BRANCH   1   8
ATOM      3  C   UNL     1      43.174   2.369  11.694  0.00  0.00    +0.000 C 
ATOM      4  C   UNL     1      44.121   3.166  10.844  0.00  0.00    +0.000 A 
ATOM      5  C   UNL     1      44.702   2.596   9.699  0.00  0.00    +0.000 A 
ATOM      6  C   UNL     1      45.604   3.311   8.895  0.00  0.00    +0.000 A 
ATOM      7  C   UNL     1      45.909   4.628   9.291  0.00  0.00    +0.000 A 
ATOM      8  C   UNL     1      45.340   5.234  10.427  0.00  0.00    +0.000 A 
ATOM      9  C   UNL     1      44.438   4.486  11.193  0.00  0.00    +0.000 A 
BRANCH   6  10
ATOM     10  C   UNL     1      46.232   2.715   7.688  0.00  0.00    +0.000 A 
ATOM     11  C   UNL     1      46.698   1.386   7.692  0.00  0.00    +0.000 A 
ATOM     12  C   UNL     1      47.240   0.793   6.547  0.00  0.00    +0.000 A 
ATOM     13  C   UNL     1      47.351   1.525   5.371  0.00  0.00    +0.000 A 
ATOM     14  C   UNL     1      46.925   2.849   5.343  0.00  0.00    +0.000 A 
ATOM     15  C   UNL     1      46.369   3.434   6.486  0.00  0.00    +0.000 A 
ENDBRANCH   6  10
ENDBRANCH   1   8
BRANCH   1  16
ATOM     16  C   UNL     1      47.085   6.688  11.549  0.00  0.00    +0.000 C 
BRANCH  16  17
ATOM     17  N   UNL     1      46.971   7.052  12.972  0.00  0.00    +0.000 N 
ATOM     18  H   UNL     1      46.074   7.478  13.195  0.00  0.00    +0.000 HD
BRANCH  17  19
ATOM     19  C   UNL     1      47.294   6.067  13.922  0.00  0.00    +0.000 A 
ATOM     20  C   UNL     1      48.105   6.321  15.034  0.00  0.00    +0.000 A 
ATOM     21  C   UNL     1      48.330   5.334  15.994  0.00  0.00    +0.000 A 
ATOM     22  C   UNL     1      47.708   4.105  15.834  0.00  0.00    +0.000 A 
ATOM     23  N   UNL     1      46.885   3.805  14.793  0.00  0.00    +0.000 NA
ATOM     24  C   UNL     1      46.694   4.802  13.887  0.00  0.00    +0.000 A 
BRANCH  22  25
ATOM     25  C   UNL     1      47.919   3.043  16.867  0.00  0.00    +0.000 C 
ATOM     26  N   UNL     1      46.864   2.816  17.704  0.00  0.00    +0.000 N 
ATOM     27  O   UNL     1      48.966   2.416  16.967  0.00  0.00    +0.000 OA
ATOM     28  H   UNL     1      46.023   3.372  17.611  0.00  0.00    +0.000 HD
ATOM     29  H   UNL     1      46.956   2.139  18.450  0.00  0.00    +0.000 HD
ENDBRANCH  22  25
ENDBRANCH  17  19
ENDBRANCH  16  17
ENDBRANCH   1  16
TORSDOF 6
ENDMDL
MODEL 4
REMARK VINA RESULT:    -7.960      1.200      3.866
REMARK INTER + INTRA:         -11.913
REMARK INTER:                 -10.874
REMARK INTRA:                  -1.039
REMARK UNBOUND:                -1.161
REMARK  Name = 
REMARK  8 active torsions:
REMARK  status: ('A' for Active; 'I' for Inactive)
REMARK    1  A    between atoms: C_1  and  C_2
REMARK    2  A    between atoms: C_4  and  C_5
REMARK    3  A    between atoms: C_12  and  C_13
REMARK    4  A    between atoms: C_13  and  C_14
REMARK    5  A    between atoms: C_13  and  C_15
REMARK    6  A    between atoms: C_15  and  N_16
REMARK    7  A    between atoms: N_16  and  C_17
REMARK    8  A    between atoms: C_20  and  C_21
REMARK                            x       y       z     vdW  Elec       q    Type
REMARK                         _______ _______ _______ _____ _____    ______ ____
ROOT
ATOM      1  C   UNL     1      43.999   4.687  12.095  0.00  0.00    +0.000 C 
ATOM      2  C   UNL     1      42.819   5.341  12.827  0.00  0.00    +0.000 C 
ENDROOT
BRANCH   1   8
ATOM      3  C   UNL     1      47.436   4.112  15.766  0.00  0.00    +0.000 C 
ATOM      4  C   UNL     1      46.966   4.824  14.530  0.00  0.00    +0.000 A 
ATOM      5  C   UNL     1      47.705   5.895  14.000  0.00  0.00    +0.000 A 
ATOM      6  C   UNL     1      47.280   6.590  12.857  0.00  0.00    +0.000 A 
ATOM      7  C   UNL     1      46.074   6.170  12.264  0.00  0.00    +0.000 A 
ATOM      8  C   UNL     1      45.313   5.096  12.762  0.00  0.00    +0.000 A 
ATOM      9  C   UNL     1      45.779   4.426  13.899  0.00  0.00    +0.000 A 
BRANCH   6  10
ATOM     10  C   UNL     1      48.048   7.731  12.294  0.00  0.00    +0.000 A 
ATOM     11  C   UNL     1      47.460   9.002  12.147  0.00  0.00    +0.000 A 
ATOM     12  C   UNL     1      48.185  10.098  11.671  0.00  0.00    +0.000 A 
ATOM     13  C   UNL     1      49.518   9.945  11.308  0.00  0.00    +0.000 A 
ATOM     14  C   UNL     1      50.120   8.696  11.416  0.00  0.00    +0.000 A 
ATOM     15  C   UNL     1      49.395   7.604  11.907  0.00  0.00    +0.000 A 
ENDBRANCH   6  10
ENDBRANCH   1   8
BRANCH   1  16
ATOM     16  C   UNL     1      44.025   5.015  10.582  0.00  0.00    +0.000 C 
BRANCH  16  17
ATOM     17  N   UNL     1      43.780   3.830   9.741  0.00  0.00    +0.000 N 
ATOM     18  H   UNL     1      42.946   3.925   9.165  0.00  0.00    +0.000 HD
BRANCH  17  19
ATOM     19  C   UNL     1      44.853   3.349   8.970  0.00  0.00    +0.000 A 
ATOM     20  C   UNL     1      45.220   1.999   8.937  0.00  0.00    +0.000 A 
ATOM     21  C   UNL     1      46.239   1.556   8.093  0.00  0.00    +0.000 A 
ATOM     22  C   UNL     1      46.859   2.481   7.267  0.00  0.00    +0.000 A 
ATOM     23  N   UNL     1      46.528   3.800   7.229  0.00  0.00    +0.000 NA
ATOM     24  C   UNL     1      45.527   4.182   8.066  0.00  0.00    +0.000 A 
BRANCH  22  25
ATOM     25  C   UNL     1      47.937   2.019   6.337  0.00  0.00    +0.000 C 
ATOM     26  N   UNL     1      49.028   2.836   6.244  0.00  0.00    +0.000 N 
ATOM     27  O   UNL     1      47.854   0.981   5.692  0.00  0.00    +0.000 OA
ATOM     28  H   UNL     1      49.051   3.701   6.770  0.00  0.00    +0.000 HD
ATOM     29  H   UNL     1      49.773   2.601   5.602  0.00  0.00    +0.000 HD
ENDBRANCH  22  25
ENDBRANCH  17  19
ENDBRANCH  16  17
ENDBRANCH   1  16
TORSDOF 6
ENDMDL
MODEL 5
REMARK VINA RESULT:    -7.783      3.085      5.601
REMARK INTER + INTRA:         -11.674
REMARK INTER:                 -10.692
REMARK INTRA:                  -0.982
REMARK UNBOUND:                -1.161
REMARK  Name = 
REMARK  8 active torsions:
REMARK  status: ('A' for Active; 'I' for Inactive)
REMARK    1  A    between atoms: C_1  and  C_2
REMARK    2  A    between atoms: C_4  and  C_5
REMARK    3  A    between atoms: C_12  and  C_13
REMARK    4  A    between atoms: C_13  and  C_14
REMARK    5  A    between atoms: C_13  and  C_15
REMARK    6  A    between atoms: C_15  and  N_16
REMARK    7  A    between atoms: N_16  and  C_17
REMARK    8  A    between atoms: C_20  and  C_21
REMARK                            x       y       z     vdW  Elec       q    Type
REMARK                         _______ _______ _______ _____ _____    ______ ____
ROOT
ATOM      1  C   UNL     1      45.241   5.058  11.593  0.00  0.00    +0.000 C 
ATOM      2  C   UNL     1      45.246   4.208  12.871  0.00  0.00    +0.000 C 
ENDROOT
BRANCH   1   8
ATOM      3  C   UNL     1      47.778   8.580  14.198  0.00  0.00    +0.000 C 
ATOM      4  C   UNL     1      46.714   8.220  13.201  0.00  0.00    +0.000 A 
ATOM      5  C   UNL     1      45.920   9.220  12.615  0.00  0.00    +0.000 A 
ATOM      6  C   UNL     1      44.907   8.911  11.694  0.00  0.00    +0.000 A 
ATOM      7  C   UNL     1      44.715   7.551  11.384  0.00  0.00    +0.000 A 
ATOM      8  C   UNL     1      45.498   6.524  11.945  0.00  0.00    +0.000 A 
ATOM      9  C   UNL     1      46.503   6.879  12.852  0.00  0.00    +0.000 A 
BRANCH   6  10
ATOM     10  C   UNL     1      44.054   9.959  11.076  0.00  0.00    +0.000 A 
ATOM     11  C   UNL     1      44.527  11.275  10.905  0.00  0.00    +0.000 A 
ATOM     12  C   UNL     1      43.758  12.258  10.276  0.00  0.00    +0.000 A 
ATOM     13  C   UNL     1      42.481  11.955   9.819  0.00  0.00    +0.000 A 
ATOM     14  C   UNL     1      41.974  10.672   9.997  0.00  0.00    +0.000 A 
ATOM     15  C   UNL     1      42.753   9.686  10.614  0.00  0.00    +0.000 A 
ENDBRANCH   6  10
ENDBRANCH   1   8
BRANCH   1  16
ATOM     16  C   UNL     1      43.934   4.909  10.776  0.00  0.00    +0.000 C 
BRANCH  16  17
ATOM     17  N   UNL     1      43.783   3.566  10.190  0.00  0.00    +0.000 N 
ATOM     18  H   UNL     1      42.834   3.386   9.867  0.00  0.00    +0.000 HD
BRANCH  17  19
ATOM     19  C   UNL     1      44.714   3.176   9.212  0.00  0.00    +0.000 A 
ATOM     20  C   UNL     1      45.305   4.080   8.321  0.00  0.00    +0.000 A 
ATOM     21  C   UNL     1      46.286   3.660   7.423  0.00  0.00    +0.000 A 
ATOM     22  C   UNL     1      46.681   2.331   7.453  0.00  0.00    +0.000 A 
ATOM     23  N   UNL     1      46.170   1.410   8.314  0.00  0.00    +0.000 NA
ATOM     24  C   UNL     1      45.220   1.870   9.173  0.00  0.00    +0.000 A 
BRANCH  22  25
ATOM     25  C   UNL     1      47.751   1.869   6.513  0.00  0.00    +0.000 C 
ATOM     26  N   UNL     1      48.823   2.704   6.381  0.00  0.00    +0.000 N 
ATOM     27  O   UNL     1      47.676   0.815   5.894  0.00  0.00    +0.000 OA
ATOM     28  H   UNL     1      48.840   3.581   6.886  0.00  0.00    +0.000 HD
ATOM     29  H   UNL     1      49.561   2.468   5.731  0.00  0.00    +0.000 HD
ENDBRANCH  22  25
ENDBRANCH  17  19
ENDBRANCH  16  17
ENDBRANCH   1  16
TORSDOF 6
ENDMDL
MODEL 6
REMARK VINA RESULT:    -7.576      3.558      7.706
REMARK INTER + INTRA:         -11.394
REMARK INTER:                 -10.253
REMARK INTRA:                  -1.141
REMARK UNBOUND:                -1.161
REMARK  Name = 
REMARK  8 active torsions:
REMARK  status: ('A' for Active; 'I' for Inactive)
REMARK    1  A    between atoms: C_1  and  C_2
REMARK    2  A    between atoms: C_4  and  C_5
REMARK    3  A    between atoms: C_12  and  C_13
REMARK    4  A    between atoms: C_13  and  C_14
REMARK    5  A    between atoms: C_13  and  C_15
REMARK    6  A    between atoms: C_15  and  N_16
REMARK    7  A    between atoms: N_16  and  C_17
REMARK    8  A    between atoms: C_20  and  C_21
REMARK                            x       y       z     vdW  Elec       q    Type
REMARK                         _______ _______ _______ _____ _____    ______ ____
ROOT
ATOM      1  C   UNL     1      46.512   7.943  11.606  0.00  0.00    +0.000 C 
ATOM      2  C   UNL     1      45.804   8.828  12.641  0.00  0.00    +0.000 C 
ENDROOT
BRANCH   1   8
ATOM      3  C   UNL     1      42.074   5.528  11.911  0.00  0.00    +0.000 C 
ATOM      4  C   UNL     1      43.450   5.642  11.320  0.00  0.00    +0.000 A 
ATOM      5  C   UNL     1      43.910   4.689  10.397  0.00  0.00    +0.000 A 
ATOM      6  C   UNL     1      45.198   4.760   9.842  0.00  0.00    +0.000 A 
ATOM      7  C   UNL     1      46.014   5.830  10.256  0.00  0.00    +0.000 A 
ATOM      8  C   UNL     1      45.584   6.809  11.172  0.00  0.00    +0.000 A 
ATOM      9  C   UNL     1      44.289   6.703  11.692  0.00  0.00    +0.000 A 
BRANCH   6  10
ATOM     10  C   UNL     1      45.698   3.751   8.873  0.00  0.00    +0.000 A 
ATOM     11  C   UNL     1      46.401   4.140   7.716  0.00  0.00    +0.000 A 
ATOM     12  C   UNL     1      46.926   3.200   6.824  0.00  0.00    +0.000 A 
ATOM     13  C   UNL     1      46.742   1.843   7.055  0.00  0.00    +0.000 A 
ATOM     14  C   UNL     1      46.028   1.428   8.174  0.00  0.00    +0.000 A 
ATOM     15  C   UNL     1      45.516   2.370   9.074  0.00  0.00    +0.000 A 
ENDBRANCH   6  10
ENDBRANCH   1   8
BRANCH   1  16
ATOM     16  C   UNL     1      47.863   7.383  12.117  0.00  0.00    +0.000 C 
BRANCH  16  17
ATOM     17  N   UNL     1      48.061   7.608  13.559  0.00  0.00    +0.000 N 
ATOM     18  H   UNL     1      47.450   8.335  13.928  0.00  0.00    +0.000 HD
BRANCH  17  19
ATOM     19  C   UNL     1      48.042   6.482  14.401  0.00  0.00    +0.000 A 
ATOM     20  C   UNL     1      48.583   6.489  15.692  0.00  0.00    +0.000 A 
ATOM     21  C   UNL     1      48.467   5.372  16.520  0.00  0.00    +0.000 A 
ATOM     22  C   UNL     1      47.780   4.267  16.044  0.00  0.00    +0.000 A 
ATOM     23  N   UNL     1      47.205   4.208  14.812  0.00  0.00    +0.000 NA
ATOM     24  C   UNL     1      47.341   5.323  14.044  0.00  0.00    +0.000 A 
BRANCH  22  25
ATOM     25  C   UNL     1      47.624   3.069  16.928  0.00  0.00    +0.000 C 
ATOM     26  N   UNL     1      48.697   2.225  16.974  0.00  0.00    +0.000 N 
ATOM     27  O   UNL     1      46.604   2.848  17.569  0.00  0.00    +0.000 OA
ATOM     28  H   UNL     1      49.514   2.423  16.410  0.00  0.00    +0.000 HD
ATOM     29  H   UNL     1      48.640   1.377  17.521  0.00  0.00    +0.000 HD
ENDBRANCH  22  25
ENDBRANCH  17  19
ENDBRANCH  16  17
ENDBRANCH   1  16
TORSDOF 6
ENDMDL
MODEL 7
REMARK VINA RESULT:    -7.556      2.512      4.312
REMARK INTER + INTRA:         -11.368
REMARK INTER:                 -10.261
REMARK INTRA:                  -1.107
REMARK UNBOUND:                -1.161
REMARK  Name = 
REMARK  8 active torsions:
REMARK  status: ('A' for Active; 'I' for Inactive)
REMARK    1  A    between atoms: C_1  and  C_2
REMARK    2  A    between atoms: C_4  and  C_5
REMARK    3  A    between atoms: C_12  and  C_13
REMARK    4  A    between atoms: C_13  and  C_14
REMARK    5  A    between atoms: C_13  and  C_15
REMARK    6  A    between atoms: C_15  and  N_16
REMARK    7  A    between atoms: N_16  and  C_17
REMARK    8  A    between atoms: C_20  and  C_21
REMARK                            x       y       z     vdW  Elec       q    Type
REMARK                         _______ _______ _______ _____ _____    ______ ____
ROOT
ATOM      1  C   UNL     1      45.604   5.037  11.829  0.00  0.00    +0.000 C 
ATOM      2  C   UNL     1      45.887   4.386  13.190  0.00  0.00    +0.000 C 
ENDROOT
BRANCH   1   8
ATOM      3  C   UNL     1      44.288   9.915  12.129  0.00  0.00    +0.000 C 
ATOM      4  C   UNL     1      45.356   8.866  12.013  0.00  0.00    +0.000 A 
ATOM      5  C   UNL     1      46.707   9.233  11.902  0.00  0.00    +0.000 A 
ATOM      6  C   UNL     1      47.724   8.273  11.774  0.00  0.00    +0.000 A 
ATOM      7  C   UNL     1      47.330   6.921  11.755  0.00  0.00    +0.000 A 
ATOM      8  C   UNL     1      45.987   6.517  11.873  0.00  0.00    +0.000 A 
ATOM      9  C   UNL     1      45.008   7.507  12.008  0.00  0.00    +0.000 A 
BRANCH   6  10
ATOM     10  C   UNL     1      49.155   8.651  11.646  0.00  0.00    +0.000 A 
ATOM     11  C   UNL     1      50.174   7.682  11.732  0.00  0.00    +0.000 A 
ATOM     12  C   UNL     1      51.521   8.013  11.558  0.00  0.00    +0.000 A 
ATOM     13  C   UNL     1      51.887   9.330  11.315  0.00  0.00    +0.000 A 
ATOM     14  C   UNL     1      50.907  10.316  11.251  0.00  0.00    +0.000 A 
ATOM     15  C   UNL     1      49.558   9.978  11.411  0.00  0.00    +0.000 A 
ENDBRANCH   6  10
ENDBRANCH   1   8
BRANCH   1  16
ATOM     16  C   UNL     1      44.135   4.862  11.372  0.00  0.00    +0.000 C 
BRANCH  16  17
ATOM     17  N   UNL     1      43.997   4.834   9.906  0.00  0.00    +0.000 N 
ATOM     18  H   UNL     1      43.940   5.767   9.501  0.00  0.00    +0.000 HD
BRANCH  17  19
ATOM     19  C   UNL     1      44.908   4.043   9.183  0.00  0.00    +0.000 A 
ATOM     20  C   UNL     1      44.915   2.645   9.245  0.00  0.00    +0.000 A 
ATOM     21  C   UNL     1      45.782   1.899   8.446  0.00  0.00    +0.000 A 
ATOM     22  C   UNL     1      46.617   2.576   7.570  0.00  0.00    +0.000 A 
ATOM     23  N   UNL     1      46.637   3.931   7.440  0.00  0.00    +0.000 NA
ATOM     24  C   UNL     1      45.769   4.612   8.236  0.00  0.00    +0.000 A 
BRANCH  22  25
ATOM     25  C   UNL     1      47.536   1.791   6.688  0.00  0.00    +0.000 C 
ATOM     26  N   UNL     1      48.584   2.489   6.156  0.00  0.00    +0.000 N 
ATOM     27  O   UNL     1      47.367   0.603   6.447  0.00  0.00    +0.000 OA
ATOM     28  H   UNL     1      48.678   3.477   6.353  0.00  0.00    +0.000 HD
ATOM     29  H   UNL     1      49.218   2.026   5.519  0.00  0.00    +0.000 HD
ENDBRANCH  22  25
ENDBRANCH  17  19
ENDBRANCH  16  17
ENDBRANCH   1  16
TORSDOF 6
ENDMDL
MODEL 8
REMARK VINA RESULT:    -7.011      4.144      7.529
REMARK INTER + INTRA:         -10.631
REMARK INTER:                  -9.187
REMARK INTRA:                  -1.443
REMARK UNBOUND:                -1.161
REMARK  Name = 
REMARK  8 active torsions:
REMARK  status: ('A' for Active; 'I' for Inactive)
REMARK    1  A    between atoms: C_1  and  C_2
REMARK    2  A    between atoms: C_4  and  C_5
REMARK    3  A    between atoms: C_12  and  C_13
REMARK    4  A    between atoms: C_13  and  C_14
REMARK    5  A    between atoms: C_13  and  C_15
REMARK    6  A    between atoms: C_15  and  N_16
REMARK    7  A    between atoms: N_16  and  C_17
REMARK    8  A    between atoms: C_20  and  C_21
REMARK                            x       y       z     vdW  Elec       q    Type
REMARK                         _______ _______ _______ _____ _____    ______ ____
ROOT
ATOM      1  C   UNL     1      49.175   8.005  11.894  0.00  0.00    +0.000 C 
ATOM      2  C   UNL     1      49.632   9.468  11.823  0.00  0.00    +0.000 C 
ENDROOT
BRANCH   1   8
ATOM      3  C   UNL     1      44.654  10.278  12.026  0.00  0.00    +0.000 C 
ATOM      4  C   UNL     1      45.472   9.025  11.892  0.00  0.00    +0.000 A 
ATOM      5  C   UNL     1      44.845   7.777  11.744  0.00  0.00    +0.000 A 
ATOM      6  C   UNL     1      45.584   6.588  11.634  0.00  0.00    +0.000 A 
ATOM      7  C   UNL     1      46.987   6.700  11.686  0.00  0.00    +0.000 A 
ATOM      8  C   UNL     1      47.649   7.934  11.825  0.00  0.00    +0.000 A 
ATOM      9  C   UNL     1      46.872   9.094  11.920  0.00  0.00    +0.000 A 
BRANCH   6  10
ATOM     10  C   UNL     1      44.931   5.262  11.487  0.00  0.00    +0.000 A 
ATOM     11  C   UNL     1      44.298   4.638  12.580  0.00  0.00    +0.000 A 
ATOM     12  C   UNL     1      43.632   3.416  12.445  0.00  0.00    +0.000 A 
ATOM     13  C   UNL     1      43.599   2.774  11.214  0.00  0.00    +0.000 A 
ATOM     14  C   UNL     1      44.238   3.352  10.121  0.00  0.00    +0.000 A 
ATOM     15  C   UNL     1      44.892   4.582  10.256  0.00  0.00    +0.000 A 
ENDBRANCH   6  10
ENDBRANCH   1   8
BRANCH   1  16
ATOM     16  C   UNL     1      49.703   7.270  13.151  0.00  0.00    +0.000 C 
BRANCH  16  17
ATOM     17  N   UNL     1      48.972   7.643  14.374  0.00  0.00    +0.000 N 
ATOM     18  H   UNL     1      48.212   8.296  14.191  0.00  0.00    +0.000 HD
BRANCH  17  19
ATOM     19  C   UNL     1      48.530   6.601  15.209  0.00  0.00    +0.000 A 
ATOM     20  C   UNL     1      47.673   5.585  14.769  0.00  0.00    +0.000 A 
ATOM     21  C   UNL     1      47.329   4.527  15.611  0.00  0.00    +0.000 A 
ATOM     22  C   UNL     1      47.879   4.491  16.883  0.00  0.00    +0.000 A 
ATOM     23  N   UNL     1      48.741   5.430  17.360  0.00  0.00    +0.000 NA
ATOM     24  C   UNL     1      49.049   6.438  16.500  0.00  0.00    +0.000 A 
BRANCH  22  25
ATOM     25  C   UNL     1      47.540   3.350  17.790  0.00  0.00    +0.000 C 
ATOM     26  N   UNL     1      48.385   3.164  18.847  0.00  0.00    +0.000 N 
ATOM     27  O   UNL     1      46.574   2.621  17.603  0.00  0.00    +0.000 OA
ATOM     28  H   UNL     1      49.190   3.769  18.956  0.00  0.00    +0.000 HD
ATOM     29  H   UNL     1      48.234   2.386  19.474  0.00  0.00    +0.000 HD
ENDBRANCH  22  25
ENDBRANCH  17  19
ENDBRANCH  16  17
ENDBRANCH   1  16
TORSDOF 6
ENDMDL
MODEL 9
REMARK VINA RESULT:    -6.694      2.814      4.578
REMARK INTER + INTRA:         -10.202
REMARK INTER:                  -8.930
REMARK INTRA:                  -1.272
REMARK UNBOUND:                -1.161
REMARK  Name = 
REMARK  8 active torsions:
REMARK  status: ('A' for Active; 'I' for Inactive)
REMARK    1  A    between atoms: C_1  and  C_2
REMARK    2  A    between atoms: C_4  and  C_5
REMARK    3  A    between atoms: C_12  and  C_13
REMARK    4  A    between atoms: C_13  and  C_14
REMARK    5  A    between atoms: C_13  and  C_15
REMARK    6  A    between atoms: C_15  and  N_16
REMARK    7  A    between atoms: N_16  and  C_17
REMARK    8  A    between atoms: C_20  and  C_21
REMARK                            x       y       z     vdW  Elec       q    Type
REMARK                         _______ _______ _______ _____ _____    ______ ____
ROOT
ATOM      1  C   UNL     1      48.524   8.537  12.850  0.00  0.00    +0.000 C 
ATOM      2  C   UNL     1      49.332   7.469  12.102  0.00  0.00    +0.000 C 
ENDROOT
BRANCH   1   8
ATOM      3  C   UNL     1      48.429  10.238  17.617  0.00  0.00    +0.000 C 
ATOM      4  C   UNL     1      48.548   9.094  16.651  0.00  0.00    +0.000 A 
ATOM      5  C   UNL     1      48.760   7.786  17.117  0.00  0.00    +0.000 A 
ATOM      6  C   UNL     1      48.893   6.701  16.236  0.00  0.00    +0.000 A 
ATOM      7  C   UNL     1      48.810   6.982  14.858  0.00  0.00    +0.000 A 
ATOM      8  C   UNL     1      48.589   8.278  14.356  0.00  0.00    +0.000 A 
ATOM      9  C   UNL     1      48.453   9.327  15.271  0.00  0.00    +0.000 A 
BRANCH   6  10
ATOM     10  C   UNL     1      49.128   5.316  16.718  0.00  0.00    +0.000 A 
ATOM     11  C   UNL     1      48.110   4.344  16.662  0.00  0.00    +0.000 A 
ATOM     12  C   UNL     1      48.332   3.022  17.060  0.00  0.00    +0.000 A 
ATOM     13  C   UNL     1      49.577   2.642  17.547  0.00  0.00    +0.000 A 
ATOM     14  C   UNL     1      50.595   3.586  17.640  0.00  0.00    +0.000 A 
ATOM     15  C   UNL     1      50.374   4.905  17.226  0.00  0.00    +0.000 A 
ENDBRANCH   6  10
ENDBRANCH   1   8
BRANCH   1  16
ATOM     16  C   UNL     1      47.054   8.625  12.370  0.00  0.00    +0.000 C 
BRANCH  16  17
ATOM     17  N   UNL     1      46.136   7.832  13.208  0.00  0.00    +0.000 N 
ATOM     18  H   UNL     1      45.343   8.377  13.541  0.00  0.00    +0.000 HD
BRANCH  17  19
ATOM     19  C   UNL     1      45.701   6.595  12.701  0.00  0.00    +0.000 A 
ATOM     20  C   UNL     1      45.858   5.391  13.398  0.00  0.00    +0.000 A 
ATOM     21  C   UNL     1      45.336   4.200  12.893  0.00  0.00    +0.000 A 
ATOM     22  C   UNL     1      44.633   4.243  11.698  0.00  0.00    +0.000 A 
ATOM     23  N   UNL     1      44.419   5.384  10.989  0.00  0.00    +0.000 NA
ATOM     24  C   UNL     1      44.944   6.519  11.525  0.00  0.00    +0.000 A 
BRANCH  22  25
ATOM     25  C   UNL     1      44.045   2.979  11.154  0.00  0.00    +0.000 C 
ATOM     26  N   UNL     1      44.767   2.367  10.170  0.00  0.00    +0.000 N 
ATOM     27  O   UNL     1      42.983   2.519  11.554  0.00  0.00    +0.000 OA
ATOM     28  H   UNL     1      45.627   2.790   9.844  0.00  0.00    +0.000 HD
ATOM     29  H   UNL     1      44.404   1.531   9.732  0.00  0.00    +0.000 HD
ENDBRANCH  22  25
ENDBRANCH  17  19
ENDBRANCH  16  17
ENDBRANCH   1  16
TORSDOF 6
ENDMDL
