MODEL 1
REMARK VINA RESULT:    -8.138      0.000      0.000
REMARK INTER + INTRA:         -11.818
REMARK INTER:                 -10.992
REMARK INTRA:                  -0.826
REMARK UNBOUND:                -0.826
REMARK  Name = 
REMARK  7 active torsions:
REMARK  status: ('A' for Active; 'I' for Inactive)
REMARK    1  A    between atoms: C_1  and  N_2
REMARK    2  A    between atoms: C_4  and  C_5
REMARK    3  A    between atoms: N_7  and  C_8
REMARK    4  A    between atoms: C_8  and  C_9
REMARK    5  A    between atoms: C_12  and  O_13
REMARK    6  A    between atoms: O_13  and  C_14
REMARK    7  A    between atoms: C_14  and  C_15
REMARK                            x       y       z     vdW  Elec       q    Type
REMARK                         _______ _______ _______ _____ _____    ______ ____
ROOT
ATOM      1  C   UNL     1      46.902   4.407  14.366  0.00  0.00    +0.000 C 
ATOM      2  O   UNL     1      47.085   3.253  13.998  0.00  0.00    +0.000 OA
ATOM      3  N   UNL     1      45.733   5.076  14.057  0.00  0.00    +0.000 N 
ATOM      4  H   UNL     1      45.620   6.028  14.388  0.00  0.00    +0.000 HD
ENDROOT
BRANCH   1   8
ATOM      5  C   UNL     1      50.219   7.795  15.404  0.00  0.00    +0.000 C 
ATOM      6  N   UNL     1      49.341   6.664  15.596  0.00  0.00    +0.000 N 
ATOM      7  N   UNL     1      48.539   6.226  14.603  0.00  0.00    +0.000 NA
ATOM      8  C   UNL     1      47.886   5.172  15.151  0.00  0.00    +0.000 A 
ATOM      9  C   UNL     1      48.292   4.955  16.508  0.00  0.00    +0.000 A 
ATOM     10  C   UNL     1      48.058   4.120  17.595  0.00  0.00    +0.000 A 
ATOM     11 CL   UNL     1      46.954   2.841  17.541  0.00  0.00    +0.000 Cl
ATOM     12  N   UNL     1      48.702   4.280  18.765  0.00  0.00    +0.000 NA
ATOM     13  C   UNL     1      49.584   5.282  18.849  0.00  0.00    +0.000 A 
ATOM     14  N   UNL     1      49.910   6.162  17.891  0.00  0.00    +0.000 NA
ATOM     15  C   UNL     1      49.231   5.943  16.749  0.00  0.00    +0.000 A 
ENDBRANCH   1   8
BRANCH   3  16
ATOM     16  C   UNL     1      44.723   4.390  13.294  0.00  0.00    +0.000 C 
BRANCH  16  17
ATOM     17  C   UNL     1      44.934   4.456  11.810  0.00  0.00    +0.000 A 
ATOM     18  C   UNL     1      45.493   5.602  11.227  0.00  0.00    +0.000 A 
ATOM     19  C   UNL     1      45.749   5.654   9.853  0.00  0.00    +0.000 A 
ATOM     20  C   UNL     1      45.441   4.561   9.048  0.00  0.00    +0.000 A 
ATOM     21  C   UNL     1      44.875   3.421   9.622  0.00  0.00    +0.000 A 
ATOM     22  C   UNL     1      44.619   3.365  10.992  0.00  0.00    +0.000 A 
BRANCH  20  23
ATOM     23  O   UNL     1      45.629   4.470   7.703  0.00  0.00    +0.000 OA
BRANCH  23  24
ATOM     24  C   UNL     1      46.871   3.949   7.233  0.00  0.00    +0.000 C 
BRANCH  24  25
ATOM     25  C   UNL     1      46.561   2.629   6.517  0.00  0.00    +0.000 C 
ATOM     26  C   UNL     1      47.270   1.449   7.207  0.00  0.00    +0.000 C 
ATOM     27  C   UNL     1      46.991   0.133   6.490  0.00  0.00    +0.000 C 
ATOM     28  C   UNL     1      47.364   0.214   5.013  0.00  0.00    +0.000 C 
ATOM     29  C   UNL     1      46.665   1.381   4.322  0.00  0.00    +0.000 C 
ATOM     30  C   UNL     1      46.940   2.703   5.034  0.00  0.00    +0.000 C 
ENDBRANCH  24  25
ENDBRANCH  23  24
ENDBRANCH  20  23
ENDBRANCH  16  17
ENDBRANCH   3  16
TORSDOF 6
ENDMDL
MODEL 2
REMARK VINA RESULT:    -7.898      1.741      2.824
REMARK INTER + INTRA:         -11.494
REMARK INTER:                 -10.521
REMARK INTRA:                  -0.973
REMARK UNBOUND:                -0.826
REMARK  Name = 
REMARK  7 active torsions:
REMARK  status: ('A' for Active; 'I' for Inactive)
REMARK    1  A    between atoms: C_1  and  N_2
REMARK    2  A    between atoms: C_4  and  C_5
REMARK    3  A    between atoms: N_7  and  C_8
REMARK    4  A    between atoms: C_8  and  C_9
REMARK    5  A    between atoms: C_12  and  O_13
REMARK    6  A    between atoms: O_13  and  C_14
REMARK    7  A    between atoms: C_14  and  C_15
REMARK                            x       y       z     vdW  Elec       q    Type
REMARK                         _______ _______ _______ _____ _____    ______ ____
ROOT
ATOM      1  C   UNL     1      48.968   6.892  15.185  0.00  0.00    +0.000 C 
ATOM      2  O   UNL     1      49.898   6.922  14.388  0.00  0.00    +0.000 OA
ATOM      3  N   UNL     1      47.683   7.211  14.792  0.00  0.00    +0.000 N 
ATOM      4  H   UNL     1      46.942   7.166  15.482  0.00  0.00    +0.000 HD
ENDROOT
BRANCH   1   8
ATOM      5  C   UNL     1      50.193   7.319  19.862  0.00  0.00    +0.000 C 
ATOM      6  N   UNL     1      49.671   6.722  18.654  0.00  0.00    +0.000 N 
ATOM      7  N   UNL     1      49.687   7.393  17.482  0.00  0.00    +0.000 NA
ATOM      8  C   UNL     1      49.129   6.525  16.602  0.00  0.00    +0.000 A 
ATOM      9  C   UNL     1      48.760   5.298  17.243  0.00  0.00    +0.000 A 
ATOM     10  C   UNL     1      48.184   4.061  16.977  0.00  0.00    +0.000 A 
ATOM     11 CL   UNL     1      47.653   3.614  15.435  0.00  0.00    +0.000 Cl
ATOM     12  N   UNL     1      48.013   3.135  17.938  0.00  0.00    +0.000 NA
ATOM     13  C   UNL     1      48.419   3.450  19.173  0.00  0.00    +0.000 A 
ATOM     14  N   UNL     1      48.987   4.596  19.577  0.00  0.00    +0.000 NA
ATOM     15  C   UNL     1      49.129   5.474  18.565  0.00  0.00    +0.000 A 
ENDBRANCH   1   8
BRANCH   3  16
ATOM     16  C   UNL     1      47.449   7.577  13.419  0.00  0.00    +0.000 C 
BRANCH  16  17
ATOM     17  C   UNL     1      46.710   6.535  12.631  0.00  0.00    +0.000 A 
ATOM     18  C   UNL     1      46.114   5.447  13.284  0.00  0.00    +0.000 A 
ATOM     19  C   UNL     1      45.373   4.501  12.569  0.00  0.00    +0.000 A 
ATOM     20  C   UNL     1      45.230   4.631  11.190  0.00  0.00    +0.000 A 
ATOM     21  C   UNL     1      45.830   5.707  10.533  0.00  0.00    +0.000 A 
ATOM     22  C   UNL     1      46.569   6.653  11.244  0.00  0.00    +0.000 A 
BRANCH  20  23
ATOM     23  O   UNL     1      44.545   3.791  10.367  0.00  0.00    +0.000 OA
BRANCH  23  24
ATOM     24  C   UNL     1      44.315   4.207   9.023  0.00  0.00    +0.000 C 
BRANCH  24  25
ATOM     25  C   UNL     1      44.996   3.179   8.111  0.00  0.00    +0.000 C 
ATOM     26  C   UNL     1      45.470   1.956   8.917  0.00  0.00    +0.000 C 
ATOM     27  C   UNL     1      46.172   0.938   8.026  0.00  0.00    +0.000 C 
ATOM     28  C   UNL     1      47.325   1.573   7.256  0.00  0.00    +0.000 C 
ATOM     29  C   UNL     1      46.863   2.785   6.453  0.00  0.00    +0.000 C 
ATOM     30  C   UNL     1      46.159   3.811   7.339  0.00  0.00    +0.000 C 
ENDBRANCH  24  25
ENDBRANCH  23  24
ENDBRANCH  20  23
ENDBRANCH  16  17
ENDBRANCH   3  16
TORSDOF 6
ENDMDL
MODEL 3
REMARK VINA RESULT:    -7.841      2.144      3.146
REMARK INTER + INTRA:         -11.418
REMARK INTER:                 -10.605
REMARK INTRA:                  -0.812
REMARK UNBOUND:                -0.826
REMARK  Name = 
REMARK  7 active torsions:
REMARK  status: ('A' for Active; 'I' for Inactive)
REMARK    1  A    between atoms: C_1  and  N_2
REMARK    2  A    between atoms: C_4  and  C_5
REMARK    3  A    between atoms: N_7  and  C_8
REMARK    4  A    between atoms: C_8  and  C_9
REMARK    5  A    between atoms: C_12  and  O_13
REMARK    6  A    between atoms: O_13  and  C_14
REMARK    7  A    between atoms: C_14  and  C_15
REMARK                            x       y       z     vdW  Elec       q    Type
REMARK                         _______ _______ _______ _____ _____    ______ ____
ROOT
ATOM      1  C   UNL     1      48.759   6.927  15.853  0.00  0.00    +0.000 C 
ATOM      2  O   UNL     1      48.846   8.147  15.783  0.00  0.00    +0.000 OA
ATOM      3  N   UNL     1      48.082   6.205  14.890  0.00  0.00    +0.000 N 
ATOM      4  H   UNL     1      48.041   5.197  14.983  0.00  0.00    +0.000 HD
ENDROOT
BRANCH   1   8
ATOM      5  C   UNL     1      51.492   3.567  18.043  0.00  0.00    +0.000 C 
ATOM      6  N   UNL     1      50.554   4.656  17.897  0.00  0.00    +0.000 N 
ATOM      7  N   UNL     1      50.243   5.149  16.679  0.00  0.00    +0.000 NA
ATOM      8  C   UNL     1      49.351   6.135  16.945  0.00  0.00    +0.000 A 
ATOM      9  C   UNL     1      49.109   6.255  18.352  0.00  0.00    +0.000 A 
ATOM     10  C   UNL     1      48.373   6.992  19.272  0.00  0.00    +0.000 A 
ATOM     11 CL   UNL     1      47.325   8.237  18.813  0.00  0.00    +0.000 Cl
ATOM     12  N   UNL     1      48.448   6.757  20.595  0.00  0.00    +0.000 NA
ATOM     13  C   UNL     1      49.268   5.781  20.999  0.00  0.00    +0.000 A 
ATOM     14  N   UNL     1      50.036   4.992  20.233  0.00  0.00    +0.000 NA
ATOM     15  C   UNL     1      49.909   5.280  18.924  0.00  0.00    +0.000 A 
ENDBRANCH   1   8
BRANCH   3  16
ATOM     16  C   UNL     1      47.480   6.913  13.789  0.00  0.00    +0.000 C 
BRANCH  16  17
ATOM     17  C   UNL     1      46.714   6.031  12.848  0.00  0.00    +0.000 A 
ATOM     18  C   UNL     1      46.246   4.780  13.275  0.00  0.00    +0.000 A 
ATOM     19  C   UNL     1      45.480   3.974  12.427  0.00  0.00    +0.000 A 
ATOM     20  C   UNL     1      45.183   4.409  11.139  0.00  0.00    +0.000 A 
ATOM     21  C   UNL     1      45.655   5.649  10.704  0.00  0.00    +0.000 A 
ATOM     22  C   UNL     1      46.418   6.457  11.548  0.00  0.00    +0.000 A 
BRANCH  20  23
ATOM     23  O   UNL     1      44.457   3.735  10.206  0.00  0.00    +0.000 OA
BRANCH  23  24
ATOM     24  C   UNL     1      44.435   4.244   8.874  0.00  0.00    +0.000 C 
BRANCH  24  25
ATOM     25  C   UNL     1      45.137   3.210   7.986  0.00  0.00    +0.000 C 
ATOM     26  C   UNL     1      45.564   1.979   8.806  0.00  0.00    +0.000 C 
ATOM     27  C   UNL     1      46.286   0.954   7.939  0.00  0.00    +0.000 C 
ATOM     28  C   UNL     1      47.477   1.576   7.217  0.00  0.00    +0.000 C 
ATOM     29  C   UNL     1      47.062   2.797   6.402  0.00  0.00    +0.000 C 
ATOM     30  C   UNL     1      46.338   3.829   7.263  0.00  0.00    +0.000 C 
ENDBRANCH  24  25
ENDBRANCH  23  24
ENDBRANCH  20  23
ENDBRANCH  16  17
ENDBRANCH   3  16
TORSDOF 6
ENDMDL
MODEL 4
REMARK VINA RESULT:    -7.819      2.589      3.882
REMARK INTER + INTRA:         -11.387
REMARK INTER:                 -10.489
REMARK INTRA:                  -0.898
REMARK UNBOUND:                -0.826
REMARK  Name = 
REMARK  7 active torsions:
REMARK  status: ('A' for Active; 'I' for Inactive)
REMARK    1  A    between atoms: C_1  and  N_2
REMARK    2  A    between atoms: C_4  and  C_5
REMARK    3  A    between atoms: N_7  and  C_8
REMARK    4  A    between atoms: C_8  and  C_9
REMARK    5  A    between atoms: C_12  and  O_13
REMARK    6  A    between atoms: O_13  and  C_14
REMARK    7  A    between atoms: C_14  and  C_15
REMARK                            x       y       z     vdW  Elec       q    Type
REMARK                         _______ _______ _______ _____ _____    ______ ____
ROOT
ATOM      1  C   UNL     1      49.134   6.356  16.371  0.00  0.00    +0.000 C 
ATOM      2  O   UNL     1      50.270   6.244  15.927  0.00  0.00    +0.000 OA
ATOM      3  N   UNL     1      48.056   6.545  15.529  0.00  0.00    +0.000 N 
ATOM      4  H   UNL     1      47.132   6.626  15.939  0.00  0.00    +0.000 HD
ENDROOT
BRANCH   1   8
ATOM      5  C   UNL     1      48.714   4.536  20.851  0.00  0.00    +0.000 C 
ATOM      6  N   UNL     1      48.639   5.494  19.772  0.00  0.00    +0.000 N 
ATOM      7  N   UNL     1      49.042   5.174  18.525  0.00  0.00    +0.000 NA
ATOM      8  C   UNL     1      48.819   6.303  17.809  0.00  0.00    +0.000 A 
ATOM      9  C   UNL     1      48.269   7.341  18.630  0.00  0.00    +0.000 A 
ATOM     10  C   UNL     1      47.828   8.658  18.572  0.00  0.00    +0.000 A 
ATOM     11 CL   UNL     1      47.848   9.564  17.144  0.00  0.00    +0.000 Cl
ATOM     12  N   UNL     1      47.353   9.297  19.656  0.00  0.00    +0.000 NA
ATOM     13  C   UNL     1      47.321   8.615  20.806  0.00  0.00    +0.000 A 
ATOM     14  N   UNL     1      47.711   7.349  21.013  0.00  0.00    +0.000 NA
ATOM     15  C   UNL     1      48.172   6.770  19.888  0.00  0.00    +0.000 A 
ENDBRANCH   1   8
BRANCH   3  16
ATOM     16  C   UNL     1      48.287   6.604  14.109  0.00  0.00    +0.000 C 
BRANCH  16  17
ATOM     17  C   UNL     1      47.240   5.904  13.294  0.00  0.00    +0.000 A 
ATOM     18  C   UNL     1      46.749   6.492  12.120  0.00  0.00    +0.000 A 
ATOM     19  C   UNL     1      45.817   5.824  11.320  0.00  0.00    +0.000 A 
ATOM     20  C   UNL     1      45.361   4.563  11.694  0.00  0.00    +0.000 A 
ATOM     21  C   UNL     1      45.838   3.977  12.867  0.00  0.00    +0.000 A 
ATOM     22  C   UNL     1      46.769   4.640  13.667  0.00  0.00    +0.000 A 
BRANCH  20  23
ATOM     23  O   UNL     1      44.456   3.799  11.021  0.00  0.00    +0.000 OA
BRANCH  23  24
ATOM     24  C   UNL     1      43.972   4.279   9.768  0.00  0.00    +0.000 C 
BRANCH  24  25
ATOM     25  C   UNL     1      44.676   3.468   8.674  0.00  0.00    +0.000 C 
ATOM     26  C   UNL     1      45.194   2.128   9.228  0.00  0.00    +0.000 C 
ATOM     27  C   UNL     1      45.919   1.323   8.155  0.00  0.00    +0.000 C 
ATOM     28  C   UNL     1      47.045   2.131   7.519  0.00  0.00    +0.000 C 
ATOM     29  C   UNL     1      46.539   3.460   6.967  0.00  0.00    +0.000 C 
ATOM     30  C   UNL     1      45.813   4.273   8.036  0.00  0.00    +0.000 C 
ENDBRANCH  24  25
ENDBRANCH  23  24
ENDBRANCH  20  23
ENDBRANCH  16  17
ENDBRANCH   3  16
TORSDOF 6
ENDMDL
MODEL 5
REMARK VINA RESULT:    -7.696      2.234      3.471
REMARK INTER + INTRA:         -11.221
REMARK INTER:                 -10.327
REMARK INTRA:                  -0.894
REMARK UNBOUND:                -0.826
REMARK  Name = 
REMARK  7 active torsions:
REMARK  status: ('A' for Active; 'I' for Inactive)
REMARK    1  A    between atoms: C_1  and  N_2
REMARK    2  A    between atoms: C_4  and  C_5
REMARK    3  A    between atoms: N_7  and  C_8
REMARK    4  A    between atoms: C_8  and  C_9
REMARK    5  A    between atoms: C_12  and  O_13
REMARK    6  A    between atoms: O_13  and  C_14
REMARK    7  A    between atoms: C_14  and  C_15
REMARK                            x       y       z     vdW  Elec       q    Type
REMARK                         _______ _______ _______ _____ _____    ______ ____
ROOT
ATOM      1  C   UNL     1      48.938   6.613  16.429  0.00  0.00    +0.000 C 
ATOM      2  O   UNL     1      49.932   5.956  16.147  0.00  0.00    +0.000 OA
ATOM      3  N   UNL     1      48.114   7.118  15.443  0.00  0.00    +0.000 N 
ATOM      4  H   UNL     1      47.297   7.650  15.721  0.00  0.00    +0.000 HD
ENDROOT
BRANCH   1   8
ATOM      5  C   UNL     1      47.362   9.205  20.218  0.00  0.00    +0.000 C 
ATOM      6  N   UNL     1      47.844   8.067  19.471  0.00  0.00    +0.000 N 
ATOM      7  N   UNL     1      48.114   8.163  18.152  0.00  0.00    +0.000 NA
ATOM      8  C   UNL     1      48.537   6.920  17.813  0.00  0.00    +0.000 A 
ATOM      9  C   UNL     1      48.526   6.040  18.944  0.00  0.00    +0.000 A 
ATOM     10  C   UNL     1      48.808   4.728  19.306  0.00  0.00    +0.000 A 
ATOM     11 CL   UNL     1      49.377   3.580  18.203  0.00  0.00    +0.000 Cl
ATOM     12  N   UNL     1      48.647   4.288  20.567  0.00  0.00    +0.000 NA
ATOM     13  C   UNL     1      48.197   5.165  21.471  0.00  0.00    +0.000 A 
ATOM     14  N   UNL     1      47.884   6.453  21.269  0.00  0.00    +0.000 NA
ATOM     15  C   UNL     1      48.071   6.826  19.989  0.00  0.00    +0.000 A 
ENDBRANCH   1   8
BRANCH   3  16
ATOM     16  C   UNL     1      48.442   6.855  14.065  0.00  0.00    +0.000 C 
BRANCH  16  17
ATOM     17  C   UNL     1      47.351   6.162  13.304  0.00  0.00    +0.000 A 
ATOM     18  C   UNL     1      46.780   6.769  12.177  0.00  0.00    +0.000 A 
ATOM     19  C   UNL     1      45.804   6.109  11.423  0.00  0.00    +0.000 A 
ATOM     20  C   UNL     1      45.384   4.836  11.798  0.00  0.00    +0.000 A 
ATOM     21  C   UNL     1      45.941   4.230  12.925  0.00  0.00    +0.000 A 
ATOM     22  C   UNL     1      46.916   4.886  13.679  0.00  0.00    +0.000 A 
BRANCH  20  23
ATOM     23  O   UNL     1      44.445   4.077  11.168  0.00  0.00    +0.000 OA
BRANCH  23  24
ATOM     24  C   UNL     1      43.961   4.522   9.903  0.00  0.00    +0.000 C 
BRANCH  24  25
ATOM     25  C   UNL     1      44.544   3.581   8.842  0.00  0.00    +0.000 C 
ATOM     26  C   UNL     1      44.972   2.242   9.470  0.00  0.00    +0.000 C 
ATOM     27  C   UNL     1      45.578   1.306   8.430  0.00  0.00    +0.000 C 
ATOM     28  C   UNL     1      46.739   1.968   7.694  0.00  0.00    +0.000 C 
ATOM     29  C   UNL     1      46.322   3.295   7.069  0.00  0.00    +0.000 C 
ATOM     30  C   UNL     1      45.715   4.239   8.105  0.00  0.00    +0.000 C 
ENDBRANCH  24  25
ENDBRANCH  23  24
ENDBRANCH  20  23
ENDBRANCH  16  17
ENDBRANCH   3  16
TORSDOF 6
ENDMDL
MODEL 6
REMARK VINA RESULT:    -7.666      3.038      4.517
REMARK INTER + INTRA:         -11.181
REMARK INTER:                 -10.105
REMARK INTRA:                  -1.075
REMARK UNBOUND:                -0.826
REMARK  Name = 
REMARK  7 active torsions:
REMARK  status: ('A' for Active; 'I' for Inactive)
REMARK    1  A    between atoms: C_1  and  N_2
REMARK    2  A    between atoms: C_4  and  C_5
REMARK    3  A    between atoms: N_7  and  C_8
REMARK    4  A    between atoms: C_8  and  C_9
REMARK    5  A    between atoms: C_12  and  O_13
REMARK    6  A    between atoms: O_13  and  C_14
REMARK    7  A    between atoms: C_14  and  C_15
REMARK                            x       y       z     vdW  Elec       q    Type
REMARK                         _______ _______ _______ _____ _____    ______ ____
ROOT
ATOM      1  C   UNL     1      48.703   7.076  14.831  0.00  0.00    +0.000 C 
ATOM      2  O   UNL     1      49.466   6.265  15.340  0.00  0.00    +0.000 OA
ATOM      3  N   UNL     1      47.516   6.672  14.252  0.00  0.00    +0.000 N 
ATOM      4  H   UNL     1      46.910   7.378  13.848  0.00  0.00    +0.000 HD
ENDROOT
BRANCH   1   8
ATOM      5  C   UNL     1      49.441  11.595  16.441  0.00  0.00    +0.000 C 
ATOM      6  N   UNL     1      49.295  10.505  15.505  0.00  0.00    +0.000 N 
ATOM      7  N   UNL     1      49.044   9.249  15.931  0.00  0.00    +0.000 NA
ATOM      8  C   UNL     1      48.972   8.524  14.788  0.00  0.00    +0.000 A 
ATOM      9  C   UNL     1      49.184   9.348  13.635  0.00  0.00    +0.000 A 
ATOM     10  C   UNL     1      49.247   9.284  12.247  0.00  0.00    +0.000 A 
ATOM     11 CL   UNL     1      49.029   7.843  11.390  0.00  0.00    +0.000 Cl
ATOM     12  N   UNL     1      49.485  10.374  11.495  0.00  0.00    +0.000 NA
ATOM     13  C   UNL     1      49.664  11.534  12.136  0.00  0.00    +0.000 A 
ATOM     14  N   UNL     1      49.633  11.747  13.460  0.00  0.00    +0.000 NA
ATOM     15  C   UNL     1      49.389  10.617  14.149  0.00  0.00    +0.000 A 
ENDBRANCH   1   8
BRANCH   3  16
ATOM     16  C   UNL     1      47.184   5.271  14.259  0.00  0.00    +0.000 C 
BRANCH  16  17
ATOM     17  C   UNL     1      46.345   4.839  13.093  0.00  0.00    +0.000 A 
ATOM     18  C   UNL     1      46.061   5.740  12.056  0.00  0.00    +0.000 A 
ATOM     19  C   UNL     1      45.330   5.334  10.935  0.00  0.00    +0.000 A 
ATOM     20  C   UNL     1      44.869   4.024  10.846  0.00  0.00    +0.000 A 
ATOM     21  C   UNL     1      45.140   3.126  11.879  0.00  0.00    +0.000 A 
ATOM     22  C   UNL     1      45.870   3.527  12.999  0.00  0.00    +0.000 A 
BRANCH  20  23
ATOM     23  O   UNL     1      44.146   3.491   9.823  0.00  0.00    +0.000 OA
BRANCH  23  24
ATOM     24  C   UNL     1      44.529   2.210   9.326  0.00  0.00    +0.000 C 
BRANCH  24  25
ATOM     25  C   UNL     1      45.794   2.416   8.484  0.00  0.00    +0.000 C 
ATOM     26  C   UNL     1      45.536   3.406   7.333  0.00  0.00    +0.000 C 
ATOM     27  C   UNL     1      46.779   3.600   6.473  0.00  0.00    +0.000 C 
ATOM     28  C   UNL     1      47.306   2.268   5.948  0.00  0.00    +0.000 C 
ATOM     29  C   UNL     1      47.565   1.282   7.083  0.00  0.00    +0.000 C 
ATOM     30  C   UNL     1      46.324   1.081   7.949  0.00  0.00    +0.000 C 
ENDBRANCH  24  25
ENDBRANCH  23  24
ENDBRANCH  20  23
ENDBRANCH  16  17
ENDBRANCH   3  16
TORSDOF 6
ENDMDL
MODEL 7
REMARK VINA RESULT:    -7.287      2.682      4.394
REMARK INTER + INTRA:         -10.669
REMARK INTER:                  -9.606
REMARK INTRA:                  -1.063
REMARK UNBOUND:                -0.826
REMARK  Name = 
REMARK  7 active torsions:
REMARK  status: ('A' for Active; 'I' for Inactive)
REMARK    1  A    between atoms: C_1  and  N_2
REMARK    2  A    between atoms: C_4  and  C_5
REMARK    3  A    between atoms: N_7  and  C_8
REMARK    4  A    between atoms: C_8  and  C_9
REMARK    5  A    between atoms: C_12  and  O_13
REMARK    6  A    between atoms: O_13  and  C_14
REMARK    7  A    between atoms: C_14  and  C_15
REMARK                            x       y       z     vdW  Elec       q    Type
REMARK                         _______ _______ _______ _____ _____    ______ ____
ROOT
ATOM      1  C   UNL     1      49.931   5.934  17.028  0.00  0.00    +0.000 C 
ATOM      2  O   UNL     1      49.085   6.318  17.827  0.00  0.00    +0.000 OA
ATOM      3  N   UNL     1      49.873   6.303  15.698  0.00  0.00    +0.000 N 
ATOM      4  H   UNL     1      50.598   5.968  15.073  0.00  0.00    +0.000 HD
ENDROOT
BRANCH   1   8
ATOM      5  C   UNL     1      54.388   4.667  18.471  0.00  0.00    +0.000 C 
ATOM      6  N   UNL     1      53.019   4.518  18.034  0.00  0.00    +0.000 N 
ATOM      7  N   UNL     1      52.247   5.596  17.780  0.00  0.00    +0.000 NA
ATOM      8  C   UNL     1      51.059   5.064  17.400  0.00  0.00    +0.000 A 
ATOM      9  C   UNL     1      51.098   3.632  17.422  0.00  0.00    +0.000 A 
ATOM     10  C   UNL     1      50.306   2.516  17.174  0.00  0.00    +0.000 A 
ATOM     11 CL   UNL     1      48.701   2.635  16.656  0.00  0.00    +0.000 Cl
ATOM     12  N   UNL     1      50.772   1.264  17.332  0.00  0.00    +0.000 NA
ATOM     13  C   UNL     1      52.038   1.127  17.742  0.00  0.00    +0.000 A 
ATOM     14  N   UNL     1      52.914   2.104  18.019  0.00  0.00    +0.000 NA
ATOM     15  C   UNL     1      52.383   3.328  17.838  0.00  0.00    +0.000 A 
ENDBRANCH   1   8
BRANCH   3  16
ATOM     16  C   UNL     1      48.798   7.156  15.261  0.00  0.00    +0.000 C 
BRANCH  16  17
ATOM     17  C   UNL     1      47.782   6.461  14.405  0.00  0.00    +0.000 A 
ATOM     18  C   UNL     1      47.367   5.159  14.717  0.00  0.00    +0.000 A 
ATOM     19  C   UNL     1      46.378   4.521  13.962  0.00  0.00    +0.000 A 
ATOM     20  C   UNL     1      45.799   5.180  12.881  0.00  0.00    +0.000 A 
ATOM     21  C   UNL     1      46.215   6.474  12.559  0.00  0.00    +0.000 A 
ATOM     22  C   UNL     1      47.201   7.113  13.311  0.00  0.00    +0.000 A 
BRANCH  20  23
ATOM     23  O   UNL     1      44.834   4.687  12.057  0.00  0.00    +0.000 OA
BRANCH  23  24
ATOM     24  C   UNL     1      44.533   5.411  10.866  0.00  0.00    +0.000 C 
BRANCH  24  25
ATOM     25  C   UNL     1      44.584   4.409   9.706  0.00  0.00    +0.000 C 
ATOM     26  C   UNL     1      44.650   2.963  10.231  0.00  0.00    +0.000 C 
ATOM     27  C   UNL     1      44.727   1.957   9.087  0.00  0.00    +0.000 C 
ATOM     28  C   UNL     1      45.896   2.261   8.157  0.00  0.00    +0.000 C 
ATOM     29  C   UNL     1      45.837   3.693   7.632  0.00  0.00    +0.000 C 
ATOM     30  C   UNL     1      45.761   4.707   8.771  0.00  0.00    +0.000 C 
ENDBRANCH  24  25
ENDBRANCH  23  24
ENDBRANCH  20  23
ENDBRANCH  16  17
ENDBRANCH   3  16
TORSDOF 6
ENDMDL
MODEL 8
REMARK VINA RESULT:    -7.232      2.392      3.300
REMARK INTER + INTRA:         -10.594
REMARK INTER:                  -9.950
REMARK INTRA:                  -0.644
REMARK UNBOUND:                -0.826
REMARK  Name = 
REMARK  7 active torsions:
REMARK  status: ('A' for Active; 'I' for Inactive)
REMARK    1  A    between atoms: C_1  and  N_2
REMARK    2  A    between atoms: C_4  and  C_5
REMARK    3  A    between atoms: N_7  and  C_8
REMARK    4  A    between atoms: C_8  and  C_9
REMARK    5  A    between atoms: C_12  and  O_13
REMARK    6  A    between atoms: O_13  and  C_14
REMARK    7  A    between atoms: C_14  and  C_15
REMARK                            x       y       z     vdW  Elec       q    Type
REMARK                         _______ _______ _______ _____ _____    ______ ____
ROOT
ATOM      1  C   UNL     1      48.613   7.180  15.041  0.00  0.00    +0.000 C 
ATOM      2  O   UNL     1      49.018   8.233  14.564  0.00  0.00    +0.000 OA
ATOM      3  N   UNL     1      47.522   6.527  14.503  0.00  0.00    +0.000 N 
ATOM      4  H   UNL     1      47.225   5.654  14.925  0.00  0.00    +0.000 HD
ENDROOT
BRANCH   1   8
ATOM      5  C   UNL     1      48.953   4.633  19.160  0.00  0.00    +0.000 C 
ATOM      6  N   UNL     1      49.373   5.408  18.015  0.00  0.00    +0.000 N 
ATOM      7  N   UNL     1      48.478   5.855  17.109  0.00  0.00    +0.000 NA
ATOM      8  C   UNL     1      49.235   6.528  16.207  0.00  0.00    +0.000 A 
ATOM      9  C   UNL     1      50.623   6.494  16.562  0.00  0.00    +0.000 A 
ATOM     10  C   UNL     1      51.869   6.936  16.132  0.00  0.00    +0.000 A 
ATOM     11 CL   UNL     1      52.075   7.851  14.725  0.00  0.00    +0.000 Cl
ATOM     12  N   UNL     1      52.995   6.662  16.815  0.00  0.00    +0.000 NA
ATOM     13  C   UNL     1      52.874   5.939  17.933  0.00  0.00    +0.000 A 
ATOM     14  N   UNL     1      51.747   5.446  18.467  0.00  0.00    +0.000 NA
ATOM     15  C   UNL     1      50.661   5.760  17.736  0.00  0.00    +0.000 A 
ENDBRANCH   1   8
BRANCH   3  16
ATOM     16  C   UNL     1      46.864   7.104  13.359  0.00  0.00    +0.000 C 
BRANCH  16  17
ATOM     17  C   UNL     1      46.263   6.091  12.430  0.00  0.00    +0.000 A 
ATOM     18  C   UNL     1      45.833   4.850  12.921  0.00  0.00    +0.000 A 
ATOM     19  C   UNL     1      45.217   3.920  12.078  0.00  0.00    +0.000 A 
ATOM     20  C   UNL     1      45.034   4.221  10.731  0.00  0.00    +0.000 A 
ATOM     21  C   UNL     1      45.468   5.451  10.234  0.00  0.00    +0.000 A 
ATOM     22  C   UNL     1      46.082   6.382  11.074  0.00  0.00    +0.000 A 
BRANCH  20  23
ATOM     23  O   UNL     1      44.457   3.418   9.795  0.00  0.00    +0.000 OA
BRANCH  23  24
ATOM     24  C   UNL     1      44.412   3.881   8.448  0.00  0.00    +0.000 C 
BRANCH  24  25
ATOM     25  C   UNL     1      45.279   2.928   7.616  0.00  0.00    +0.000 C 
ATOM     26  C   UNL     1      45.837   1.788   8.487  0.00  0.00    +0.000 C 
ATOM     27  C   UNL     1      46.720   0.847   7.677  0.00  0.00    +0.000 C 
ATOM     28  C   UNL     1      47.842   1.604   6.974  0.00  0.00    +0.000 C 
ATOM     29  C   UNL     1      47.296   2.734   6.107  0.00  0.00    +0.000 C 
ATOM     30  C   UNL     1      46.410   3.683   6.912  0.00  0.00    +0.000 C 
ENDBRANCH  24  25
ENDBRANCH  23  24
ENDBRANCH  20  23
ENDBRANCH  16  17
ENDBRANCH   3  16
TORSDOF 6
ENDMDL
MODEL 9
REMARK VINA RESULT:    -7.126      2.475      3.402
REMARK INTER + INTRA:         -10.451
REMARK INTER:                  -9.568
REMARK INTRA:                  -0.883
REMARK UNBOUND:                -0.826
REMARK  Name = 
REMARK  7 active torsions:
REMARK  status: ('A' for Active; 'I' for Inactive)
REMARK    1  A    between atoms: C_1  and  N_2
REMARK    2  A    between atoms: C_4  and  C_5
REMARK    3  A    between atoms: N_7  and  C_8
REMARK    4  A    between atoms: C_8  and  C_9
REMARK    5  A    between atoms: C_12  and  O_13
REMARK    6  A    between atoms: O_13  and  C_14
REMARK    7  A    between atoms: C_14  and  C_15
REMARK                            x       y       z     vdW  Elec       q    Type
REMARK                         _______ _______ _______ _____ _____    ______ ____
ROOT
ATOM      1  C   UNL     1      48.867   6.153  16.446  0.00  0.00    +0.000 C 
ATOM      2  O   UNL     1      49.668   5.248  16.648  0.00  0.00    +0.000 OA
ATOM      3  N   UNL     1      47.752   5.955  15.655  0.00  0.00    +0.000 N 
ATOM      4  H   UNL     1      47.112   6.730  15.521  0.00  0.00    +0.000 HD
ENDROOT
BRANCH   1   8
ATOM      5  C   UNL     1      50.276  10.785  16.798  0.00  0.00    +0.000 C 
ATOM      6  N   UNL     1      49.640   9.538  17.156  0.00  0.00    +0.000 N 
ATOM      7  N   UNL     1      49.717   8.459  16.349  0.00  0.00    +0.000 NA
ATOM      8  C   UNL     1      49.016   7.505  17.011  0.00  0.00    +0.000 A 
ATOM      9  C   UNL     1      48.496   8.006  18.249  0.00  0.00    +0.000 A 
ATOM     10  C   UNL     1      47.744   7.616  19.352  0.00  0.00    +0.000 A 
ATOM     11 CL   UNL     1      47.111   6.057  19.519  0.00  0.00    +0.000 Cl
ATOM     12  N   UNL     1      47.472   8.462  20.362  0.00  0.00    +0.000 NA
ATOM     13  C   UNL     1      47.955   9.706  20.267  0.00  0.00    +0.000 A 
ATOM     14  N   UNL     1      48.690  10.221  19.271  0.00  0.00    +0.000 NA
ATOM     15  C   UNL     1      48.925   9.321  18.297  0.00  0.00    +0.000 A 
ENDBRANCH   1   8
BRANCH   3  16
ATOM     16  C   UNL     1      47.539   4.657  15.071  0.00  0.00    +0.000 C 
BRANCH  16  17
ATOM     17  C   UNL     1      46.859   4.697  13.734  0.00  0.00    +0.000 A 
ATOM     18  C   UNL     1      46.051   3.629  13.321  0.00  0.00    +0.000 A 
ATOM     19  C   UNL     1      45.364   3.679  12.104  0.00  0.00    +0.000 A 
ATOM     20  C   UNL     1      45.488   4.797  11.284  0.00  0.00    +0.000 A 
ATOM     21  C   UNL     1      46.300   5.859  11.685  0.00  0.00    +0.000 A 
ATOM     22  C   UNL     1      46.986   5.813  12.900  0.00  0.00    +0.000 A 
BRANCH  20  23
ATOM     23  O   UNL     1      44.887   4.984  10.077  0.00  0.00    +0.000 OA
BRANCH  23  24
ATOM     24  C   UNL     1      44.053   3.943   9.573  0.00  0.00    +0.000 C 
BRANCH  24  25
ATOM     25  C   UNL     1      44.835   3.242   8.456  0.00  0.00    +0.000 C 
ATOM     26  C   UNL     1      45.491   1.948   8.971  0.00  0.00    +0.000 C 
ATOM     27  C   UNL     1      46.294   1.254   7.876  0.00  0.00    +0.000 C 
ATOM     28  C   UNL     1      47.329   2.193   7.265  0.00  0.00    +0.000 C 
ATOM     29  C   UNL     1      46.686   3.477   6.751  0.00  0.00    +0.000 C 
ATOM     30  C   UNL     1      45.881   4.179   7.843  0.00  0.00    +0.000 C 
ENDBRANCH  24  25
ENDBRANCH  23  24
ENDBRANCH  20  23
ENDBRANCH  16  17
ENDBRANCH   3  16
TORSDOF 6
ENDMDL
