MODEL 1
REMARK VINA RESULT:    -8.001      0.000      0.000
REMARK INTER + INTRA:         -12.303
REMARK INTER:                 -11.275
REMARK INTRA:                  -1.028
REMARK UNBOUND:                -1.028
REMARK  Name = 
REMARK  7 active torsions:
REMARK  status: ('A' for Active; 'I' for Inactive)
REMARK    1  A    between atoms: C_2  and  C_4
REMARK    2  A    between atoms: C_7  and  O_8
REMARK    3  A    between atoms: O_8  and  C_9
REMARK    4  A    between atoms: C_9  and  C_10
REMARK    5  A    between atoms: C_10  and  C_11
REMARK    6  A    between atoms: C_15  and  O_16
REMARK    7  A    between atoms: O_16  and  C_17
REMARK                            x       y       z     vdW  Elec       q    Type
REMARK                         _______ _______ _______ _____ _____    ______ ____
ROOT
ATOM      1  C   UNL     1      43.956   3.127  11.434  0.00  0.00    +0.000 C 
ENDROOT
BRANCH   1   2
ATOM      2  O   UNL     1      43.634   3.477  10.078  0.00  0.00    +0.000 OA
BRANCH   2   6
ATOM      3  C   UNL     1      46.684   2.436   7.503  0.00  0.00    +0.000 A 
ATOM      4  C   UNL     1      46.278   3.769   7.581  0.00  0.00    +0.000 A 
ATOM      5  C   UNL     1      45.239   4.116   8.452  0.00  0.00    +0.000 A 
ATOM      6  C   UNL     1      44.649   3.115   9.210  0.00  0.00    +0.000 A 
ATOM      7  N   UNL     1      45.019   1.817   9.138  0.00  0.00    +0.000 NA
ATOM      8  C   UNL     1      46.019   1.504   8.282  0.00  0.00    +0.000 A 
BRANCH   3  10
ATOM      9  N   UNL     1      48.767   2.846   6.323  0.00  0.00    +0.000 N 
ATOM     10  C   UNL     1      47.775   1.958   6.628  0.00  0.00    +0.000 C 
ATOM     11  O   UNL     1      47.818   0.801   6.230  0.00  0.00    +0.000 OA
ATOM     12  H   UNL     1      49.565   2.467   5.829  0.00  0.00    +0.000 HD
ATOM     13  H   UNL     1      48.906   3.701   6.844  0.00  0.00    +0.000 HD
ENDBRANCH   3  10
ENDBRANCH   2   6
ENDBRANCH   1   2
BRANCH   1  14
ATOM     14  C   UNL     1      43.864   4.356  12.339  0.00  0.00    +0.000 C 
BRANCH  14  15
ATOM     15  C   UNL     1      45.223   4.987  12.537  0.00  0.00    +0.000 A 
ATOM     16  C   UNL     1      45.708   5.935  11.627  0.00  0.00    +0.000 A 
ATOM     17  C   UNL     1      46.938   6.561  11.847  0.00  0.00    +0.000 A 
ATOM     18  C   UNL     1      47.699   6.249  12.978  0.00  0.00    +0.000 A 
ATOM     19  C   UNL     1      47.230   5.306  13.888  0.00  0.00    +0.000 A 
ATOM     20  C   UNL     1      45.993   4.687  13.671  0.00  0.00    +0.000 A 
BRANCH  19  21
ATOM     21  O   UNL     1      47.871   4.948  15.048  0.00  0.00    +0.000 OA
BRANCH  21  22
ATOM     22  C   UNL     1      47.208   4.066  15.981  0.00  0.00    +0.000 C 
ATOM     23  C   UNL     1      47.162   4.517  17.460  0.00  0.00    +0.000 C 
ATOM     24  C   UNL     1      47.681   3.138  17.886  0.00  0.00    +0.000 C 
ATOM     25  C   UNL     1      48.072   2.862  16.430  0.00  0.00    +0.000 C 
ENDBRANCH  21  22
ENDBRANCH  19  21
ENDBRANCH  14  15
ENDBRANCH   1  14
TORSDOF 7
ENDMDL
MODEL 2
REMARK VINA RESULT:    -6.847      2.197      4.049
REMARK INTER + INTRA:         -10.676
REMARK INTER:                  -9.876
REMARK INTRA:                  -0.800
REMARK UNBOUND:                -1.028
REMARK  Name = 
REMARK  7 active torsions:
REMARK  status: ('A' for Active; 'I' for Inactive)
REMARK    1  A    between atoms: C_2  and  C_4
REMARK    2  A    between atoms: C_7  and  O_8
REMARK    3  A    between atoms: O_8  and  C_9
REMARK    4  A    between atoms: C_9  and  C_10
REMARK    5  A    between atoms: C_10  and  C_11
REMARK    6  A    between atoms: C_15  and  O_16
REMARK    7  A    between atoms: O_16  and  C_17
REMARK                            x       y       z     vdW  Elec       q    Type
REMARK                         _______ _______ _______ _____ _____    ______ ____
ROOT
ATOM      1  C   UNL     1      44.246   4.268  11.121  0.00  0.00    +0.000 C 
ENDROOT
BRANCH   1   2
ATOM      2  O   UNL     1      43.747   3.929   9.817  0.00  0.00    +0.000 OA
BRANCH   2   6
ATOM      3  C   UNL     1      46.719   2.418   7.388  0.00  0.00    +0.000 A 
ATOM      4  C   UNL     1      46.068   1.569   8.285  0.00  0.00    +0.000 A 
ATOM      5  C   UNL     1      45.065   2.088   9.111  0.00  0.00    +0.000 A 
ATOM      6  C   UNL     1      44.753   3.435   9.005  0.00  0.00    +0.000 A 
ATOM      7  N   UNL     1      45.381   4.276   8.152  0.00  0.00    +0.000 NA
ATOM      8  C   UNL     1      46.354   3.754   7.371  0.00  0.00    +0.000 A 
BRANCH   3  10
ATOM      9  N   UNL     1      48.857   2.806   6.302  0.00  0.00    +0.000 N 
ATOM     10  C   UNL     1      47.784   1.977   6.462  0.00  0.00    +0.000 C 
ATOM     11  O   UNL     1      47.733   0.892   5.896  0.00  0.00    +0.000 OA
ATOM     12  H   UNL     1      49.630   2.432   5.765  0.00  0.00    +0.000 HD
ATOM     13  H   UNL     1      49.060   3.558   6.946  0.00  0.00    +0.000 HD
ENDBRANCH   3  10
ENDBRANCH   2   6
ENDBRANCH   1   2
BRANCH   1  14
ATOM     14  C   UNL     1      44.518   5.769  11.217  0.00  0.00    +0.000 C 
BRANCH  14  15
ATOM     15  C   UNL     1      45.790   6.042  11.985  0.00  0.00    +0.000 A 
ATOM     16  C   UNL     1      46.069   5.350  13.171  0.00  0.00    +0.000 A 
ATOM     17  C   UNL     1      47.275   5.562  13.845  0.00  0.00    +0.000 A 
ATOM     18  C   UNL     1      48.218   6.465  13.344  0.00  0.00    +0.000 A 
ATOM     19  C   UNL     1      47.951   7.161  12.168  0.00  0.00    +0.000 A 
ATOM     20  C   UNL     1      46.747   6.941  11.490  0.00  0.00    +0.000 A 
BRANCH  19  21
ATOM     21  O   UNL     1      48.814   8.042  11.565  0.00  0.00    +0.000 OA
BRANCH  21  22
ATOM     22  C   UNL     1      49.001   9.356  12.139  0.00  0.00    +0.000 C 
ATOM     23  C   UNL     1      47.727  10.188  12.415  0.00  0.00    +0.000 C 
ATOM     24  C   UNL     1      48.362  11.381  11.689  0.00  0.00    +0.000 C 
ATOM     25  C   UNL     1      49.421  10.436  11.112  0.00  0.00    +0.000 C 
ENDBRANCH  21  22
ENDBRANCH  19  21
ENDBRANCH  14  15
ENDBRANCH   1  14
TORSDOF 7
ENDMDL
MODEL 3
REMARK VINA RESULT:    -6.742      2.316      4.186
REMARK INTER + INTRA:         -10.528
REMARK INTER:                  -9.562
REMARK INTRA:                  -0.967
REMARK UNBOUND:                -1.028
REMARK  Name = 
REMARK  7 active torsions:
REMARK  status: ('A' for Active; 'I' for Inactive)
REMARK    1  A    between atoms: C_2  and  C_4
REMARK    2  A    between atoms: C_7  and  O_8
REMARK    3  A    between atoms: O_8  and  C_9
REMARK    4  A    between atoms: C_9  and  C_10
REMARK    5  A    between atoms: C_10  and  C_11
REMARK    6  A    between atoms: C_15  and  O_16
REMARK    7  A    between atoms: O_16  and  C_17
REMARK                            x       y       z     vdW  Elec       q    Type
REMARK                         _______ _______ _______ _____ _____    ______ ____
ROOT
ATOM      1  C   UNL     1      43.716   3.090  12.330  0.00  0.00    +0.000 C 
ENDROOT
BRANCH   1   2
ATOM      2  O   UNL     1      43.095   3.226  11.041  0.00  0.00    +0.000 OA
BRANCH   2   6
ATOM      3  C   UNL     1      45.872   3.118   7.992  0.00  0.00    +0.000 A 
ATOM      4  C   UNL     1      45.472   1.925   8.598  0.00  0.00    +0.000 A 
ATOM      5  C   UNL     1      44.535   1.968   9.636  0.00  0.00    +0.000 A 
ATOM      6  C   UNL     1      44.034   3.202  10.025  0.00  0.00    +0.000 A 
ATOM      7  N   UNL     1      44.418   4.368   9.459  0.00  0.00    +0.000 NA
ATOM      8  C   UNL     1      45.333   4.303   8.464  0.00  0.00    +0.000 A 
BRANCH   3  10
ATOM      9  N   UNL     1      47.947   2.387   6.962  0.00  0.00    +0.000 N 
ATOM     10  C   UNL     1      46.845   3.190   6.882  0.00  0.00    +0.000 C 
ATOM     11  O   UNL     1      46.652   3.904   5.906  0.00  0.00    +0.000 OA
ATOM     12  H   UNL     1      48.534   2.358   6.138  0.00  0.00    +0.000 HD
ATOM     13  H   UNL     1      47.999   1.604   7.598  0.00  0.00    +0.000 HD
ENDBRANCH   3  10
ENDBRANCH   2   6
ENDBRANCH   1   2
BRANCH   1  14
ATOM     14  C   UNL     1      43.582   4.388  13.127  0.00  0.00    +0.000 C 
BRANCH  14  15
ATOM     15  C   UNL     1      44.897   5.130  13.180  0.00  0.00    +0.000 A 
ATOM     16  C   UNL     1      45.993   4.590  13.864  0.00  0.00    +0.000 A 
ATOM     17  C   UNL     1      47.225   5.250  13.859  0.00  0.00    +0.000 A 
ATOM     18  C   UNL     1      47.379   6.458  13.170  0.00  0.00    +0.000 A 
ATOM     19  C   UNL     1      46.296   7.006  12.489  0.00  0.00    +0.000 A 
ATOM     20  C   UNL     1      45.065   6.339  12.488  0.00  0.00    +0.000 A 
BRANCH  19  21
ATOM     21  O   UNL     1      46.338   8.163  11.751  0.00  0.00    +0.000 OA
BRANCH  21  22
ATOM     22  C   UNL     1      45.902   9.404  12.352  0.00  0.00    +0.000 C 
ATOM     23  C   UNL     1      44.592  10.022  11.812  0.00  0.00    +0.000 C 
ATOM     24  C   UNL     1      45.305  11.371  11.656  0.00  0.00    +0.000 C 
ATOM     25  C   UNL     1      46.648  10.654  11.825  0.00  0.00    +0.000 C 
ENDBRANCH  21  22
ENDBRANCH  19  21
ENDBRANCH  14  15
ENDBRANCH   1  14
TORSDOF 7
ENDMDL
MODEL 4
REMARK VINA RESULT:    -6.690      3.186      8.262
REMARK INTER + INTRA:         -10.455
REMARK INTER:                  -9.741
REMARK INTRA:                  -0.714
REMARK UNBOUND:                -1.028
REMARK  Name = 
REMARK  7 active torsions:
REMARK  status: ('A' for Active; 'I' for Inactive)
REMARK    1  A    between atoms: C_2  and  C_4
REMARK    2  A    between atoms: C_7  and  O_8
REMARK    3  A    between atoms: O_8  and  C_9
REMARK    4  A    between atoms: C_9  and  C_10
REMARK    5  A    between atoms: C_10  and  C_11
REMARK    6  A    between atoms: C_15  and  O_16
REMARK    7  A    between atoms: O_16  and  C_17
REMARK                            x       y       z     vdW  Elec       q    Type
REMARK                         _______ _______ _______ _____ _____    ______ ____
ROOT
ATOM      1  C   UNL     1      45.970   6.542  12.897  0.00  0.00    +0.000 C 
ENDROOT
BRANCH   1   2
ATOM      2  O   UNL     1      47.081   5.632  12.928  0.00  0.00    +0.000 OA
BRANCH   2   6
ATOM      3  C   UNL     1      48.249   4.764  16.788  0.00  0.00    +0.000 A 
ATOM      4  C   UNL     1      47.360   3.910  16.132  0.00  0.00    +0.000 A 
ATOM      5  C   UNL     1      46.963   4.213  14.825  0.00  0.00    +0.000 A 
ATOM      6  C   UNL     1      47.471   5.356  14.227  0.00  0.00    +0.000 A 
ATOM      7  N   UNL     1      48.322   6.202  14.850  0.00  0.00    +0.000 NA
ATOM      8  C   UNL     1      48.684   5.894  16.117  0.00  0.00    +0.000 A 
BRANCH   3  10
ATOM      9  N   UNL     1      48.238   3.466  18.841  0.00  0.00    +0.000 N 
ATOM     10  C   UNL     1      48.744   4.537  18.162  0.00  0.00    +0.000 C 
ATOM     11  O   UNL     1      49.607   5.251  18.658  0.00  0.00    +0.000 OA
ATOM     12  H   UNL     1      48.680   3.255  19.728  0.00  0.00    +0.000 HD
ATOM     13  H   UNL     1      47.746   2.715  18.376  0.00  0.00    +0.000 HD
ENDBRANCH   3  10
ENDBRANCH   2   6
ENDBRANCH   1   2
BRANCH   1  14
ATOM     14  C   UNL     1      45.601   6.887  11.454  0.00  0.00    +0.000 C 
BRANCH  14  15
ATOM     15  C   UNL     1      45.269   5.641  10.667  0.00  0.00    +0.000 A 
ATOM     16  C   UNL     1      44.321   4.727  11.144  0.00  0.00    +0.000 A 
ATOM     17  C   UNL     1      43.972   3.607  10.384  0.00  0.00    +0.000 A 
ATOM     18  C   UNL     1      44.564   3.386   9.136  0.00  0.00    +0.000 A 
ATOM     19  C   UNL     1      45.510   4.285   8.652  0.00  0.00    +0.000 A 
ATOM     20  C   UNL     1      45.852   5.410   9.411  0.00  0.00    +0.000 A 
BRANCH  19  21
ATOM     21  O   UNL     1      46.129   4.190   7.430  0.00  0.00    +0.000 OA
BRANCH  21  22
ATOM     22  C   UNL     1      46.183   2.910   6.761  0.00  0.00    +0.000 C 
ATOM     23  C   UNL     1      47.252   1.907   7.253  0.00  0.00    +0.000 C 
ATOM     24  C   UNL     1      47.704   1.693   5.803  0.00  0.00    +0.000 C 
ATOM     25  C   UNL     1      46.919   2.945   5.398  0.00  0.00    +0.000 C 
ENDBRANCH  21  22
ENDBRANCH  19  21
ENDBRANCH  14  15
ENDBRANCH   1  14
TORSDOF 7
ENDMDL
MODEL 5
REMARK VINA RESULT:    -6.646      3.484      8.580
REMARK INTER + INTRA:         -10.393
REMARK INTER:                  -9.881
REMARK INTRA:                  -0.512
REMARK UNBOUND:                -1.028
REMARK  Name = 
REMARK  7 active torsions:
REMARK  status: ('A' for Active; 'I' for Inactive)
REMARK    1  A    between atoms: C_2  and  C_4
REMARK    2  A    between atoms: C_7  and  O_8
REMARK    3  A    between atoms: O_8  and  C_9
REMARK    4  A    between atoms: C_9  and  C_10
REMARK    5  A    between atoms: C_10  and  C_11
REMARK    6  A    between atoms: C_15  and  O_16
REMARK    7  A    between atoms: O_16  and  C_17
REMARK                            x       y       z     vdW  Elec       q    Type
REMARK                         _______ _______ _______ _____ _____    ______ ____
ROOT
ATOM      1  C   UNL     1      46.923   5.127  13.813  0.00  0.00    +0.000 C 
ENDROOT
BRANCH   1   2
ATOM      2  O   UNL     1      46.632   4.034  14.698  0.00  0.00    +0.000 OA
BRANCH   2   6
ATOM      3  C   UNL     1      48.618   4.477  18.286  0.00  0.00    +0.000 A 
ATOM      4  C   UNL     1      48.751   5.459  17.303  0.00  0.00    +0.000 A 
ATOM      5  C   UNL     1      48.080   5.301  16.085  0.00  0.00    +0.000 A 
ATOM      6  C   UNL     1      47.303   4.167  15.901  0.00  0.00    +0.000 A 
ATOM      7  N   UNL     1      47.172   3.199  16.836  0.00  0.00    +0.000 NA
ATOM      8  C   UNL     1      47.838   3.370  18.002  0.00  0.00    +0.000 A 
BRANCH   3  10
ATOM      9  N   UNL     1      48.592   4.018  20.671  0.00  0.00    +0.000 N 
ATOM     10  C   UNL     1      49.271   4.546  19.611  0.00  0.00    +0.000 C 
ATOM     11  O   UNL     1      50.396   5.012  19.748  0.00  0.00    +0.000 OA
ATOM     12  H   UNL     1      49.106   3.961  21.542  0.00  0.00    +0.000 HD
ATOM     13  H   UNL     1      47.806   3.393  20.553  0.00  0.00    +0.000 HD
ENDBRANCH   3  10
ENDBRANCH   2   6
ENDBRANCH   1   2
BRANCH   1  14
ATOM     14  C   UNL     1      45.631   5.712  13.243  0.00  0.00    +0.000 C 
BRANCH  14  15
ATOM     15  C   UNL     1      45.059   4.818  12.167  0.00  0.00    +0.000 A 
ATOM     16  C   UNL     1      44.081   3.865  12.477  0.00  0.00    +0.000 A 
ATOM     17  C   UNL     1      43.512   3.082  11.468  0.00  0.00    +0.000 A 
ATOM     18  C   UNL     1      43.910   3.243  10.137  0.00  0.00    +0.000 A 
ATOM     19  C   UNL     1      44.883   4.185   9.817  0.00  0.00    +0.000 A 
ATOM     20  C   UNL     1      45.446   4.974  10.827  0.00  0.00    +0.000 A 
BRANCH  19  21
ATOM     21  O   UNL     1      45.325   4.454   8.545  0.00  0.00    +0.000 OA
BRANCH  21  22
ATOM     22  C   UNL     1      45.515   3.364   7.615  0.00  0.00    +0.000 C 
ATOM     23  C   UNL     1      46.258   2.115   8.143  0.00  0.00    +0.000 C 
ATOM     24  C   UNL     1      47.179   2.157   6.917  0.00  0.00    +0.000 C 
ATOM     25  C   UNL     1      46.688   3.579   6.627  0.00  0.00    +0.000 C 
ENDBRANCH  21  22
ENDBRANCH  19  21
ENDBRANCH  14  15
ENDBRANCH   1  14
TORSDOF 7
ENDMDL
MODEL 6
REMARK VINA RESULT:    -6.402      1.932      2.530
REMARK INTER + INTRA:         -10.050
REMARK INTER:                  -9.322
REMARK INTRA:                  -0.728
REMARK UNBOUND:                -1.028
REMARK  Name = 
REMARK  7 active torsions:
REMARK  status: ('A' for Active; 'I' for Inactive)
REMARK    1  A    between atoms: C_2  and  C_4
REMARK    2  A    between atoms: C_7  and  O_8
REMARK    3  A    between atoms: O_8  and  C_9
REMARK    4  A    between atoms: C_9  and  C_10
REMARK    5  A    between atoms: C_10  and  C_11
REMARK    6  A    between atoms: C_15  and  O_16
REMARK    7  A    between atoms: O_16  and  C_17
REMARK                            x       y       z     vdW  Elec       q    Type
REMARK                         _______ _______ _______ _____ _____    ______ ____
ROOT
ATOM      1  C   UNL     1      44.977   4.737  11.460  0.00  0.00    +0.000 C 
ENDROOT
BRANCH   1   2
ATOM      2  O   UNL     1      44.309   4.612  10.194  0.00  0.00    +0.000 OA
BRANCH   2   6
ATOM      3  C   UNL     1      46.654   2.664   7.416  0.00  0.00    +0.000 A 
ATOM      4  C   UNL     1      45.950   1.918   8.363  0.00  0.00    +0.000 A 
ATOM      5  C   UNL     1      45.161   2.584   9.307  0.00  0.00    +0.000 A 
ATOM      6  C   UNL     1      45.107   3.969   9.265  0.00  0.00    +0.000 A 
ATOM      7  N   UNL     1      45.791   4.710   8.364  0.00  0.00    +0.000 NA
ATOM      8  C   UNL     1      46.556   4.044   7.467  0.00  0.00    +0.000 A 
BRANCH   3  10
ATOM      9  N   UNL     1      48.059   2.915   5.450  0.00  0.00    +0.000 N 
ATOM     10  C   UNL     1      47.508   2.067   6.367  0.00  0.00    +0.000 C 
ATOM     11  O   UNL     1      47.753   0.867   6.346  0.00  0.00    +0.000 OA
ATOM     12  H   UNL     1      48.737   2.506   4.820  0.00  0.00    +0.000 HD
ATOM     13  H   UNL     1      48.103   3.914   5.597  0.00  0.00    +0.000 HD
ENDBRANCH   3  10
ENDBRANCH   2   6
ENDBRANCH   1   2
BRANCH   1  14
ATOM     14  C   UNL     1      45.145   6.211  11.832  0.00  0.00    +0.000 C 
BRANCH  14  15
ATOM     15  C   UNL     1      46.584   6.523  12.171  0.00  0.00    +0.000 A 
ATOM     16  C   UNL     1      47.395   7.221  11.267  0.00  0.00    +0.000 A 
ATOM     17  C   UNL     1      48.707   7.561  11.611  0.00  0.00    +0.000 A 
ATOM     18  C   UNL     1      49.225   7.210  12.861  0.00  0.00    +0.000 A 
ATOM     19  C   UNL     1      48.430   6.513  13.767  0.00  0.00    +0.000 A 
ATOM     20  C   UNL     1      47.114   6.181  13.425  0.00  0.00    +0.000 A 
BRANCH  19  21
ATOM     21  O   UNL     1      48.819   6.148  15.032  0.00  0.00    +0.000 OA
BRANCH  21  22
ATOM     22  C   UNL     1      49.341   7.153  15.931  0.00  0.00    +0.000 C 
ATOM     23  C   UNL     1      49.010   6.990  17.433  0.00  0.00    +0.000 C 
ATOM     24  C   UNL     1      48.547   8.451  17.479  0.00  0.00    +0.000 C 
ATOM     25  C   UNL     1      48.522   8.467  15.947  0.00  0.00    +0.000 C 
ENDBRANCH  21  22
ENDBRANCH  19  21
ENDBRANCH  14  15
ENDBRANCH   1  14
TORSDOF 7
ENDMDL
MODEL 7
REMARK VINA RESULT:    -6.254      3.936      8.416
REMARK INTER + INTRA:          -9.841
REMARK INTER:                  -9.272
REMARK INTRA:                  -0.569
REMARK UNBOUND:                -1.028
REMARK  Name = 
REMARK  7 active torsions:
REMARK  status: ('A' for Active; 'I' for Inactive)
REMARK    1  A    between atoms: C_2  and  C_4
REMARK    2  A    between atoms: C_7  and  O_8
REMARK    3  A    between atoms: O_8  and  C_9
REMARK    4  A    between atoms: C_9  and  C_10
REMARK    5  A    between atoms: C_10  and  C_11
REMARK    6  A    between atoms: C_15  and  O_16
REMARK    7  A    between atoms: O_16  and  C_17
REMARK                            x       y       z     vdW  Elec       q    Type
REMARK                         _______ _______ _______ _____ _____    ______ ____
ROOT
ATOM      1  C   UNL     1      46.947   4.455  15.084  0.00  0.00    +0.000 C 
ENDROOT
BRANCH   1   2
ATOM      2  O   UNL     1      47.015   3.541  16.190  0.00  0.00    +0.000 OA
BRANCH   2   6
ATOM      3  C   UNL     1      50.844   3.316  17.709  0.00  0.00    +0.000 A 
ATOM      4  C   UNL     1      50.233   2.162  17.215  0.00  0.00    +0.000 A 
ATOM      5  C   UNL     1      48.932   2.242  16.707  0.00  0.00    +0.000 A 
ATOM      6  C   UNL     1      48.295   3.474  16.712  0.00  0.00    +0.000 A 
ATOM      7  N   UNL     1      48.864   4.600  17.197  0.00  0.00    +0.000 NA
ATOM      8  C   UNL     1      50.119   4.496  17.692  0.00  0.00    +0.000 A 
BRANCH   3  10
ATOM      9  N   UNL     1      52.362   3.765  19.551  0.00  0.00    +0.000 N 
ATOM     10  C   UNL     1      52.216   3.350  18.258  0.00  0.00    +0.000 C 
ATOM     11  O   UNL     1      53.179   2.977  17.600  0.00  0.00    +0.000 OA
ATOM     12  H   UNL     1      53.288   3.662  19.947  0.00  0.00    +0.000 HD
ATOM     13  H   UNL     1      51.584   3.814  20.194  0.00  0.00    +0.000 HD
ENDBRANCH   3  10
ENDBRANCH   2   6
ENDBRANCH   1   2
BRANCH   1  14
ATOM     14  C   UNL     1      46.873   3.691  13.762  0.00  0.00    +0.000 C 
BRANCH  14  15
ATOM     15  C   UNL     1      45.698   4.155  12.933  0.00  0.00    +0.000 A 
ATOM     16  C   UNL     1      44.970   5.293  13.302  0.00  0.00    +0.000 A 
ATOM     17  C   UNL     1      43.923   5.754  12.498  0.00  0.00    +0.000 A 
ATOM     18  C   UNL     1      43.590   5.084  11.316  0.00  0.00    +0.000 A 
ATOM     19  C   UNL     1      44.304   3.950  10.940  0.00  0.00    +0.000 A 
ATOM     20  C   UNL     1      45.358   3.496  11.742  0.00  0.00    +0.000 A 
BRANCH  19  21
ATOM     21  O   UNL     1      44.092   3.236   9.787  0.00  0.00    +0.000 OA
BRANCH  21  22
ATOM     22  C   UNL     1      44.584   3.754   8.531  0.00  0.00    +0.000 C 
ATOM     23  C   UNL     1      45.501   2.826   7.701  0.00  0.00    +0.000 C 
ATOM     24  C   UNL     1      46.513   3.970   7.560  0.00  0.00    +0.000 C 
ATOM     25  C   UNL     1      45.784   4.722   8.678  0.00  0.00    +0.000 C 
ENDBRANCH  21  22
ENDBRANCH  19  21
ENDBRANCH  14  15
ENDBRANCH   1  14
TORSDOF 7
ENDMDL
MODEL 8
REMARK VINA RESULT:    -6.177      3.307      7.874
REMARK INTER + INTRA:          -9.732
REMARK INTER:                  -8.838
REMARK INTRA:                  -0.894
REMARK UNBOUND:                -1.028
REMARK  Name = 
REMARK  7 active torsions:
REMARK  status: ('A' for Active; 'I' for Inactive)
REMARK    1  A    between atoms: C_2  and  C_4
REMARK    2  A    between atoms: C_7  and  O_8
REMARK    3  A    between atoms: O_8  and  C_9
REMARK    4  A    between atoms: C_9  and  C_10
REMARK    5  A    between atoms: C_10  and  C_11
REMARK    6  A    between atoms: C_15  and  O_16
REMARK    7  A    between atoms: O_16  and  C_17
REMARK                            x       y       z     vdW  Elec       q    Type
REMARK                         _______ _______ _______ _____ _____    ______ ____
ROOT
ATOM      1  C   UNL     1      49.296   7.254  13.105  0.00  0.00    +0.000 C 
ENDROOT
BRANCH   1   2
ATOM      2  O   UNL     1      49.358   7.629  14.490  0.00  0.00    +0.000 OA
BRANCH   2   6
ATOM      3  C   UNL     1      48.102   4.583  16.972  0.00  0.00    +0.000 A 
ATOM      4  C   UNL     1      49.011   5.527  17.452  0.00  0.00    +0.000 A 
ATOM      5  C   UNL     1      49.439   6.555  16.604  0.00  0.00    +0.000 A 
ATOM      6  C   UNL     1      48.938   6.597  15.311  0.00  0.00    +0.000 A 
ATOM      7  N   UNL     1      48.067   5.684  14.824  0.00  0.00    +0.000 NA
ATOM      8  C   UNL     1      47.676   4.694  15.660  0.00  0.00    +0.000 A 
BRANCH   3  10
ATOM      9  N   UNL     1      48.260   3.135  18.916  0.00  0.00    +0.000 N 
ATOM     10  C   UNL     1      47.575   3.464  17.781  0.00  0.00    +0.000 C 
ATOM     11  O   UNL     1      46.541   2.883  17.476  0.00  0.00    +0.000 OA
ATOM     12  H   UNL     1      47.816   2.454  19.520  0.00  0.00    +0.000 HD
ATOM     13  H   UNL     1      48.940   3.754  19.336  0.00  0.00    +0.000 HD
ENDBRANCH   3  10
ENDBRANCH   2   6
ENDBRANCH   1   2
BRANCH   1  14
ATOM     14  C   UNL     1      48.528   8.304  12.301  0.00  0.00    +0.000 C 
BRANCH  14  15
ATOM     15  C   UNL     1      47.107   7.858  12.045  0.00  0.00    +0.000 A 
ATOM     16  C   UNL     1      46.056   8.784  12.057  0.00  0.00    +0.000 A 
ATOM     17  C   UNL     1      44.752   8.378  11.760  0.00  0.00    +0.000 A 
ATOM     18  C   UNL     1      44.481   7.042  11.446  0.00  0.00    +0.000 A 
ATOM     19  C   UNL     1      45.516   6.112  11.435  0.00  0.00    +0.000 A 
ATOM     20  C   UNL     1      46.822   6.522  11.724  0.00  0.00    +0.000 A 
BRANCH  19  21
ATOM     21  O   UNL     1      45.375   4.786  11.108  0.00  0.00    +0.000 OA
BRANCH  21  22
ATOM     22  C   UNL     1      44.610   4.422   9.936  0.00  0.00    +0.000 C 
ATOM     23  C   UNL     1      44.379   2.913   9.690  0.00  0.00    +0.000 C 
ATOM     24  C   UNL     1      44.855   3.087   8.242  0.00  0.00    +0.000 C 
ATOM     25  C   UNL     1      45.423   4.459   8.619  0.00  0.00    +0.000 C 
ENDBRANCH  21  22
ENDBRANCH  19  21
ENDBRANCH  14  15
ENDBRANCH   1  14
TORSDOF 7
ENDMDL
MODEL 9
REMARK VINA RESULT:    -5.958      3.478      6.218
REMARK INTER + INTRA:          -9.423
REMARK INTER:                  -8.720
REMARK INTRA:                  -0.703
REMARK UNBOUND:                -1.028
REMARK  Name = 
REMARK  7 active torsions:
REMARK  status: ('A' for Active; 'I' for Inactive)
REMARK    1  A    between atoms: C_2  and  C_4
REMARK    2  A    between atoms: C_7  and  O_8
REMARK    3  A    between atoms: O_8  and  C_9
REMARK    4  A    between atoms: C_9  and  C_10
REMARK    5  A    between atoms: C_10  and  C_11
REMARK    6  A    between atoms: C_15  and  O_16
REMARK    7  A    between atoms: O_16  and  C_17
REMARK                            x       y       z     vdW  Elec       q    Type
REMARK                         _______ _______ _______ _____ _____    ______ ____
ROOT
ATOM      1  C   UNL     1      47.448   3.585  15.775  0.00  0.00    +0.000 C 
ENDROOT
BRANCH   1   2
ATOM      2  O   UNL     1      47.580   3.201  14.396  0.00  0.00    +0.000 OA
BRANCH   2   6
ATOM      3  C   UNL     1      44.757   5.061  12.032  0.00  0.00    +0.000 A 
ATOM      4  C   UNL     1      45.641   5.837  12.785  0.00  0.00    +0.000 A 
ATOM      5  C   UNL     1      46.592   5.201  13.590  0.00  0.00    +0.000 A 
ATOM      6  C   UNL     1      46.622   3.815  13.608  0.00  0.00    +0.000 A 
ATOM      7  N   UNL     1      45.768   3.046  12.897  0.00  0.00    +0.000 NA
ATOM      8  C   UNL     1      44.850   3.683  12.134  0.00  0.00    +0.000 A 
BRANCH   3  10
ATOM      9  N   UNL     1      43.360   6.925  11.345  0.00  0.00    +0.000 N 
ATOM     10  C   UNL     1      43.721   5.624  11.141  0.00  0.00    +0.000 C 
ATOM     11  O   UNL     1      43.239   4.970  10.225  0.00  0.00    +0.000 OA
ATOM     12  H   UNL     1      42.745   7.329  10.649  0.00  0.00    +0.000 HD
ATOM     13  H   UNL     1      43.920   7.562  11.895  0.00  0.00    +0.000 HD
ENDBRANCH   3  10
ENDBRANCH   2   6
ENDBRANCH   1   2
BRANCH   1  14
ATOM     14  C   UNL     1      48.337   2.712  16.660  0.00  0.00    +0.000 C 
BRANCH  14  15
ATOM     15  C   UNL     1      49.067   3.547  17.687  0.00  0.00    +0.000 A 
ATOM     16  C   UNL     1      50.465   3.516  17.768  0.00  0.00    +0.000 A 
ATOM     17  C   UNL     1      51.139   4.336  18.678  0.00  0.00    +0.000 A 
ATOM     18  C   UNL     1      50.426   5.198  19.517  0.00  0.00    +0.000 A 
ATOM     19  C   UNL     1      49.036   5.236  19.448  0.00  0.00    +0.000 A 
ATOM     20  C   UNL     1      48.364   4.420  18.530  0.00  0.00    +0.000 A 
BRANCH  19  21
ATOM     21  O   UNL     1      48.236   6.065  20.194  0.00  0.00    +0.000 OA
BRANCH  21  22
ATOM     22  C   UNL     1      48.412   7.496  20.096  0.00  0.00    +0.000 C 
ATOM     23  C   UNL     1      47.502   8.377  20.984  0.00  0.00    +0.000 C 
ATOM     24  C   UNL     1      47.140   9.223  19.756  0.00  0.00    +0.000 C 
ATOM     25  C   UNL     1      47.728   8.129  18.859  0.00  0.00    +0.000 C 
ENDBRANCH  21  22
ENDBRANCH  19  21
ENDBRANCH  14  15
ENDBRANCH   1  14
TORSDOF 7
ENDMDL
