MODEL 1
REMARK VINA RESULT:    -7.981      0.000      0.000
REMARK INTER + INTRA:         -11.800
REMARK INTER:                 -10.781
REMARK INTRA:                  -1.019
REMARK UNBOUND:                -1.019
REMARK  Name = 
REMARK  6 active torsions:
REMARK  status: ('A' for Active; 'I' for Inactive)
REMARK    1  A    between atoms: C_2  and  C_4
REMARK    2  A    between atoms: C_7  and  N_8
REMARK    3  A    between atoms: N_8  and  C_9
REMARK    4  A    between atoms: C_9  and  C_10
REMARK    5  A    between atoms: C_10  and  C_11
REMARK    6  A    between atoms: C_15  and  C_16
REMARK                            x       y       z     vdW  Elec       q    Type
REMARK                         _______ _______ _______ _____ _____    ______ ____
ROOT
ATOM      1  C   UNL     1      45.456   6.886  12.671  0.00  0.00    +0.000 C 
ENDROOT
BRANCH   1   2
ATOM      2  N   UNL     1      46.802   6.303  12.557  0.00  0.00    +0.000 N 
ATOM      3  H   UNL     1      47.521   7.015  12.449  0.00  0.00    +0.000 HD
BRANCH   2   7
ATOM      4  C   UNL     1      47.726   3.708  15.626  0.00  0.00    +0.000 A 
ATOM      5  C   UNL     1      47.903   5.074  15.774  0.00  0.00    +0.000 A 
ATOM      6  N   UNL     1      47.620   5.962  14.784  0.00  0.00    +0.000 NA
ATOM      7  C   UNL     1      47.154   5.452  13.623  0.00  0.00    +0.000 A 
ATOM      8  C   UNL     1      46.980   4.064  13.496  0.00  0.00    +0.000 A 
ATOM      9  N   UNL     1      47.263   3.157  14.472  0.00  0.00    +0.000 NA
BRANCH   4  11
ATOM     10  N   UNL     1      47.184   2.830  17.824  0.00  0.00    +0.000 N 
ATOM     11  C   UNL     1      48.044   2.797  16.760  0.00  0.00    +0.000 C 
ATOM     12  O   UNL     1      49.017   2.051  16.746  0.00  0.00    +0.000 OA
ATOM     13  H   UNL     1      47.344   2.213  18.606  0.00  0.00    +0.000 HD
ATOM     14  H   UNL     1      46.364   3.425  17.799  0.00  0.00    +0.000 HD
ENDBRANCH   4  11
ENDBRANCH   2   7
ENDBRANCH   1   2
BRANCH   1  15
ATOM     15  C   UNL     1      44.682   6.713  11.353  0.00  0.00    +0.000 C 
BRANCH  15  16
ATOM     16  C   UNL     1      44.470   5.258  11.004  0.00  0.00    +0.000 A 
ATOM     17  C   UNL     1      43.641   4.444  11.785  0.00  0.00    +0.000 A 
ATOM     18  C   UNL     1      43.430   3.109  11.439  0.00  0.00    +0.000 A 
ATOM     19  C   UNL     1      44.026   2.575  10.295  0.00  0.00    +0.000 A 
ATOM     20  C   UNL     1      44.837   3.375   9.480  0.00  0.00    +0.000 A 
ATOM     21  C   UNL     1      45.069   4.708   9.861  0.00  0.00    +0.000 A 
BRANCH  20  22
ATOM     22  C   UNL     1      45.411   2.813   8.189  0.00  0.00    +0.000 C 
ATOM     23  C   UNL     1      46.195   1.512   8.433  0.00  0.00    +0.000 C 
ATOM     24  C   UNL     1      46.864   0.998   7.160  0.00  0.00    +0.000 C 
ATOM     25  C   UNL     1      47.739   2.068   6.517  0.00  0.00    +0.000 C 
ATOM     26  C   UNL     1      46.936   3.327   6.214  0.00  0.00    +0.000 C 
ATOM     27  C   UNL     1      46.267   3.875   7.470  0.00  0.00    +0.000 C 
ENDBRANCH  20  22
ENDBRANCH  15  16
ENDBRANCH   1  15
TORSDOF 6
ENDMDL
MODEL 2
REMARK VINA RESULT:    -7.820      3.928      7.012
REMARK INTER + INTRA:         -11.582
REMARK INTER:                 -10.666
REMARK INTRA:                  -0.916
REMARK UNBOUND:                -1.019
REMARK  Name = 
REMARK  6 active torsions:
REMARK  status: ('A' for Active; 'I' for Inactive)
REMARK    1  A    between atoms: C_2  and  C_4
REMARK    2  A    between atoms: C_7  and  N_8
REMARK    3  A    between atoms: N_8  and  C_9
REMARK    4  A    between atoms: C_9  and  C_10
REMARK    5  A    between atoms: C_10  and  C_11
REMARK    6  A    between atoms: C_15  and  C_16
REMARK                            x       y       z     vdW  Elec       q    Type
REMARK                         _______ _______ _______ _____ _____    ______ ____
ROOT
ATOM      1  C   UNL     1      43.612   4.162  11.122  0.00  0.00    +0.000 C 
ENDROOT
BRANCH   1   2
ATOM      2  N   UNL     1      43.799   4.704   9.767  0.00  0.00    +0.000 N 
ATOM      3  H   UNL     1      44.051   5.689   9.779  0.00  0.00    +0.000 HD
BRANCH   2   7
ATOM      4  C   UNL     1      46.558   2.533   7.603  0.00  0.00    +0.000 A 
ATOM      5  C   UNL     1      46.423   3.898   7.413  0.00  0.00    +0.000 A 
ATOM      6  N   UNL     1      45.519   4.648   8.099  0.00  0.00    +0.000 NA
ATOM      7  C   UNL     1      44.738   3.999   8.988  0.00  0.00    +0.000 A 
ATOM      8  C   UNL     1      44.894   2.614   9.167  0.00  0.00    +0.000 A 
ATOM      9  N   UNL     1      45.787   1.842   8.487  0.00  0.00    +0.000 NA
BRANCH   4  11
ATOM     10  N   UNL     1      48.657   2.497   6.384  0.00  0.00    +0.000 N 
ATOM     11  C   UNL     1      47.580   1.778   6.826  0.00  0.00    +0.000 C 
ATOM     12  O   UNL     1      47.472   0.578   6.597  0.00  0.00    +0.000 OA
ATOM     13  H   UNL     1      49.389   2.024   5.874  0.00  0.00    +0.000 HD
ATOM     14  H   UNL     1      48.746   3.478   6.618  0.00  0.00    +0.000 HD
ENDBRANCH   4  11
ENDBRANCH   2   7
ENDBRANCH   1   2
BRANCH   1  15
ATOM     15  C   UNL     1      43.700   5.287  12.167  0.00  0.00    +0.000 C 
BRANCH  15  16
ATOM     16  C   UNL     1      45.115   5.511  12.647  0.00  0.00    +0.000 A 
ATOM     17  C   UNL     1      45.665   4.715  13.658  0.00  0.00    +0.000 A 
ATOM     18  C   UNL     1      46.982   4.912  14.077  0.00  0.00    +0.000 A 
ATOM     19  C   UNL     1      47.773   5.893  13.474  0.00  0.00    +0.000 A 
ATOM     20  C   UNL     1      47.256   6.683  12.441  0.00  0.00    +0.000 A 
ATOM     21  C   UNL     1      45.917   6.497  12.054  0.00  0.00    +0.000 A 
BRANCH  20  22
ATOM     22  C   UNL     1      48.149   7.687  11.729  0.00  0.00    +0.000 C 
ATOM     23  C   UNL     1      49.639   7.417  11.999  0.00  0.00    +0.000 C 
ATOM     24  C   UNL     1      50.539   8.482  11.376  0.00  0.00    +0.000 C 
ATOM     25  C   UNL     1      50.134   9.883  11.819  0.00  0.00    +0.000 C 
ATOM     26  C   UNL     1      48.676  10.168  11.482  0.00  0.00    +0.000 C 
ATOM     27  C   UNL     1      47.749   9.129  12.103  0.00  0.00    +0.000 C 
ENDBRANCH  20  22
ENDBRANCH  15  16
ENDBRANCH   1  15
TORSDOF 6
ENDMDL
MODEL 3
REMARK VINA RESULT:    -7.156      4.087      7.543
REMARK INTER + INTRA:         -10.686
REMARK INTER:                  -9.986
REMARK INTRA:                  -0.700
REMARK UNBOUND:                -1.019
REMARK  Name = 
REMARK  6 active torsions:
REMARK  status: ('A' for Active; 'I' for Inactive)
REMARK    1  A    between atoms: C_2  and  C_4
REMARK    2  A    between atoms: C_7  and  N_8
REMARK    3  A    between atoms: N_8  and  C_9
REMARK    4  A    between atoms: C_9  and  C_10
REMARK    5  A    between atoms: C_10  and  C_11
REMARK    6  A    between atoms: C_15  and  C_16
REMARK                            x       y       z     vdW  Elec       q    Type
REMARK                         _______ _______ _______ _____ _____    ______ ____
ROOT
ATOM      1  C   UNL     1      44.084   5.075  11.132  0.00  0.00    +0.000 C 
ENDROOT
BRANCH   1   2
ATOM      2  N   UNL     1      43.934   5.003   9.670  0.00  0.00    +0.000 N 
ATOM      3  H   UNL     1      44.141   5.890   9.218  0.00  0.00    +0.000 HD
BRANCH   2   7
ATOM      4  C   UNL     1      46.169   1.952   8.025  0.00  0.00    +0.000 A 
ATOM      5  C   UNL     1      46.278   3.248   7.548  0.00  0.00    +0.000 A 
ATOM      6  N   UNL     1      45.553   4.279   8.056  0.00  0.00    +0.000 NA
ATOM      7  C   UNL     1      44.699   3.988   9.062  0.00  0.00    +0.000 A 
ATOM      8  C   UNL     1      44.606   2.667   9.531  0.00  0.00    +0.000 A 
ATOM      9  N   UNL     1      45.318   1.618   9.033  0.00  0.00    +0.000 NA
BRANCH   4  11
ATOM     10  N   UNL     1      47.927   1.269   6.497  0.00  0.00    +0.000 N 
ATOM     11  C   UNL     1      47.006   0.875   7.429  0.00  0.00    +0.000 C 
ATOM     12  O   UNL     1      46.888  -0.301   7.756  0.00  0.00    +0.000 OA
ATOM     13  H   UNL     1      48.535   0.578   6.082  0.00  0.00    +0.000 HD
ATOM     14  H   UNL     1      48.035   2.250   6.270  0.00  0.00    +0.000 HD
ENDBRANCH   4  11
ENDBRANCH   2   7
ENDBRANCH   1   2
BRANCH   1  15
ATOM     15  C   UNL     1      45.543   5.380  11.507  0.00  0.00    +0.000 C 
BRANCH  15  16
ATOM     16  C   UNL     1      45.765   6.847  11.793  0.00  0.00    +0.000 A 
ATOM     17  C   UNL     1      46.978   7.302  12.322  0.00  0.00    +0.000 A 
ATOM     18  C   UNL     1      47.183   8.662  12.558  0.00  0.00    +0.000 A 
ATOM     19  C   UNL     1      46.185   9.588  12.246  0.00  0.00    +0.000 A 
ATOM     20  C   UNL     1      44.973   9.163  11.690  0.00  0.00    +0.000 A 
ATOM     21  C   UNL     1      44.768   7.787  11.491  0.00  0.00    +0.000 A 
BRANCH  20  22
ATOM     22  C   UNL     1      43.926  10.184  11.271  0.00  0.00    +0.000 C 
ATOM     23  C   UNL     1      42.655   9.508  10.729  0.00  0.00    +0.000 C 
ATOM     24  C   UNL     1      41.642  10.523  10.208  0.00  0.00    +0.000 C 
ATOM     25  C   UNL     1      42.265  11.454   9.173  0.00  0.00    +0.000 C 
ATOM     26  C   UNL     1      43.481  12.174   9.743  0.00  0.00    +0.000 C 
ATOM     27  C   UNL     1      44.521  11.185  10.259  0.00  0.00    +0.000 C 
ENDBRANCH  20  22
ENDBRANCH  15  16
ENDBRANCH   1  15
TORSDOF 6
ENDMDL
MODEL 4
REMARK VINA RESULT:    -7.080      3.516      7.621
REMARK INTER + INTRA:         -10.582
REMARK INTER:                  -9.676
REMARK INTRA:                  -0.907
REMARK UNBOUND:                -1.019
REMARK  Name = 
REMARK  6 active torsions:
REMARK  status: ('A' for Active; 'I' for Inactive)
REMARK    1  A    between atoms: C_2  and  C_4
REMARK    2  A    between atoms: C_7  and  N_8
REMARK    3  A    between atoms: N_8  and  C_9
REMARK    4  A    between atoms: C_9  and  C_10
REMARK    5  A    between atoms: C_10  and  C_11
REMARK    6  A    between atoms: C_15  and  C_16
REMARK                            x       y       z     vdW  Elec       q    Type
REMARK                         _______ _______ _______ _____ _____    ______ ____
ROOT
ATOM      1  C   UNL     1      43.892   4.473  11.400  0.00  0.00    +0.000 C 
ENDROOT
BRANCH   1   2
ATOM      2  N   UNL     1      43.747   4.600   9.941  0.00  0.00    +0.000 N 
ATOM      3  H   UNL     1      43.713   5.571   9.642  0.00  0.00    +0.000 HD
BRANCH   2   7
ATOM      4  C   UNL     1      46.650   2.744   7.675  0.00  0.00    +0.000 A 
ATOM      5  C   UNL     1      45.780   2.004   8.458  0.00  0.00    +0.000 A 
ATOM      6  N   UNL     1      44.816   2.577   9.226  0.00  0.00    +0.000 NA
ATOM      7  C   UNL     1      44.738   3.925   9.202  0.00  0.00    +0.000 A 
ATOM      8  C   UNL     1      45.630   4.656   8.399  0.00  0.00    +0.000 A 
ATOM      9  N   UNL     1      46.607   4.104   7.628  0.00  0.00    +0.000 NA
BRANCH   4  11
ATOM     10  N   UNL     1      48.587   2.844   6.216  0.00  0.00    +0.000 N 
ATOM     11  C   UNL     1      47.673   2.047   6.848  0.00  0.00    +0.000 C 
ATOM     12  O   UNL     1      47.703   0.826   6.739  0.00  0.00    +0.000 OA
ATOM     13  H   UNL     1      49.315   2.416   5.662  0.00  0.00    +0.000 HD
ATOM     14  H   UNL     1      48.569   3.848   6.350  0.00  0.00    +0.000 HD
ENDBRANCH   4  11
ENDBRANCH   2   7
ENDBRANCH   1   2
BRANCH   1  15
ATOM     15  C   UNL     1      44.158   5.848  12.035  0.00  0.00    +0.000 C 
BRANCH  15  16
ATOM     16  C   UNL     1      45.612   6.037  12.399  0.00  0.00    +0.000 A 
ATOM     17  C   UNL     1      46.439   6.876  11.643  0.00  0.00    +0.000 A 
ATOM     18  C   UNL     1      47.774   7.065  12.003  0.00  0.00    +0.000 A 
ATOM     19  C   UNL     1      48.294   6.435  13.136  0.00  0.00    +0.000 A 
ATOM     20  C   UNL     1      47.481   5.613  13.925  0.00  0.00    +0.000 A 
ATOM     21  C   UNL     1      46.148   5.404  13.530  0.00  0.00    +0.000 A 
BRANCH  20  22
ATOM     22  C   UNL     1      48.029   5.001  15.205  0.00  0.00    +0.000 C 
ATOM     23  C   UNL     1      46.985   4.112  15.903  0.00  0.00    +0.000 C 
ATOM     24  C   UNL     1      47.489   3.579  17.243  0.00  0.00    +0.000 C 
ATOM     25  C   UNL     1      47.961   4.709  18.151  0.00  0.00    +0.000 C 
ATOM     26  C   UNL     1      49.047   5.540  17.478  0.00  0.00    +0.000 C 
ATOM     27  C   UNL     1      48.569   6.100  16.142  0.00  0.00    +0.000 C 
ENDBRANCH  20  22
ENDBRANCH  15  16
ENDBRANCH   1  15
TORSDOF 6
ENDMDL
MODEL 5
REMARK VINA RESULT:    -6.784      1.760      2.403
REMARK INTER + INTRA:         -10.182
REMARK INTER:                  -9.497
REMARK INTRA:                  -0.686
REMARK UNBOUND:                -1.019
REMARK  Name = 
REMARK  6 active torsions:
REMARK  status: ('A' for Active; 'I' for Inactive)
REMARK    1  A    between atoms: C_2  and  C_4
REMARK    2  A    between atoms: C_7  and  N_8
REMARK    3  A    between atoms: N_8  and  C_9
REMARK    4  A    between atoms: C_9  and  C_10
REMARK    5  A    between atoms: C_10  and  C_11
REMARK    6  A    between atoms: C_15  and  C_16
REMARK                            x       y       z     vdW  Elec       q    Type
REMARK                         _______ _______ _______ _____ _____    ______ ____
ROOT
ATOM      1  C   UNL     1      47.640   6.072  13.052  0.00  0.00    +0.000 C 
ENDROOT
BRANCH   1   2
ATOM      2  N   UNL     1      48.356   6.839  14.084  0.00  0.00    +0.000 N 
ATOM      3  H   UNL     1      47.999   7.787  14.174  0.00  0.00    +0.000 HD
BRANCH   2   7
ATOM      4  C   UNL     1      48.505   5.140  17.839  0.00  0.00    +0.000 A 
ATOM      5  C   UNL     1      47.976   4.443  16.766  0.00  0.00    +0.000 A 
ATOM      6  N   UNL     1      47.900   4.970  15.515  0.00  0.00    +0.000 NA
ATOM      7  C   UNL     1      48.364   6.228  15.353  0.00  0.00    +0.000 A 
ATOM      8  C   UNL     1      48.899   6.916  16.456  0.00  0.00    +0.000 A 
ATOM      9  N   UNL     1      48.979   6.410  17.718  0.00  0.00    +0.000 NA
BRANCH   4  11
ATOM     10  N   UNL     1      48.445   3.131  19.199  0.00  0.00    +0.000 N 
ATOM     11  C   UNL     1      48.569   4.493  19.178  0.00  0.00    +0.000 C 
ATOM     12  O   UNL     1      48.731   5.138  20.209  0.00  0.00    +0.000 OA
ATOM     13  H   UNL     1      48.506   2.644  20.082  0.00  0.00    +0.000 HD
ATOM     14  H   UNL     1      48.351   2.613  18.334  0.00  0.00    +0.000 HD
ENDBRANCH   4  11
ENDBRANCH   2   7
ENDBRANCH   1   2
BRANCH   1  15
ATOM     15  C   UNL     1      46.673   6.984  12.280  0.00  0.00    +0.000 C 
BRANCH  15  16
ATOM     16  C   UNL     1      45.557   6.206  11.622  0.00  0.00    +0.000 A 
ATOM     17  C   UNL     1      44.220   6.425  11.976  0.00  0.00    +0.000 A 
ATOM     18  C   UNL     1      43.195   5.720  11.344  0.00  0.00    +0.000 A 
ATOM     19  C   UNL     1      43.491   4.803  10.333  0.00  0.00    +0.000 A 
ATOM     20  C   UNL     1      44.816   4.586   9.940  0.00  0.00    +0.000 A 
ATOM     21  C   UNL     1      45.841   5.277  10.610  0.00  0.00    +0.000 A 
BRANCH  20  22
ATOM     22  C   UNL     1      45.124   3.653   8.779  0.00  0.00    +0.000 C 
ATOM     23  C   UNL     1      45.486   2.239   9.265  0.00  0.00    +0.000 C 
ATOM     24  C   UNL     1      45.900   1.324   8.115  0.00  0.00    +0.000 C 
ATOM     25  C   UNL     1      47.026   1.939   7.290  0.00  0.00    +0.000 C 
ATOM     26  C   UNL     1      46.630   3.309   6.752  0.00  0.00    +0.000 C 
ATOM     27  C   UNL     1      46.225   4.252   7.880  0.00  0.00    +0.000 C 
ENDBRANCH  20  22
ENDBRANCH  15  16
ENDBRANCH   1  15
TORSDOF 6
ENDMDL
MODEL 6
REMARK VINA RESULT:    -6.478      3.015      4.583
REMARK INTER + INTRA:          -9.769
REMARK INTER:                  -8.742
REMARK INTRA:                  -1.027
REMARK UNBOUND:                -1.019
REMARK  Name = 
REMARK  6 active torsions:
REMARK  status: ('A' for Active; 'I' for Inactive)
REMARK    1  A    between atoms: C_2  and  C_4
REMARK    2  A    between atoms: C_7  and  N_8
REMARK    3  A    between atoms: N_8  and  C_9
REMARK    4  A    between atoms: C_9  and  C_10
REMARK    5  A    between atoms: C_10  and  C_11
REMARK    6  A    between atoms: C_15  and  C_16
REMARK                            x       y       z     vdW  Elec       q    Type
REMARK                         _______ _______ _______ _____ _____    ______ ____
ROOT
ATOM      1  C   UNL     1      49.925   7.522  13.494  0.00  0.00    +0.000 C 
ENDROOT
BRANCH   1   2
ATOM      2  N   UNL     1      49.315   7.885  14.783  0.00  0.00    +0.000 N 
ATOM      3  H   UNL     1      48.562   8.559  14.674  0.00  0.00    +0.000 HD
BRANCH   2   7
ATOM      4  C   UNL     1      48.060   4.683  17.059  0.00  0.00    +0.000 A 
ATOM      5  C   UNL     1      47.736   4.768  15.715  0.00  0.00    +0.000 A 
ATOM      6  N   UNL     1      48.122   5.811  14.932  0.00  0.00    +0.000 NA
ATOM      7  C   UNL     1      48.844   6.785  15.527  0.00  0.00    +0.000 A 
ATOM      8  C   UNL     1      49.163   6.677  16.891  0.00  0.00    +0.000 A 
ATOM      9  N   UNL     1      48.781   5.646  17.695  0.00  0.00    +0.000 NA
BRANCH   4  11
ATOM     10  N   UNL     1      48.311   3.247  19.000  0.00  0.00    +0.000 N 
ATOM     11  C   UNL     1      47.614   3.503  17.851  0.00  0.00    +0.000 C 
ATOM     12  O   UNL     1      46.673   2.800  17.502  0.00  0.00    +0.000 OA
ATOM     13  H   UNL     1      48.032   2.472  19.583  0.00  0.00    +0.000 HD
ATOM     14  H   UNL     1      49.061   3.863  19.291  0.00  0.00    +0.000 HD
ENDBRANCH   4  11
ENDBRANCH   2   7
ENDBRANCH   1   2
BRANCH   1  15
ATOM     15  C   UNL     1      49.381   8.420  12.371  0.00  0.00    +0.000 C 
BRANCH  15  16
ATOM     16  C   UNL     1      47.881   8.304  12.223  0.00  0.00    +0.000 A 
ATOM     17  C   UNL     1      47.063   9.438  12.274  0.00  0.00    +0.000 A 
ATOM     18  C   UNL     1      45.682   9.323  12.110  0.00  0.00    +0.000 A 
ATOM     19  C   UNL     1      45.103   8.075  11.871  0.00  0.00    +0.000 A 
ATOM     20  C   UNL     1      45.901   6.928  11.787  0.00  0.00    +0.000 A 
ATOM     21  C   UNL     1      47.287   7.055  11.989  0.00  0.00    +0.000 A 
BRANCH  20  22
ATOM     22  C   UNL     1      45.276   5.586  11.438  0.00  0.00    +0.000 C 
ATOM     23  C   UNL     1      43.747   5.690  11.297  0.00  0.00    +0.000 C 
ATOM     24  C   UNL     1      43.099   4.330  11.052  0.00  0.00    +0.000 C 
ATOM     25  C   UNL     1      43.496   3.321  12.125  0.00  0.00    +0.000 C 
ATOM     26  C   UNL     1      45.011   3.172  12.207  0.00  0.00    +0.000 C 
ATOM     27  C   UNL     1      45.687   4.513  12.466  0.00  0.00    +0.000 C 
ENDBRANCH  20  22
ENDBRANCH  15  16
ENDBRANCH   1  15
TORSDOF 6
ENDMDL
MODEL 7
REMARK VINA RESULT:    -6.395      2.298      4.150
REMARK INTER + INTRA:          -9.658
REMARK INTER:                  -8.875
REMARK INTRA:                  -0.783
REMARK UNBOUND:                -1.019
REMARK  Name = 
REMARK  6 active torsions:
REMARK  status: ('A' for Active; 'I' for Inactive)
REMARK    1  A    between atoms: C_2  and  C_4
REMARK    2  A    between atoms: C_7  and  N_8
REMARK    3  A    between atoms: N_8  and  C_9
REMARK    4  A    between atoms: C_9  and  C_10
REMARK    5  A    between atoms: C_10  and  C_11
REMARK    6  A    between atoms: C_15  and  C_16
REMARK                            x       y       z     vdW  Elec       q    Type
REMARK                         _______ _______ _______ _____ _____    ______ ____
ROOT
ATOM      1  C   UNL     1      48.695   7.133  15.285  0.00  0.00    +0.000 C 
ENDROOT
BRANCH   1   2
ATOM      2  N   UNL     1      48.098   6.161  16.215  0.00  0.00    +0.000 N 
ATOM      3  H   UNL     1      47.256   5.735  15.837  0.00  0.00    +0.000 HD
BRANCH   2   7
ATOM      4  C   UNL     1      50.802   3.272  17.379  0.00  0.00    +0.000 A 
ATOM      5  C   UNL     1      49.500   2.933  17.048  0.00  0.00    +0.000 A 
ATOM      6  N   UNL     1      48.576   3.856  16.669  0.00  0.00    +0.000 NA
ATOM      7  C   UNL     1      48.981   5.144  16.630  0.00  0.00    +0.000 A 
ATOM      8  C   UNL     1      50.307   5.464  16.967  0.00  0.00    +0.000 A 
ATOM      9  N   UNL     1      51.246   4.558  17.355  0.00  0.00    +0.000 NA
BRANCH   4  11
ATOM     10  N   UNL     1      51.508   0.951  17.287  0.00  0.00    +0.000 N 
ATOM     11  C   UNL     1      51.764   2.205  17.771  0.00  0.00    +0.000 C 
ATOM     12  O   UNL     1      52.737   2.432  18.482  0.00  0.00    +0.000 OA
ATOM     13  H   UNL     1      52.145   0.199  17.506  0.00  0.00    +0.000 HD
ATOM     14  H   UNL     1      50.721   0.793  16.670  0.00  0.00    +0.000 HD
ENDBRANCH   4  11
ENDBRANCH   2   7
ENDBRANCH   1   2
BRANCH   1  15
ATOM     15  C   UNL     1      48.634   6.604  13.843  0.00  0.00    +0.000 C 
BRANCH  15  16
ATOM     16  C   UNL     1      47.318   6.926  13.172  0.00  0.00    +0.000 A 
ATOM     17  C   UNL     1      46.744   8.197  13.289  0.00  0.00    +0.000 A 
ATOM     18  C   UNL     1      45.542   8.494  12.644  0.00  0.00    +0.000 A 
ATOM     19  C   UNL     1      44.910   7.530  11.856  0.00  0.00    +0.000 A 
ATOM     20  C   UNL     1      45.478   6.260  11.699  0.00  0.00    +0.000 A 
ATOM     21  C   UNL     1      46.670   5.965  12.383  0.00  0.00    +0.000 A 
BRANCH  20  22
ATOM     22  C   UNL     1      44.831   5.245  10.769  0.00  0.00    +0.000 C 
ATOM     23  C   UNL     1      44.712   3.861  11.430  0.00  0.00    +0.000 C 
ATOM     24  C   UNL     1      44.163   2.811  10.468  0.00  0.00    +0.000 C 
ATOM     25  C   UNL     1      44.980   2.749   9.182  0.00  0.00    +0.000 C 
ATOM     26  C   UNL     1      45.032   4.109   8.497  0.00  0.00    +0.000 C 
ATOM     27  C   UNL     1      45.591   5.179   9.428  0.00  0.00    +0.000 C 
ENDBRANCH  20  22
ENDBRANCH  15  16
ENDBRANCH   1  15
TORSDOF 6
ENDMDL
MODEL 8
REMARK VINA RESULT:    -6.271      3.316      7.713
REMARK INTER + INTRA:          -9.490
REMARK INTER:                  -8.637
REMARK INTRA:                  -0.853
REMARK UNBOUND:                -1.019
REMARK  Name = 
REMARK  6 active torsions:
REMARK  status: ('A' for Active; 'I' for Inactive)
REMARK    1  A    between atoms: C_2  and  C_4
REMARK    2  A    between atoms: C_7  and  N_8
REMARK    3  A    between atoms: N_8  and  C_9
REMARK    4  A    between atoms: C_9  and  C_10
REMARK    5  A    between atoms: C_10  and  C_11
REMARK    6  A    between atoms: C_15  and  C_16
REMARK                            x       y       z     vdW  Elec       q    Type
REMARK                         _______ _______ _______ _____ _____    ______ ____
ROOT
ATOM      1  C   UNL     1      47.970   7.350  13.134  0.00  0.00    +0.000 C 
ENDROOT
BRANCH   1   2
ATOM      2  N   UNL     1      46.534   7.286  13.448  0.00  0.00    +0.000 N 
ATOM      3  H   UNL     1      46.049   8.145  13.201  0.00  0.00    +0.000 HD
BRANCH   2   7
ATOM      4  C   UNL     1      44.674   3.993  11.802  0.00  0.00    +0.000 A 
ATOM      5  C   UNL     1      44.617   5.228  11.176  0.00  0.00    +0.000 A 
ATOM      6  N   UNL     1      45.208   6.339  11.690  0.00  0.00    +0.000 NA
ATOM      7  C   UNL     1      45.864   6.194  12.862  0.00  0.00    +0.000 A 
ATOM      8  C   UNL     1      45.912   4.932  13.478  0.00  0.00    +0.000 A 
ATOM      9  N   UNL     1      45.322   3.808  12.985  0.00  0.00    +0.000 NA
BRANCH   4  11
ATOM     10  N   UNL     1      44.614   2.316  10.048  0.00  0.00    +0.000 N 
ATOM     11  C   UNL     1      44.015   2.816  11.172  0.00  0.00    +0.000 C 
ATOM     12  O   UNL     1      42.996   2.314  11.632  0.00  0.00    +0.000 OA
ATOM     13  H   UNL     1      44.219   1.503   9.599  0.00  0.00    +0.000 HD
ATOM     14  H   UNL     1      45.478   2.721   9.707  0.00  0.00    +0.000 HD
ENDBRANCH   4  11
ENDBRANCH   2   7
ENDBRANCH   1   2
BRANCH   1  15
ATOM     15  C   UNL     1      48.662   8.419  13.996  0.00  0.00    +0.000 C 
BRANCH  15  16
ATOM     16  C   UNL     1      48.694   8.039  15.458  0.00  0.00    +0.000 A 
ATOM     17  C   UNL     1      48.342   8.963  16.449  0.00  0.00    +0.000 A 
ATOM     18  C   UNL     1      48.350   8.594  17.795  0.00  0.00    +0.000 A 
ATOM     19  C   UNL     1      48.688   7.291  18.167  0.00  0.00    +0.000 A 
ATOM     20  C   UNL     1      49.017   6.340  17.194  0.00  0.00    +0.000 A 
ATOM     21  C   UNL     1      49.039   6.735  15.845  0.00  0.00    +0.000 A 
BRANCH  20  22
ATOM     22  C   UNL     1      49.297   4.901  17.598  0.00  0.00    +0.000 C 
ATOM     23  C   UNL     1      50.786   4.546  17.445  0.00  0.00    +0.000 C 
ATOM     24  C   UNL     1      51.060   3.075  17.747  0.00  0.00    +0.000 C 
ATOM     25  C   UNL     1      50.176   2.159  16.907  0.00  0.00    +0.000 C 
ATOM     26  C   UNL     1      48.700   2.470  17.120  0.00  0.00    +0.000 C 
ATOM     27  C   UNL     1      48.391   3.932  16.812  0.00  0.00    +0.000 C 
ENDBRANCH  20  22
ENDBRANCH  15  16
ENDBRANCH   1  15
TORSDOF 6
ENDMDL
MODEL 9
REMARK VINA RESULT:    -6.150      4.283      7.535
REMARK INTER + INTRA:          -9.326
REMARK INTER:                  -9.030
REMARK INTRA:                  -0.296
REMARK UNBOUND:                -1.019
REMARK  Name = 
REMARK  6 active torsions:
REMARK  status: ('A' for Active; 'I' for Inactive)
REMARK    1  A    between atoms: C_2  and  C_4
REMARK    2  A    between atoms: C_7  and  N_8
REMARK    3  A    between atoms: N_8  and  C_9
REMARK    4  A    between atoms: C_9  and  C_10
REMARK    5  A    between atoms: C_10  and  C_11
REMARK    6  A    between atoms: C_15  and  C_16
REMARK                            x       y       z     vdW  Elec       q    Type
REMARK                         _______ _______ _______ _____ _____    ______ ____
ROOT
ATOM      1  C   UNL     1      44.734   4.478  11.332  0.00  0.00    +0.000 C 
ENDROOT
BRANCH   1   2
ATOM      2  N   UNL     1      44.159   3.484  10.412  0.00  0.00    +0.000 N 
ATOM      3  H   UNL     1      43.247   3.768  10.063  0.00  0.00    +0.000 HD
BRANCH   2   7
ATOM      4  C   UNL     1      46.523   2.658   7.134  0.00  0.00    +0.000 A 
ATOM      5  C   UNL     1      46.194   1.664   8.041  0.00  0.00    +0.000 A 
ATOM      6  N   UNL     1      45.426   1.897   9.138  0.00  0.00    +0.000 NA
ATOM      7  C   UNL     1      44.989   3.162   9.320  0.00  0.00    +0.000 A 
ATOM      8  C   UNL     1      45.332   4.154   8.386  0.00  0.00    +0.000 A 
ATOM      9  N   UNL     1      46.105   3.945   7.284  0.00  0.00    +0.000 NA
BRANCH   4  11
ATOM     10  N   UNL     1      48.711   2.438   6.107  0.00  0.00    +0.000 N 
ATOM     11  C   UNL     1      47.357   2.326   5.947  0.00  0.00    +0.000 C 
ATOM     12  O   UNL     1      46.865   1.966   4.883  0.00  0.00    +0.000 OA
ATOM     13  H   UNL     1      49.320   2.201   5.337  0.00  0.00    +0.000 HD
ATOM     14  H   UNL     1      49.099   2.700   7.005  0.00  0.00    +0.000 HD
ENDBRANCH   4  11
ENDBRANCH   2   7
ENDBRANCH   1   2
BRANCH   1  15
ATOM     15  C   UNL     1      44.547   5.898  10.774  0.00  0.00    +0.000 C 
BRANCH  15  16
ATOM     16  C   UNL     1      45.363   6.921  11.531  0.00  0.00    +0.000 A 
ATOM     17  C   UNL     1      44.744   7.985  12.196  0.00  0.00    +0.000 A 
ATOM     18  C   UNL     1      45.504   8.909  12.915  0.00  0.00    +0.000 A 
ATOM     19  C   UNL     1      46.891   8.768  12.996  0.00  0.00    +0.000 A 
ATOM     20  C   UNL     1      47.533   7.697  12.364  0.00  0.00    +0.000 A 
ATOM     21  C   UNL     1      46.758   6.794  11.615  0.00  0.00    +0.000 A 
BRANCH  20  22
ATOM     22  C   UNL     1      49.032   7.499  12.531  0.00  0.00    +0.000 C 
ATOM     23  C   UNL     1      49.545   8.118  13.842  0.00  0.00    +0.000 C 
ATOM     24  C   UNL     1      51.064   8.018  13.968  0.00  0.00    +0.000 C 
ATOM     25  C   UNL     1      51.765   8.615  12.753  0.00  0.00    +0.000 C 
ATOM     26  C   UNL     1      51.302   7.945  11.465  0.00  0.00    +0.000 C 
ATOM     27  C   UNL     1      49.789   8.041  11.303  0.00  0.00    +0.000 C 
ENDBRANCH  20  22
ENDBRANCH  15  16
ENDBRANCH   1  15
TORSDOF 6
ENDMDL
