MODEL 1
REMARK VINA RESULT:    -7.704      0.000      0.000
REMARK INTER + INTRA:         -10.606
REMARK INTER:                  -9.505
REMARK INTRA:                  -1.101
REMARK UNBOUND:                -1.101
REMARK  Name = 
REMARK  4 active torsions:
REMARK  status: ('A' for Active; 'I' for Inactive)
REMARK    1  A    between atoms: C_6  and  O_7
REMARK    2  A    between atoms: O_7  and  C_8
REMARK    3  A    between atoms: C_8  and  C_9
REMARK    4  A    between atoms: C_13  and  C_14
REMARK                            x       y       z     vdW  Elec       q    Type
REMARK                         _______ _______ _______ _____ _____    ______ ____
ROOT
ATOM      1  C   UNL     1      45.281   5.018  12.100  0.00  0.00    +0.000 A 
ATOM      2  C   UNL     1      45.798   4.140  13.063  0.00  0.00    +0.000 A 
ATOM      3  C   UNL     1      46.985   4.423  13.738  0.00  0.00    +0.000 A 
ATOM      4  C   UNL     1      47.692   5.594  13.456  0.00  0.00    +0.000 A 
ATOM      5  C   UNL     1      47.222   6.513  12.506  0.00  0.00    +0.000 A 
ATOM      6  C   UNL     1      46.000   6.212  11.872  0.00  0.00    +0.000 A 
ENDROOT
BRANCH   5   7
ATOM      7  C   UNL     1      47.997   7.718  12.138  0.00  0.00    +0.000 A 
ATOM      8  C   UNL     1      49.348   7.661  11.765  0.00  0.00    +0.000 A 
ATOM      9  C   UNL     1      50.057   8.828  11.473  0.00  0.00    +0.000 A 
ATOM     10  C   UNL     1      49.392  10.038  11.550  0.00  0.00    +0.000 A 
ATOM     11  N   UNL     1      48.097  10.153  11.897  0.00  0.00    +0.000 NA
ATOM     12  C   UNL     1      47.440   9.000  12.184  0.00  0.00    +0.000 A 
ENDBRANCH   5   7
BRANCH   1  13
ATOM     13  C   UNL     1      44.036   4.674  11.291  0.00  0.00    +0.000 C 
ATOM     14  C   UNL     1      42.685   4.725  12.013  0.00  0.00    +0.000 C 
ATOM     15  C   UNL     1      43.027   5.773  11.013  0.00  0.00    +0.000 C 
BRANCH  13  16
ATOM     16  O   UNL     1      44.102   3.498  10.454  0.00  0.00    +0.000 OA
BRANCH  16  22
ATOM     17 CL   UNL     1      46.693   0.179   7.725  0.00  0.00    +0.000 Cl
ATOM     18  C   UNL     1      46.235   1.801   8.070  0.00  0.00    +0.000 A 
ATOM     19  C   UNL     1      46.689   2.834   7.257  0.00  0.00    +0.000 A 
ATOM     20  C   UNL     1      46.315   4.148   7.542  0.00  0.00    +0.000 A 
ATOM     21  C   UNL     1      45.486   4.425   8.638  0.00  0.00    +0.000 A 
ATOM     22  C   UNL     1      45.013   3.386   9.440  0.00  0.00    +0.000 A 
ATOM     23  C   UNL     1      45.396   2.071   9.150  0.00  0.00    +0.000 A 
ENDBRANCH  16  22
ENDBRANCH  13  16
ENDBRANCH   1  13
TORSDOF 4
ENDMDL
MODEL 2
REMARK VINA RESULT:    -6.804      1.614      2.014
REMARK INTER + INTRA:          -9.495
REMARK INTER:                  -8.561
REMARK INTRA:                  -0.934
REMARK UNBOUND:                -1.101
REMARK  Name = 
REMARK  4 active torsions:
REMARK  status: ('A' for Active; 'I' for Inactive)
REMARK    1  A    between atoms: C_6  and  O_7
REMARK    2  A    between atoms: O_7  and  C_8
REMARK    3  A    between atoms: C_8  and  C_9
REMARK    4  A    between atoms: C_13  and  C_14
REMARK                            x       y       z     vdW  Elec       q    Type
REMARK                         _______ _______ _______ _____ _____    ______ ____
ROOT
ATOM      1  C   UNL     1      45.167   5.898  12.434  0.00  0.00    +0.000 A 
ATOM      2  C   UNL     1      46.312   5.365  13.042  0.00  0.00    +0.000 A 
ATOM      3  C   UNL     1      47.383   6.180  13.406  0.00  0.00    +0.000 A 
ATOM      4  C   UNL     1      47.337   7.554  13.161  0.00  0.00    +0.000 A 
ATOM      5  C   UNL     1      46.216   8.145  12.559  0.00  0.00    +0.000 A 
ATOM      6  C   UNL     1      45.138   7.297  12.240  0.00  0.00    +0.000 A 
ENDROOT
BRANCH   5   7
ATOM      7  C   UNL     1      46.182   9.584  12.220  0.00  0.00    +0.000 A 
ATOM      8  C   UNL     1      47.346  10.351  12.069  0.00  0.00    +0.000 A 
ATOM      9  C   UNL     1      47.270  11.718  11.797  0.00  0.00    +0.000 A 
ATOM     10  C   UNL     1      46.019  12.295  11.670  0.00  0.00    +0.000 A 
ATOM     11  N   UNL     1      44.869  11.608  11.798  0.00  0.00    +0.000 NA
ATOM     12  C   UNL     1      44.979  10.283  12.073  0.00  0.00    +0.000 A 
ENDBRANCH   5   7
BRANCH   1  13
ATOM     13  C   UNL     1      44.031   5.005  11.948  0.00  0.00    +0.000 C 
ATOM     14  C   UNL     1      42.839   4.798  12.888  0.00  0.00    +0.000 C 
ATOM     15  C   UNL     1      42.681   5.638  11.670  0.00  0.00    +0.000 C 
BRANCH  13  16
ATOM     16  O   UNL     1      44.401   3.747  11.340  0.00  0.00    +0.000 OA
BRANCH  16  22
ATOM     17 CL   UNL     1      46.268   0.586   7.919  0.00  0.00    +0.000 Cl
ATOM     18  C   UNL     1      45.912   2.186   8.443  0.00  0.00    +0.000 A 
ATOM     19  C   UNL     1      46.169   3.261   7.599  0.00  0.00    +0.000 A 
ATOM     20  C   UNL     1      45.879   4.556   8.029  0.00  0.00    +0.000 A 
ATOM     21  C   UNL     1      45.329   4.773   9.300  0.00  0.00    +0.000 A 
ATOM     22  C   UNL     1      45.051   3.692  10.137  0.00  0.00    +0.000 A 
ATOM     23  C   UNL     1      45.348   2.396   9.700  0.00  0.00    +0.000 A 
ENDBRANCH  16  22
ENDBRANCH  13  16
ENDBRANCH   1  13
TORSDOF 4
ENDMDL
MODEL 3
REMARK VINA RESULT:    -6.731      2.052      3.426
REMARK INTER + INTRA:          -9.405
REMARK INTER:                  -9.511
REMARK INTRA:                   0.106
REMARK UNBOUND:                -1.101
REMARK  Name = 
REMARK  4 active torsions:
REMARK  status: ('A' for Active; 'I' for Inactive)
REMARK    1  A    between atoms: C_6  and  O_7
REMARK    2  A    between atoms: O_7  and  C_8
REMARK    3  A    between atoms: C_8  and  C_9
REMARK    4  A    between atoms: C_13  and  C_14
REMARK                            x       y       z     vdW  Elec       q    Type
REMARK                         _______ _______ _______ _____ _____    ______ ____
ROOT
ATOM      1  C   UNL     1      45.280   5.013  11.529  0.00  0.00    +0.000 A 
ATOM      2  C   UNL     1      45.763   6.150  10.867  0.00  0.00    +0.000 A 
ATOM      3  C   UNL     1      46.799   6.914  11.404  0.00  0.00    +0.000 A 
ATOM      4  C   UNL     1      47.371   6.563  12.627  0.00  0.00    +0.000 A 
ATOM      5  C   UNL     1      46.932   5.433  13.334  0.00  0.00    +0.000 A 
ATOM      6  C   UNL     1      45.911   4.663  12.743  0.00  0.00    +0.000 A 
ENDROOT
BRANCH   5   7
ATOM      7  C   UNL     1      47.472   5.090  14.668  0.00  0.00    +0.000 A 
ATOM      8  C   UNL     1      47.029   3.978  15.398  0.00  0.00    +0.000 A 
ATOM      9  C   UNL     1      47.528   3.717  16.675  0.00  0.00    +0.000 A 
ATOM     10  C   UNL     1      48.478   4.576  17.198  0.00  0.00    +0.000 A 
ATOM     11  N   UNL     1      48.944   5.655  16.542  0.00  0.00    +0.000 NA
ATOM     12  C   UNL     1      48.430   5.885  15.307  0.00  0.00    +0.000 A 
ENDBRANCH   5   7
BRANCH   1  13
ATOM     13  C   UNL     1      44.088   4.225  10.998  0.00  0.00    +0.000 C 
ATOM     14  C   UNL     1      43.728   2.918  11.710  0.00  0.00    +0.000 C 
ATOM     15  C   UNL     1      42.851   4.109  11.870  0.00  0.00    +0.000 C 
BRANCH  13  16
ATOM     16  O   UNL     1      44.007   4.044   9.567  0.00  0.00    +0.000 OA
BRANCH  16  22
ATOM     17 CL   UNL     1      46.499   0.016   7.912  0.00  0.00    +0.000 Cl
ATOM     18  C   UNL     1      46.280   1.721   7.970  0.00  0.00    +0.000 A 
ATOM     19  C   UNL     1      47.089   2.548   7.197  0.00  0.00    +0.000 A 
ATOM     20  C   UNL     1      46.907   3.930   7.249  0.00  0.00    +0.000 A 
ATOM     21  C   UNL     1      45.915   4.483   8.071  0.00  0.00    +0.000 A 
ATOM     22  C   UNL     1      45.089   3.652   8.828  0.00  0.00    +0.000 A 
ATOM     23  C   UNL     1      45.280   2.266   8.773  0.00  0.00    +0.000 A 
ENDBRANCH  16  22
ENDBRANCH  13  16
ENDBRANCH   1  13
TORSDOF 4
ENDMDL
MODEL 4
REMARK VINA RESULT:    -6.649      3.758      6.901
REMARK INTER + INTRA:          -9.304
REMARK INTER:                  -8.307
REMARK INTRA:                  -0.998
REMARK UNBOUND:                -1.101
REMARK  Name = 
REMARK  4 active torsions:
REMARK  status: ('A' for Active; 'I' for Inactive)
REMARK    1  A    between atoms: C_6  and  O_7
REMARK    2  A    between atoms: O_7  and  C_8
REMARK    3  A    between atoms: C_8  and  C_9
REMARK    4  A    between atoms: C_13  and  C_14
REMARK                            x       y       z     vdW  Elec       q    Type
REMARK                         _______ _______ _______ _____ _____    ______ ____
ROOT
ATOM      1  C   UNL     1      45.346   6.386  11.788  0.00  0.00    +0.000 A 
ATOM      2  C   UNL     1      43.956   6.489  11.939  0.00  0.00    +0.000 A 
ATOM      3  C   UNL     1      43.088   5.671  11.217  0.00  0.00    +0.000 A 
ATOM      4  C   UNL     1      43.592   4.732  10.316  0.00  0.00    +0.000 A 
ATOM      5  C   UNL     1      44.974   4.580  10.125  0.00  0.00    +0.000 A 
ATOM      6  C   UNL     1      45.822   5.397  10.899  0.00  0.00    +0.000 A 
ENDROOT
BRANCH   5   7
ATOM      7  C   UNL     1      45.524   3.648   9.118  0.00  0.00    +0.000 A 
ATOM      8  C   UNL     1      46.107   4.088   7.921  0.00  0.00    +0.000 A 
ATOM      9  C   UNL     1      46.570   3.173   6.973  0.00  0.00    +0.000 A 
ATOM     10  C   UNL     1      46.449   1.823   7.249  0.00  0.00    +0.000 A 
ATOM     11  N   UNL     1      45.904   1.343   8.382  0.00  0.00    +0.000 NA
ATOM     12  C   UNL     1      45.455   2.259   9.276  0.00  0.00    +0.000 A 
ENDBRANCH   5   7
BRANCH   1  13
ATOM     13  C   UNL     1      46.300   7.338  12.502  0.00  0.00    +0.000 C 
ATOM     14  C   UNL     1      46.476   8.740  11.912  0.00  0.00    +0.000 C 
ATOM     15  C   UNL     1      45.723   8.564  13.183  0.00  0.00    +0.000 C 
BRANCH  13  16
ATOM     16  O   UNL     1      47.585   6.805  12.895  0.00  0.00    +0.000 OA
BRANCH  16  22
ATOM     17 CL   UNL     1      49.771   6.964  17.409  0.00  0.00    +0.000 Cl
ATOM     18  C   UNL     1      48.750   6.181  16.266  0.00  0.00    +0.000 A 
ATOM     19  C   UNL     1      48.082   5.014  16.623  0.00  0.00    +0.000 A 
ATOM     20  C   UNL     1      47.256   4.383  15.692  0.00  0.00    +0.000 A 
ATOM     21  C   UNL     1      47.097   4.922  14.408  0.00  0.00    +0.000 A 
ATOM     22  C   UNL     1      47.749   6.104  14.058  0.00  0.00    +0.000 A 
ATOM     23  C   UNL     1      48.579   6.730  14.996  0.00  0.00    +0.000 A 
ENDBRANCH  16  22
ENDBRANCH  13  16
ENDBRANCH   1  13
TORSDOF 4
ENDMDL
MODEL 5
REMARK VINA RESULT:    -6.618      3.936      6.977
REMARK INTER + INTRA:          -9.267
REMARK INTER:                  -8.313
REMARK INTRA:                  -0.954
REMARK UNBOUND:                -1.101
REMARK  Name = 
REMARK  4 active torsions:
REMARK  status: ('A' for Active; 'I' for Inactive)
REMARK    1  A    between atoms: C_6  and  O_7
REMARK    2  A    between atoms: O_7  and  C_8
REMARK    3  A    between atoms: C_8  and  C_9
REMARK    4  A    between atoms: C_13  and  C_14
REMARK                            x       y       z     vdW  Elec       q    Type
REMARK                         _______ _______ _______ _____ _____    ______ ____
ROOT
ATOM      1  C   UNL     1      45.169   6.465  11.591  0.00  0.00    +0.000 A 
ATOM      2  C   UNL     1      43.790   6.370  11.825  0.00  0.00    +0.000 A 
ATOM      3  C   UNL     1      43.013   5.402  11.190  0.00  0.00    +0.000 A 
ATOM      4  C   UNL     1      43.599   4.507  10.293  0.00  0.00    +0.000 A 
ATOM      5  C   UNL     1      44.975   4.551  10.021  0.00  0.00    +0.000 A 
ATOM      6  C   UNL     1      45.735   5.517  10.710  0.00  0.00    +0.000 A 
ENDROOT
BRANCH   5   7
ATOM      7  C   UNL     1      45.599   3.664   9.015  0.00  0.00    +0.000 A 
ATOM      8  C   UNL     1      46.258   4.157   7.879  0.00  0.00    +0.000 A 
ATOM      9  C   UNL     1      46.790   3.285   6.928  0.00  0.00    +0.000 A 
ATOM     10  C   UNL     1      46.662   1.924   7.139  0.00  0.00    +0.000 A 
ATOM     11  N   UNL     1      46.046   1.394   8.212  0.00  0.00    +0.000 NA
ATOM     12  C   UNL     1      45.531   2.270   9.111  0.00  0.00    +0.000 A 
ENDBRANCH   5   7
BRANCH   1  13
ATOM     13  C   UNL     1      46.010   7.577  12.207  0.00  0.00    +0.000 C 
ATOM     14  C   UNL     1      46.996   7.190  13.313  0.00  0.00    +0.000 C 
ATOM     15  C   UNL     1      47.509   7.568  11.969  0.00  0.00    +0.000 C 
BRANCH  13  16
ATOM     16  O   UNL     1      45.322   8.796  12.566  0.00  0.00    +0.000 OA
BRANCH  16  22
ATOM     17 CL   UNL     1      42.563  10.968   8.981  0.00  0.00    +0.000 Cl
ATOM     18  C   UNL     1      43.931  10.970  10.026  0.00  0.00    +0.000 A 
ATOM     19  C   UNL     1      44.785  12.067  10.043  0.00  0.00    +0.000 A 
ATOM     20  C   UNL     1      45.892  12.062  10.891  0.00  0.00    +0.000 A 
ATOM     21  C   UNL     1      46.142  10.961  11.723  0.00  0.00    +0.000 A 
ATOM     22  C   UNL     1      45.272   9.871  11.721  0.00  0.00    +0.000 A 
ATOM     23  C   UNL     1      44.165   9.881  10.864  0.00  0.00    +0.000 A 
ENDBRANCH  16  22
ENDBRANCH  13  16
ENDBRANCH   1  13
TORSDOF 4
ENDMDL
MODEL 6
REMARK VINA RESULT:    -6.526      2.394      3.425
REMARK INTER + INTRA:          -9.153
REMARK INTER:                  -9.005
REMARK INTRA:                  -0.148
REMARK UNBOUND:                -1.101
REMARK  Name = 
REMARK  4 active torsions:
REMARK  status: ('A' for Active; 'I' for Inactive)
REMARK    1  A    between atoms: C_6  and  O_7
REMARK    2  A    between atoms: O_7  and  C_8
REMARK    3  A    between atoms: C_8  and  C_9
REMARK    4  A    between atoms: C_13  and  C_14
REMARK                            x       y       z     vdW  Elec       q    Type
REMARK                         _______ _______ _______ _____ _____    ______ ____
ROOT
ATOM      1  C   UNL     1      44.903   5.661  11.668  0.00  0.00    +0.000 A 
ATOM      2  C   UNL     1      46.234   5.782  12.091  0.00  0.00    +0.000 A 
ATOM      3  C   UNL     1      46.843   7.030  12.215  0.00  0.00    +0.000 A 
ATOM      4  C   UNL     1      46.135   8.192  11.907  0.00  0.00    +0.000 A 
ATOM      5  C   UNL     1      44.799   8.135  11.482  0.00  0.00    +0.000 A 
ATOM      6  C   UNL     1      44.204   6.860  11.405  0.00  0.00    +0.000 A 
ENDROOT
BRANCH   5   7
ATOM      7  C   UNL     1      44.058   9.349  11.075  0.00  0.00    +0.000 A 
ATOM      8  C   UNL     1      42.705   9.318  10.704  0.00  0.00    +0.000 A 
ATOM      9  C   UNL     1      42.055  10.478  10.279  0.00  0.00    +0.000 A 
ATOM     10  C   UNL     1      42.774  11.659  10.243  0.00  0.00    +0.000 A 
ATOM     11  N   UNL     1      44.071  11.750  10.593  0.00  0.00    +0.000 NA
ATOM     12  C   UNL     1      44.674  10.602  10.991  0.00  0.00    +0.000 A 
ENDBRANCH   5   7
BRANCH   1  13
ATOM     13  C   UNL     1      44.257   4.300  11.440  0.00  0.00    +0.000 C 
ATOM     14  C   UNL     1      44.823   3.107  12.218  0.00  0.00    +0.000 C 
ATOM     15  C   UNL     1      43.491   3.661  12.584  0.00  0.00    +0.000 C 
BRANCH  13  16
ATOM     16  O   UNL     1      44.001   3.917  10.070  0.00  0.00    +0.000 OA
BRANCH  16  22
ATOM     17 CL   UNL     1      46.507   0.175   7.858  0.00  0.00    +0.000 Cl
ATOM     18  C   UNL     1      46.208   1.856   8.072  0.00  0.00    +0.000 A 
ATOM     19  C   UNL     1      46.886   2.783   7.288  0.00  0.00    +0.000 A 
ATOM     20  C   UNL     1      46.639   4.145   7.466  0.00  0.00    +0.000 A 
ATOM     21  C   UNL     1      45.713   4.576   8.426  0.00  0.00    +0.000 A 
ATOM     22  C   UNL     1      45.017   3.644   9.196  0.00  0.00    +0.000 A 
ATOM     23  C   UNL     1      45.272   2.280   9.014  0.00  0.00    +0.000 A 
ENDBRANCH  16  22
ENDBRANCH  13  16
ENDBRANCH   1  13
TORSDOF 4
ENDMDL
MODEL 7
REMARK VINA RESULT:    -6.448      3.791      7.252
REMARK INTER + INTRA:          -9.057
REMARK INTER:                  -8.017
REMARK INTRA:                  -1.040
REMARK UNBOUND:                -1.101
REMARK  Name = 
REMARK  4 active torsions:
REMARK  status: ('A' for Active; 'I' for Inactive)
REMARK    1  A    between atoms: C_6  and  O_7
REMARK    2  A    between atoms: O_7  and  C_8
REMARK    3  A    between atoms: C_8  and  C_9
REMARK    4  A    between atoms: C_13  and  C_14
REMARK                            x       y       z     vdW  Elec       q    Type
REMARK                         _______ _______ _______ _____ _____    ______ ____
ROOT
ATOM      1  C   UNL     1      47.262   7.442  12.839  0.00  0.00    +0.000 A 
ATOM      2  C   UNL     1      46.346   8.498  12.943  0.00  0.00    +0.000 A 
ATOM      3  C   UNL     1      45.085   8.423  12.352  0.00  0.00    +0.000 A 
ATOM      4  C   UNL     1      44.714   7.287  11.629  0.00  0.00    +0.000 A 
ATOM      5  C   UNL     1      45.587   6.197  11.493  0.00  0.00    +0.000 A 
ATOM      6  C   UNL     1      46.837   6.292  12.137  0.00  0.00    +0.000 A 
ENDROOT
BRANCH   5   7
ATOM      7  C   UNL     1      45.242   5.021  10.667  0.00  0.00    +0.000 A 
ATOM      8  C   UNL     1      45.525   4.953   9.295  0.00  0.00    +0.000 A 
ATOM      9  C   UNL     1      45.138   3.845   8.539  0.00  0.00    +0.000 A 
ATOM     10  C   UNL     1      44.478   2.811   9.179  0.00  0.00    +0.000 A 
ATOM     11  N   UNL     1      44.184   2.818  10.493  0.00  0.00    +0.000 NA
ATOM     12  C   UNL     1      44.566   3.915  11.195  0.00  0.00    +0.000 A 
ENDBRANCH   5   7
BRANCH   1  13
ATOM     13  C   UNL     1      48.674   7.551  13.403  0.00  0.00    +0.000 C 
ATOM     14  C   UNL     1      49.791   7.967  12.441  0.00  0.00    +0.000 C 
ATOM     15  C   UNL     1      49.319   8.922  13.479  0.00  0.00    +0.000 C 
BRANCH  13  16
ATOM     16  O   UNL     1      49.128   6.468  14.245  0.00  0.00    +0.000 OA
BRANCH  16  22
ATOM     17 CL   UNL     1      47.071   3.226  17.476  0.00  0.00    +0.000 Cl
ATOM     18  C   UNL     1      47.757   4.766  17.132  0.00  0.00    +0.000 A 
ATOM     19  C   UNL     1      47.947   5.682  18.162  0.00  0.00    +0.000 A 
ATOM     20  C   UNL     1      48.502   6.930  17.877  0.00  0.00    +0.000 A 
ATOM     21  C   UNL     1      48.869   7.258  16.565  0.00  0.00    +0.000 A 
ATOM     22  C   UNL     1      48.699   6.331  15.537  0.00  0.00    +0.000 A 
ATOM     23  C   UNL     1      48.138   5.082  15.829  0.00  0.00    +0.000 A 
ENDBRANCH  16  22
ENDBRANCH  13  16
ENDBRANCH   1  13
TORSDOF 4
ENDMDL
MODEL 8
REMARK VINA RESULT:    -5.903      4.590      7.879
REMARK INTER + INTRA:          -8.384
REMARK INTER:                  -7.474
REMARK INTRA:                  -0.910
REMARK UNBOUND:                -1.101
REMARK  Name = 
REMARK  4 active torsions:
REMARK  status: ('A' for Active; 'I' for Inactive)
REMARK    1  A    between atoms: C_6  and  O_7
REMARK    2  A    between atoms: O_7  and  C_8
REMARK    3  A    between atoms: C_8  and  C_9
REMARK    4  A    between atoms: C_13  and  C_14
REMARK                            x       y       z     vdW  Elec       q    Type
REMARK                         _______ _______ _______ _____ _____    ______ ____
ROOT
ATOM      1  C   UNL     1      47.871   7.532  13.903  0.00  0.00    +0.000 A 
ATOM      2  C   UNL     1      47.254   8.770  13.676  0.00  0.00    +0.000 A 
ATOM      3  C   UNL     1      46.054   8.862  12.972  0.00  0.00    +0.000 A 
ATOM      4  C   UNL     1      45.445   7.712  12.467  0.00  0.00    +0.000 A 
ATOM      5  C   UNL     1      46.013   6.444  12.666  0.00  0.00    +0.000 A 
ATOM      6  C   UNL     1      47.206   6.386  13.414  0.00  0.00    +0.000 A 
ENDROOT
BRANCH   5   7
ATOM      7  C   UNL     1      45.425   5.225  12.072  0.00  0.00    +0.000 A 
ATOM      8  C   UNL     1      45.186   5.095  10.696  0.00  0.00    +0.000 A 
ATOM      9  C   UNL     1      44.583   3.947  10.181  0.00  0.00    +0.000 A 
ATOM     10  C   UNL     1      44.236   2.936  11.059  0.00  0.00    +0.000 A 
ATOM     11  N   UNL     1      44.446   3.002  12.387  0.00  0.00    +0.000 NA
ATOM     12  C   UNL     1      45.025   4.136  12.855  0.00  0.00    +0.000 A 
ENDBRANCH   5   7
BRANCH   1  13
ATOM     13  C   UNL     1      49.229   7.430  14.589  0.00  0.00    +0.000 C 
ATOM     14  C   UNL     1      50.466   7.824  13.777  0.00  0.00    +0.000 C 
ATOM     15  C   UNL     1      49.993   8.708  14.876  0.00  0.00    +0.000 C 
BRANCH  13  16
ATOM     16  O   UNL     1      49.495   6.221  15.336  0.00  0.00    +0.000 OA
BRANCH  16  22
ATOM     17 CL   UNL     1      47.971   7.951  19.793  0.00  0.00    +0.000 Cl
ATOM     18  C   UNL     1      47.983   6.723  18.587  0.00  0.00    +0.000 A 
ATOM     19  C   UNL     1      47.198   5.587  18.752  0.00  0.00    +0.000 A 
ATOM     20  C   UNL     1      47.212   4.594  17.772  0.00  0.00    +0.000 A 
ATOM     21  C   UNL     1      48.008   4.741  16.628  0.00  0.00    +0.000 A 
ATOM     22  C   UNL     1      48.778   5.891  16.453  0.00  0.00    +0.000 A 
ATOM     23  C   UNL     1      48.762   6.881  17.442  0.00  0.00    +0.000 A 
ENDBRANCH  16  22
ENDBRANCH  13  16
ENDBRANCH   1  13
TORSDOF 4
ENDMDL
MODEL 9
REMARK VINA RESULT:    -5.562      4.359      7.735
REMARK INTER + INTRA:          -7.964
REMARK INTER:                  -7.252
REMARK INTRA:                  -0.712
REMARK UNBOUND:                -1.101
REMARK  Name = 
REMARK  4 active torsions:
REMARK  status: ('A' for Active; 'I' for Inactive)
REMARK    1  A    between atoms: C_6  and  O_7
REMARK    2  A    between atoms: O_7  and  C_8
REMARK    3  A    between atoms: C_8  and  C_9
REMARK    4  A    between atoms: C_13  and  C_14
REMARK                            x       y       z     vdW  Elec       q    Type
REMARK                         _______ _______ _______ _____ _____    ______ ____
ROOT
ATOM      1  C   UNL     1      48.587   7.403  13.916  0.00  0.00    +0.000 A 
ATOM      2  C   UNL     1      49.223   7.916  12.777  0.00  0.00    +0.000 A 
ATOM      3  C   UNL     1      48.706   7.698  11.501  0.00  0.00    +0.000 A 
ATOM      4  C   UNL     1      47.541   6.948  11.332  0.00  0.00    +0.000 A 
ATOM      5  C   UNL     1      46.859   6.412  12.434  0.00  0.00    +0.000 A 
ATOM      6  C   UNL     1      47.388   6.685  13.711  0.00  0.00    +0.000 A 
ENDROOT
BRANCH   5   7
ATOM      7  C   UNL     1      45.669   5.550  12.270  0.00  0.00    +0.000 A 
ATOM      8  C   UNL     1      44.850   5.602  11.132  0.00  0.00    +0.000 A 
ATOM      9  C   UNL     1      43.707   4.807  11.038  0.00  0.00    +0.000 A 
ATOM     10  C   UNL     1      43.408   3.958  12.088  0.00  0.00    +0.000 A 
ATOM     11  N   UNL     1      44.159   3.861  13.201  0.00  0.00    +0.000 NA
ATOM     12  C   UNL     1      45.257   4.656  13.264  0.00  0.00    +0.000 A 
ENDBRANCH   5   7
BRANCH   1  13
ATOM     13  C   UNL     1      49.192   7.557  15.307  0.00  0.00    +0.000 C 
ATOM     14  C   UNL     1      49.850   8.897  15.650  0.00  0.00    +0.000 C 
ATOM     15  C   UNL     1      48.549   8.535  16.272  0.00  0.00    +0.000 C 
BRANCH  13  16
ATOM     16  O   UNL     1      50.012   6.469  15.788  0.00  0.00    +0.000 OA
BRANCH  16  22
ATOM     17 CL   UNL     1      47.088   2.820  17.610  0.00  0.00    +0.000 Cl
ATOM     18  C   UNL     1      48.337   3.984  17.822  0.00  0.00    +0.000 A 
ATOM     19  C   UNL     1      49.011   4.060  19.037  0.00  0.00    +0.000 A 
ATOM     20  C   UNL     1      50.022   5.007  19.203  0.00  0.00    +0.000 A 
ATOM     21  C   UNL     1      50.360   5.873  18.154  0.00  0.00    +0.000 A 
ATOM     22  C   UNL     1      49.700   5.781  16.929  0.00  0.00    +0.000 A 
ATOM     23  C   UNL     1      48.683   4.831  16.771  0.00  0.00    +0.000 A 
ENDBRANCH  16  22
ENDBRANCH  13  16
ENDBRANCH   1  13
TORSDOF 4
ENDMDL
