MODEL 1
REMARK VINA RESULT:    -8.233      0.000      0.000
REMARK INTER + INTRA:         -12.327
REMARK INTER:                 -11.121
REMARK INTRA:                  -1.206
REMARK UNBOUND:                -1.206
REMARK  Name = 
REMARK  6 active torsions:
REMARK  status: ('A' for Active; 'I' for Inactive)
REMARK    1  A    between atoms: C_2  and  C_4
REMARK    2  A    between atoms: C_7  and  O_8
REMARK    3  A    between atoms: O_8  and  C_9
REMARK    4  A    between atoms: C_9  and  C_10
REMARK    5  A    between atoms: C_10  and  C_11
REMARK    6  A    between atoms: C_15  and  C_16
REMARK                            x       y       z     vdW  Elec       q    Type
REMARK                         _______ _______ _______ _____ _____    ______ ____
ROOT
ATOM      1  C   UNL     1      43.188   3.981  11.297  0.00  0.00    +0.000 C 
ENDROOT
BRANCH   1   2
ATOM      2  O   UNL     1      43.691   4.575  10.100  0.00  0.00    +0.000 OA
BRANCH   2   6
ATOM      3  C   UNL     1      46.406   2.459   7.741  0.00  0.00    +0.000 A 
ATOM      4  C   UNL     1      45.608   1.746   8.638  0.00  0.00    +0.000 A 
ATOM      5  C   UNL     1      44.688   2.419   9.450  0.00  0.00    +0.000 A 
ATOM      6  C   UNL     1      44.563   3.808   9.372  0.00  0.00    +0.000 A 
ATOM      7  C   UNL     1      45.380   4.521   8.490  0.00  0.00    +0.000 A 
ATOM      8  C   UNL     1      46.306   3.851   7.681  0.00  0.00    +0.000 A 
BRANCH   3  10
ATOM      9  N   UNL     1      48.497   2.482   6.498  0.00  0.00    +0.000 N 
ATOM     10  C   UNL     1      47.381   1.774   6.853  0.00  0.00    +0.000 C 
ATOM     11  O   UNL     1      47.222   0.620   6.488  0.00  0.00    +0.000 OA
ATOM     12  H   UNL     1      49.207   1.967   5.992  0.00  0.00    +0.000 HD
ATOM     13  H   UNL     1      48.783   3.321   6.982  0.00  0.00    +0.000 HD
ENDBRANCH   3  10
ENDBRANCH   2   6
ENDBRANCH   1   2
BRANCH   1  14
ATOM     14  C   UNL     1      43.243   5.000  12.436  0.00  0.00    +0.000 C 
BRANCH  14  15
ATOM     15  C   UNL     1      44.675   5.251  12.834  0.00  0.00    +0.000 A 
ATOM     16  C   UNL     1      45.493   4.209  13.271  0.00  0.00    +0.000 A 
ATOM     17  C   UNL     1      46.839   4.445  13.539  0.00  0.00    +0.000 A 
ATOM     18  C   UNL     1      47.382   5.719  13.341  0.00  0.00    +0.000 A 
ATOM     19  C   UNL     1      46.601   6.782  12.855  0.00  0.00    +0.000 A 
ATOM     20  C   UNL     1      45.234   6.528  12.643  0.00  0.00    +0.000 A 
BRANCH  19  21
ATOM     21  C   UNL     1      47.199   8.079  12.458  0.00  0.00    +0.000 A 
ATOM     22  C   UNL     1      48.539   8.152  12.028  0.00  0.00    +0.000 A 
ATOM     23  C   UNL     1      49.082   9.334  11.520  0.00  0.00    +0.000 A 
ATOM     24  C   UNL     1      48.297  10.478  11.429  0.00  0.00    +0.000 A 
ATOM     25  C   UNL     1      46.979  10.446  11.873  0.00  0.00    +0.000 A 
ATOM     26  C   UNL     1      46.442   9.264  12.393  0.00  0.00    +0.000 A 
ENDBRANCH  19  21
ENDBRANCH  14  15
ENDBRANCH   1  14
TORSDOF 6
ENDMDL
MODEL 2
REMARK VINA RESULT:    -8.170      0.642      1.515
REMARK INTER + INTRA:         -12.242
REMARK INTER:                 -11.028
REMARK INTRA:                  -1.215
REMARK UNBOUND:                -1.206
REMARK  Name = 
REMARK  6 active torsions:
REMARK  status: ('A' for Active; 'I' for Inactive)
REMARK    1  A    between atoms: C_2  and  C_4
REMARK    2  A    between atoms: C_7  and  O_8
REMARK    3  A    between atoms: O_8  and  C_9
REMARK    4  A    between atoms: C_9  and  C_10
REMARK    5  A    between atoms: C_10  and  C_11
REMARK    6  A    between atoms: C_15  and  C_16
REMARK                            x       y       z     vdW  Elec       q    Type
REMARK                         _______ _______ _______ _____ _____    ______ ____
ROOT
ATOM      1  C   UNL     1      43.112   4.775  11.066  0.00  0.00    +0.000 C 
ENDROOT
BRANCH   1   2
ATOM      2  O   UNL     1      43.431   3.441  10.673  0.00  0.00    +0.000 OA
BRANCH   2   6
ATOM      3  C   UNL     1      46.325   2.800   7.736  0.00  0.00    +0.000 A 
ATOM      4  C   UNL     1      45.926   4.112   8.001  0.00  0.00    +0.000 A 
ATOM      5  C   UNL     1      44.955   4.368   8.976  0.00  0.00    +0.000 A 
ATOM      6  C   UNL     1      44.376   3.316   9.689  0.00  0.00    +0.000 A 
ATOM      7  C   UNL     1      44.761   2.003   9.403  0.00  0.00    +0.000 A 
ATOM      8  C   UNL     1      45.727   1.742   8.424  0.00  0.00    +0.000 A 
BRANCH   3  10
ATOM      9  N   UNL     1      47.308   3.197   5.547  0.00  0.00    +0.000 N 
ATOM     10  C   UNL     1      47.365   2.494   6.721  0.00  0.00    +0.000 C 
ATOM     11  O   UNL     1      48.256   1.687   6.931  0.00  0.00    +0.000 OA
ATOM     12  H   UNL     1      48.088   3.066   4.914  0.00  0.00    +0.000 HD
ATOM     13  H   UNL     1      46.760   4.038   5.446  0.00  0.00    +0.000 HD
ENDBRANCH   3  10
ENDBRANCH   2   6
ENDBRANCH   1   2
BRANCH   1  14
ATOM     14  C   UNL     1      43.268   4.914  12.581  0.00  0.00    +0.000 C 
BRANCH  14  15
ATOM     15  C   UNL     1      44.701   5.228  12.926  0.00  0.00    +0.000 A 
ATOM     16  C   UNL     1      45.550   4.244  13.436  0.00  0.00    +0.000 A 
ATOM     17  C   UNL     1      46.894   4.530  13.654  0.00  0.00    +0.000 A 
ATOM     18  C   UNL     1      47.406   5.791  13.335  0.00  0.00    +0.000 A 
ATOM     19  C   UNL     1      46.594   6.792  12.773  0.00  0.00    +0.000 A 
ATOM     20  C   UNL     1      45.228   6.493  12.613  0.00  0.00    +0.000 A 
BRANCH  19  21
ATOM     21  C   UNL     1      47.156   8.061  12.252  0.00  0.00    +0.000 A 
ATOM     22  C   UNL     1      46.375   9.233  12.219  0.00  0.00    +0.000 A 
ATOM     23  C   UNL     1      46.922  10.468  11.863  0.00  0.00    +0.000 A 
ATOM     24  C   UNL     1      48.269  10.563  11.531  0.00  0.00    +0.000 A 
ATOM     25  C   UNL     1      49.059   9.418  11.526  0.00  0.00    +0.000 A 
ATOM     26  C   UNL     1      48.505   8.181  11.870  0.00  0.00    +0.000 A 
ENDBRANCH  19  21
ENDBRANCH  14  15
ENDBRANCH   1  14
TORSDOF 6
ENDMDL
MODEL 3
REMARK VINA RESULT:    -8.084      1.858      3.787
REMARK INTER + INTRA:         -12.125
REMARK INTER:                 -10.986
REMARK INTRA:                  -1.139
REMARK UNBOUND:                -1.206
REMARK  Name = 
REMARK  6 active torsions:
REMARK  status: ('A' for Active; 'I' for Inactive)
REMARK    1  A    between atoms: C_2  and  C_4
REMARK    2  A    between atoms: C_7  and  O_8
REMARK    3  A    between atoms: O_8  and  C_9
REMARK    4  A    between atoms: C_9  and  C_10
REMARK    5  A    between atoms: C_10  and  C_11
REMARK    6  A    between atoms: C_15  and  C_16
REMARK                            x       y       z     vdW  Elec       q    Type
REMARK                         _______ _______ _______ _____ _____    ______ ____
ROOT
ATOM      1  C   UNL     1      43.529   5.073  10.628  0.00  0.00    +0.000 C 
ENDROOT
BRANCH   1   2
ATOM      2  O   UNL     1      43.567   3.714  10.190  0.00  0.00    +0.000 OA
BRANCH   2   6
ATOM      3  C   UNL     1      46.612   2.486   7.616  0.00  0.00    +0.000 A 
ATOM      4  C   UNL     1      46.330   3.851   7.709  0.00  0.00    +0.000 A 
ATOM      5  C   UNL     1      45.314   4.302   8.558  0.00  0.00    +0.000 A 
ATOM      6  C   UNL     1      44.572   3.394   9.316  0.00  0.00    +0.000 A 
ATOM      7  C   UNL     1      44.841   2.027   9.202  0.00  0.00    +0.000 A 
ATOM      8  C   UNL     1      45.852   1.571   8.348  0.00  0.00    +0.000 A 
BRANCH   3  10
ATOM      9  N   UNL     1      48.689   2.854   6.405  0.00  0.00    +0.000 N 
ATOM     10  C   UNL     1      47.695   1.974   6.737  0.00  0.00    +0.000 C 
ATOM     11  O   UNL     1      47.727   0.814   6.360  0.00  0.00    +0.000 OA
ATOM     12  H   UNL     1      49.480   2.463   5.906  0.00  0.00    +0.000 HD
ATOM     13  H   UNL     1      48.832   3.722   6.901  0.00  0.00    +0.000 HD
ENDBRANCH   3  10
ENDBRANCH   2   6
ENDBRANCH   1   2
BRANCH   1  14
ATOM     14  C   UNL     1      43.771   5.131  12.137  0.00  0.00    +0.000 C 
BRANCH  14  15
ATOM     15  C   UNL     1      45.219   5.441  12.417  0.00  0.00    +0.000 A 
ATOM     16  C   UNL     1      45.935   6.323  11.606  0.00  0.00    +0.000 A 
ATOM     17  C   UNL     1      47.240   6.671  11.940  0.00  0.00    +0.000 A 
ATOM     18  C   UNL     1      47.828   6.164  13.103  0.00  0.00    +0.000 A 
ATOM     19  C   UNL     1      47.122   5.312  13.971  0.00  0.00    +0.000 A 
ATOM     20  C   UNL     1      45.824   4.935  13.581  0.00  0.00    +0.000 A 
BRANCH  19  21
ATOM     21  C   UNL     1      47.656   4.922  15.297  0.00  0.00    +0.000 A 
ATOM     22  C   UNL     1      47.398   3.643  15.829  0.00  0.00    +0.000 A 
ATOM     23  C   UNL     1      48.002   3.204  17.009  0.00  0.00    +0.000 A 
ATOM     24  C   UNL     1      48.884   4.035  17.690  0.00  0.00    +0.000 A 
ATOM     25  C   UNL     1      49.137   5.315  17.206  0.00  0.00    +0.000 A 
ATOM     26  C   UNL     1      48.520   5.756  16.031  0.00  0.00    +0.000 A 
ENDBRANCH  19  21
ENDBRANCH  14  15
ENDBRANCH   1  14
TORSDOF 6
ENDMDL
MODEL 4
REMARK VINA RESULT:    -7.132      1.445      2.065
REMARK INTER + INTRA:         -10.840
REMARK INTER:                 -10.273
REMARK INTRA:                  -0.566
REMARK UNBOUND:                -1.206
REMARK  Name = 
REMARK  6 active torsions:
REMARK  status: ('A' for Active; 'I' for Inactive)
REMARK    1  A    between atoms: C_2  and  C_4
REMARK    2  A    between atoms: C_7  and  O_8
REMARK    3  A    between atoms: O_8  and  C_9
REMARK    4  A    between atoms: C_9  and  C_10
REMARK    5  A    between atoms: C_10  and  C_11
REMARK    6  A    between atoms: C_15  and  C_16
REMARK                            x       y       z     vdW  Elec       q    Type
REMARK                         _______ _______ _______ _____ _____    ______ ____
ROOT
ATOM      1  C   UNL     1      43.660   2.909  11.350  0.00  0.00    +0.000 C 
ENDROOT
BRANCH   1   2
ATOM      2  O   UNL     1      43.746   3.630  10.121  0.00  0.00    +0.000 OA
BRANCH   2   6
ATOM      3  C   UNL     1      46.545   2.467   7.254  0.00  0.00    +0.000 A 
ATOM      4  C   UNL     1      46.086   1.510   8.160  0.00  0.00    +0.000 A 
ATOM      5  C   UNL     1      45.150   1.861   9.140  0.00  0.00    +0.000 A 
ATOM      6  C   UNL     1      44.671   3.171   9.220  0.00  0.00    +0.000 A 
ATOM      7  C   UNL     1      45.151   4.131   8.325  0.00  0.00    +0.000 A 
ATOM      8  C   UNL     1      46.092   3.785   7.349  0.00  0.00    +0.000 A 
BRANCH   3  10
ATOM      9  N   UNL     1      48.834   2.450   6.428  0.00  0.00    +0.000 N 
ATOM     10  C   UNL     1      47.525   2.124   6.191  0.00  0.00    +0.000 C 
ATOM     11  O   UNL     1      47.195   1.541   5.171  0.00  0.00    +0.000 OA
ATOM     12  H   UNL     1      49.506   2.107   5.753  0.00  0.00    +0.000 HD
ATOM     13  H   UNL     1      49.174   2.687   7.349  0.00  0.00    +0.000 HD
ENDBRANCH   3  10
ENDBRANCH   2   6
ENDBRANCH   1   2
BRANCH   1  14
ATOM     14  C   UNL     1      44.597   3.541  12.380  0.00  0.00    +0.000 C 
BRANCH  14  15
ATOM     15  C   UNL     1      44.833   4.990  12.043  0.00  0.00    +0.000 A 
ATOM     16  C   UNL     1      43.767   5.846  11.762  0.00  0.00    +0.000 A 
ATOM     17  C   UNL     1      44.001   7.202  11.551  0.00  0.00    +0.000 A 
ATOM     18  C   UNL     1      45.297   7.717  11.650  0.00  0.00    +0.000 A 
ATOM     19  C   UNL     1      46.389   6.896  11.981  0.00  0.00    +0.000 A 
ATOM     20  C   UNL     1      46.132   5.521  12.137  0.00  0.00    +0.000 A 
BRANCH  19  21
ATOM     21  C   UNL     1      47.730   7.453  12.279  0.00  0.00    +0.000 A 
ATOM     22  C   UNL     1      48.030   7.958  13.560  0.00  0.00    +0.000 A 
ATOM     23  C   UNL     1      49.322   8.360  13.904  0.00  0.00    +0.000 A 
ATOM     24  C   UNL     1      50.352   8.266  12.974  0.00  0.00    +0.000 A 
ATOM     25  C   UNL     1      50.081   7.799  11.692  0.00  0.00    +0.000 A 
ATOM     26  C   UNL     1      48.783   7.410  11.347  0.00  0.00    +0.000 A 
ENDBRANCH  19  21
ENDBRANCH  14  15
ENDBRANCH   1  14
TORSDOF 6
ENDMDL
MODEL 5
REMARK VINA RESULT:    -7.114      4.732      8.369
REMARK INTER + INTRA:         -10.816
REMARK INTER:                 -10.170
REMARK INTRA:                  -0.646
REMARK UNBOUND:                -1.206
REMARK  Name = 
REMARK  6 active torsions:
REMARK  status: ('A' for Active; 'I' for Inactive)
REMARK    1  A    between atoms: C_2  and  C_4
REMARK    2  A    between atoms: C_7  and  O_8
REMARK    3  A    between atoms: O_8  and  C_9
REMARK    4  A    between atoms: C_9  and  C_10
REMARK    5  A    between atoms: C_10  and  C_11
REMARK    6  A    between atoms: C_15  and  C_16
REMARK                            x       y       z     vdW  Elec       q    Type
REMARK                         _______ _______ _______ _____ _____    ______ ____
ROOT
ATOM      1  C   UNL     1      47.015   4.092  13.703  0.00  0.00    +0.000 C 
ENDROOT
BRANCH   1   2
ATOM      2  O   UNL     1      47.424   3.168  14.713  0.00  0.00    +0.000 OA
BRANCH   2   6
ATOM      3  C   UNL     1      48.397   4.597  18.511  0.00  0.00    +0.000 A 
ATOM      4  C   UNL     1      48.373   5.501  17.446  0.00  0.00    +0.000 A 
ATOM      5  C   UNL     1      48.055   5.060  16.157  0.00  0.00    +0.000 A 
ATOM      6  C   UNL     1      47.762   3.715  15.923  0.00  0.00    +0.000 A 
ATOM      7  C   UNL     1      47.810   2.809  16.986  0.00  0.00    +0.000 A 
ATOM      8  C   UNL     1      48.134   3.245  18.277  0.00  0.00    +0.000 A 
BRANCH   3  10
ATOM      9  N   UNL     1      48.648   4.080  20.874  0.00  0.00    +0.000 N 
ATOM     10  C   UNL     1      48.713   5.034  19.895  0.00  0.00    +0.000 C 
ATOM     11  O   UNL     1      49.057   6.177  20.149  0.00  0.00    +0.000 OA
ATOM     12  H   UNL     1      48.979   4.360  21.789  0.00  0.00    +0.000 HD
ATOM     13  H   UNL     1      48.625   3.092  20.667  0.00  0.00    +0.000 HD
ENDBRANCH   3  10
ENDBRANCH   2   6
ENDBRANCH   1   2
BRANCH   1  14
ATOM     14  C   UNL     1      45.581   4.547  13.976  0.00  0.00    +0.000 C 
BRANCH  14  15
ATOM     15  C   UNL     1      44.789   4.554  12.694  0.00  0.00    +0.000 A 
ATOM     16  C   UNL     1      43.648   5.347  12.558  0.00  0.00    +0.000 A 
ATOM     17  C   UNL     1      42.989   5.414  11.334  0.00  0.00    +0.000 A 
ATOM     18  C   UNL     1      43.484   4.714  10.229  0.00  0.00    +0.000 A 
ATOM     19  C   UNL     1      44.658   3.945  10.314  0.00  0.00    +0.000 A 
ATOM     20  C   UNL     1      45.273   3.853  11.576  0.00  0.00    +0.000 A 
BRANCH  19  21
ATOM     21  C   UNL     1      45.301   3.357   9.114  0.00  0.00    +0.000 A 
ATOM     22  C   UNL     1      45.795   4.182   8.085  0.00  0.00    +0.000 A 
ATOM     23  C   UNL     1      46.524   3.661   7.014  0.00  0.00    +0.000 A 
ATOM     24  C   UNL     1      46.780   2.296   6.945  0.00  0.00    +0.000 A 
ATOM     25  C   UNL     1      46.280   1.451   7.931  0.00  0.00    +0.000 A 
ATOM     26  C   UNL     1      45.539   1.975   8.995  0.00  0.00    +0.000 A 
ENDBRANCH  19  21
ENDBRANCH  14  15
ENDBRANCH   1  14
TORSDOF 6
ENDMDL
MODEL 6
REMARK VINA RESULT:    -6.876      2.924      6.811
REMARK INTER + INTRA:         -10.494
REMARK INTER:                  -9.422
REMARK INTRA:                  -1.072
REMARK UNBOUND:                -1.206
REMARK  Name = 
REMARK  6 active torsions:
REMARK  status: ('A' for Active; 'I' for Inactive)
REMARK    1  A    between atoms: C_2  and  C_4
REMARK    2  A    between atoms: C_7  and  O_8
REMARK    3  A    between atoms: O_8  and  C_9
REMARK    4  A    between atoms: C_9  and  C_10
REMARK    5  A    between atoms: C_10  and  C_11
REMARK    6  A    between atoms: C_15  and  C_16
REMARK                            x       y       z     vdW  Elec       q    Type
REMARK                         _______ _______ _______ _____ _____    ______ ____
ROOT
ATOM      1  C   UNL     1      44.302   7.410  11.500  0.00  0.00    +0.000 C 
ENDROOT
BRANCH   1   2
ATOM      2  O   UNL     1      44.918   6.872  12.670  0.00  0.00    +0.000 OA
BRANCH   2   6
ATOM      3  C   UNL     1      48.967   7.813  13.031  0.00  0.00    +0.000 A 
ATOM      4  C   UNL     1      48.605   6.469  12.912  0.00  0.00    +0.000 A 
ATOM      5  C   UNL     1      47.257   6.112  12.793  0.00  0.00    +0.000 A 
ATOM      6  C   UNL     1      46.264   7.094  12.795  0.00  0.00    +0.000 A 
ATOM      7  C   UNL     1      46.629   8.436  12.937  0.00  0.00    +0.000 A 
ATOM      8  C   UNL     1      47.976   8.796  13.063  0.00  0.00    +0.000 A 
BRANCH   3  10
ATOM      9  N   UNL     1      51.229   7.831  12.135  0.00  0.00    +0.000 N 
ATOM     10  C   UNL     1      50.389   8.228  13.141  0.00  0.00    +0.000 C 
ATOM     11  O   UNL     1      50.789   8.925  14.060  0.00  0.00    +0.000 OA
ATOM     12  H   UNL     1      52.165   8.218  12.161  0.00  0.00    +0.000 HD
ATOM     13  H   UNL     1      50.888   7.489  11.249  0.00  0.00    +0.000 HD
ENDBRANCH   3  10
ENDBRANCH   2   6
ENDBRANCH   1   2
BRANCH   1  14
ATOM     14  C   UNL     1      43.119   6.530  11.094  0.00  0.00    +0.000 C 
BRANCH  14  15
ATOM     15  C   UNL     1      43.548   5.087  11.023  0.00  0.00    +0.000 A 
ATOM     16  C   UNL     1      42.989   4.129  11.870  0.00  0.00    +0.000 A 
ATOM     17  C   UNL     1      43.327   2.787  11.721  0.00  0.00    +0.000 A 
ATOM     18  C   UNL     1      44.202   2.390  10.705  0.00  0.00    +0.000 A 
ATOM     19  C   UNL     1      44.746   3.320   9.802  0.00  0.00    +0.000 A 
ATOM     20  C   UNL     1      44.430   4.675  10.008  0.00  0.00    +0.000 A 
BRANCH  19  21
ATOM     21  C   UNL     1      45.517   2.897   8.607  0.00  0.00    +0.000 A 
ATOM     22  C   UNL     1      45.895   3.835   7.627  0.00  0.00    +0.000 A 
ATOM     23  C   UNL     1      46.736   3.488   6.567  0.00  0.00    +0.000 A 
ATOM     24  C   UNL     1      47.222   2.190   6.460  0.00  0.00    +0.000 A 
ATOM     25  C   UNL     1      46.842   1.233   7.396  0.00  0.00    +0.000 A 
ATOM     26  C   UNL     1      45.989   1.581   8.449  0.00  0.00    +0.000 A 
ENDBRANCH  19  21
ENDBRANCH  14  15
ENDBRANCH   1  14
TORSDOF 6
ENDMDL
MODEL 7
REMARK VINA RESULT:    -6.847      3.986      7.496
REMARK INTER + INTRA:         -10.455
REMARK INTER:                  -9.266
REMARK INTRA:                  -1.188
REMARK UNBOUND:                -1.206
REMARK  Name = 
REMARK  6 active torsions:
REMARK  status: ('A' for Active; 'I' for Inactive)
REMARK    1  A    between atoms: C_2  and  C_4
REMARK    2  A    between atoms: C_7  and  O_8
REMARK    3  A    between atoms: O_8  and  C_9
REMARK    4  A    between atoms: C_9  and  C_10
REMARK    5  A    between atoms: C_10  and  C_11
REMARK    6  A    between atoms: C_15  and  C_16
REMARK                            x       y       z     vdW  Elec       q    Type
REMARK                         _______ _______ _______ _____ _____    ______ ____
ROOT
ATOM      1  C   UNL     1      49.548   7.307  13.152  0.00  0.00    +0.000 C 
ENDROOT
BRANCH   1   2
ATOM      2  O   UNL     1      48.860   7.617  14.364  0.00  0.00    +0.000 OA
BRANCH   2   6
ATOM      3  C   UNL     1      47.885   4.428  16.871  0.00  0.00    +0.000 A 
ATOM      4  C   UNL     1      47.300   4.480  15.604  0.00  0.00    +0.000 A 
ATOM      5  C   UNL     1      47.598   5.536  14.736  0.00  0.00    +0.000 A 
ATOM      6  C   UNL     1      48.480   6.545  15.128  0.00  0.00    +0.000 A 
ATOM      7  C   UNL     1      49.045   6.501  16.406  0.00  0.00    +0.000 A 
ATOM      8  C   UNL     1      48.744   5.450  17.280  0.00  0.00    +0.000 A 
BRANCH   3  10
ATOM      9  N   UNL     1      48.397   3.227  18.924  0.00  0.00    +0.000 N 
ATOM     10  C   UNL     1      47.604   3.313  17.812  0.00  0.00    +0.000 C 
ATOM     11  O   UNL     1      46.684   2.531  17.630  0.00  0.00    +0.000 OA
ATOM     12  H   UNL     1      48.122   2.539  19.614  0.00  0.00    +0.000 HD
ATOM     13  H   UNL     1      48.980   3.991  19.233  0.00  0.00    +0.000 HD
ENDBRANCH   3  10
ENDBRANCH   2   6
ENDBRANCH   1   2
BRANCH   1  14
ATOM     14  C   UNL     1      48.932   8.098  11.997  0.00  0.00    +0.000 C 
BRANCH  14  15
ATOM     15  C   UNL     1      47.456   7.810  11.903  0.00  0.00    +0.000 A 
ATOM     16  C   UNL     1      46.511   8.782  12.236  0.00  0.00    +0.000 A 
ATOM     17  C   UNL     1      45.156   8.528  12.047  0.00  0.00    +0.000 A 
ATOM     18  C   UNL     1      44.738   7.313  11.497  0.00  0.00    +0.000 A 
ATOM     19  C   UNL     1      45.661   6.330  11.103  0.00  0.00    +0.000 A 
ATOM     20  C   UNL     1      47.021   6.591  11.354  0.00  0.00    +0.000 A 
BRANCH  19  21
ATOM     21  C   UNL     1      45.250   5.123  10.345  0.00  0.00    +0.000 A 
ATOM     22  C   UNL     1      45.646   4.948   9.004  0.00  0.00    +0.000 A 
ATOM     23  C   UNL     1      45.389   3.762   8.314  0.00  0.00    +0.000 A 
ATOM     24  C   UNL     1      44.728   2.716   8.949  0.00  0.00    +0.000 A 
ATOM     25  C   UNL     1      44.299   2.870  10.263  0.00  0.00    +0.000 A 
ATOM     26  C   UNL     1      44.547   4.064  10.947  0.00  0.00    +0.000 A 
ENDBRANCH  19  21
ENDBRANCH  14  15
ENDBRANCH   1  14
TORSDOF 6
ENDMDL
MODEL 8
REMARK VINA RESULT:    -6.742      1.892      3.074
REMARK INTER + INTRA:         -10.313
REMARK INTER:                  -9.956
REMARK INTRA:                  -0.357
REMARK UNBOUND:                -1.206
REMARK  Name = 
REMARK  6 active torsions:
REMARK  status: ('A' for Active; 'I' for Inactive)
REMARK    1  A    between atoms: C_2  and  C_4
REMARK    2  A    between atoms: C_7  and  O_8
REMARK    3  A    between atoms: O_8  and  C_9
REMARK    4  A    between atoms: C_9  and  C_10
REMARK    5  A    between atoms: C_10  and  C_11
REMARK    6  A    between atoms: C_15  and  C_16
REMARK                            x       y       z     vdW  Elec       q    Type
REMARK                         _______ _______ _______ _____ _____    ______ ____
ROOT
ATOM      1  C   UNL     1      43.917   4.735  11.169  0.00  0.00    +0.000 C 
ENDROOT
BRANCH   1   2
ATOM      2  O   UNL     1      43.532   3.940  10.047  0.00  0.00    +0.000 OA
BRANCH   2   6
ATOM      3  C   UNL     1      46.611   2.458   7.652  0.00  0.00    +0.000 A 
ATOM      4  C   UNL     1      46.334   3.827   7.607  0.00  0.00    +0.000 A 
ATOM      5  C   UNL     1      45.307   4.361   8.393  0.00  0.00    +0.000 A 
ATOM      6  C   UNL     1      44.549   3.533   9.224  0.00  0.00    +0.000 A 
ATOM      7  C   UNL     1      44.814   2.161   9.247  0.00  0.00    +0.000 A 
ATOM      8  C   UNL     1      45.836   1.621   8.458  0.00  0.00    +0.000 A 
BRANCH   3  10
ATOM      9  N   UNL     1      48.742   2.685   6.501  0.00  0.00    +0.000 N 
ATOM     10  C   UNL     1      47.705   1.860   6.844  0.00  0.00    +0.000 C 
ATOM     11  O   UNL     1      47.708   0.680   6.533  0.00  0.00    +0.000 OA
ATOM     12  H   UNL     1      49.534   2.240   6.055  0.00  0.00    +0.000 HD
ATOM     13  H   UNL     1      48.898   3.575   6.953  0.00  0.00    +0.000 HD
ENDBRANCH   3  10
ENDBRANCH   2   6
ENDBRANCH   1   2
BRANCH   1  14
ATOM     14  C   UNL     1      45.425   4.607  11.392  0.00  0.00    +0.000 C 
BRANCH  14  15
ATOM     15  C   UNL     1      45.966   5.876  12.001  0.00  0.00    +0.000 A 
ATOM     16  C   UNL     1      45.270   7.080  11.888  0.00  0.00    +0.000 A 
ATOM     17  C   UNL     1      45.737   8.217  12.541  0.00  0.00    +0.000 A 
ATOM     18  C   UNL     1      46.885   8.150  13.337  0.00  0.00    +0.000 A 
ATOM     19  C   UNL     1      47.584   6.943  13.515  0.00  0.00    +0.000 A 
ATOM     20  C   UNL     1      47.120   5.823  12.801  0.00  0.00    +0.000 A 
BRANCH  19  21
ATOM     21  C   UNL     1      48.683   6.809  14.502  0.00  0.00    +0.000 A 
ATOM     22  C   UNL     1      49.938   7.404  14.265  0.00  0.00    +0.000 A 
ATOM     23  C   UNL     1      50.941   7.409  15.237  0.00  0.00    +0.000 A 
ATOM     24  C   UNL     1      50.714   6.818  16.475  0.00  0.00    +0.000 A 
ATOM     25  C   UNL     1      49.495   6.197  16.728  0.00  0.00    +0.000 A 
ATOM     26  C   UNL     1      48.497   6.182  15.748  0.00  0.00    +0.000 A 
ENDBRANCH  19  21
ENDBRANCH  14  15
ENDBRANCH   1  14
TORSDOF 6
ENDMDL
MODEL 9
REMARK VINA RESULT:    -6.626      3.181      6.921
REMARK INTER + INTRA:         -10.157
REMARK INTER:                  -8.998
REMARK INTRA:                  -1.159
REMARK UNBOUND:                -1.206
REMARK  Name = 
REMARK  6 active torsions:
REMARK  status: ('A' for Active; 'I' for Inactive)
REMARK    1  A    between atoms: C_2  and  C_4
REMARK    2  A    between atoms: C_7  and  O_8
REMARK    3  A    between atoms: O_8  and  C_9
REMARK    4  A    between atoms: C_9  and  C_10
REMARK    5  A    between atoms: C_10  and  C_11
REMARK    6  A    between atoms: C_15  and  C_16
REMARK                            x       y       z     vdW  Elec       q    Type
REMARK                         _______ _______ _______ _____ _____    ______ ____
ROOT
ATOM      1  C   UNL     1      47.053   4.399  13.768  0.00  0.00    +0.000 C 
ENDROOT
BRANCH   1   2
ATOM      2  O   UNL     1      47.901   5.317  14.458  0.00  0.00    +0.000 OA
BRANCH   2   6
ATOM      3  C   UNL     1      48.506   8.869  12.354  0.00  0.00    +0.000 A 
ATOM      4  C   UNL     1      48.546   8.909  13.749  0.00  0.00    +0.000 A 
ATOM      5  C   UNL     1      48.344   7.739  14.491  0.00  0.00    +0.000 A 
ATOM      6  C   UNL     1      48.098   6.526  13.844  0.00  0.00    +0.000 A 
ATOM      7  C   UNL     1      48.036   6.496  12.448  0.00  0.00    +0.000 A 
ATOM      8  C   UNL     1      48.231   7.665  11.702  0.00  0.00    +0.000 A 
BRANCH   3  10
ATOM      9  N   UNL     1      47.641  10.871  11.276  0.00  0.00    +0.000 N 
ATOM     10  C   UNL     1      48.734  10.088  11.535  0.00  0.00    +0.000 C 
ATOM     11  O   UNL     1      49.846  10.406  11.145  0.00  0.00    +0.000 OA
ATOM     12  H   UNL     1      47.828  11.756  10.820  0.00  0.00    +0.000 HD
ATOM     13  H   UNL     1      46.777  10.783  11.791  0.00  0.00    +0.000 HD
ENDBRANCH   3  10
ENDBRANCH   2   6
ENDBRANCH   1   2
BRANCH   1  14
ATOM     14  C   UNL     1      45.590   4.728  14.069  0.00  0.00    +0.000 C 
BRANCH  14  15
ATOM     15  C   UNL     1      44.780   4.684  12.799  0.00  0.00    +0.000 A 
ATOM     16  C   UNL     1      43.609   5.432  12.667  0.00  0.00    +0.000 A 
ATOM     17  C   UNL     1      42.930   5.454  11.452  0.00  0.00    +0.000 A 
ATOM     18  C   UNL     1      43.434   4.754  10.352  0.00  0.00    +0.000 A 
ATOM     19  C   UNL     1      44.637   4.030  10.432  0.00  0.00    +0.000 A 
ATOM     20  C   UNL     1      45.273   3.981  11.685  0.00  0.00    +0.000 A 
BRANCH  19  21
ATOM     21  C   UNL     1      45.283   3.444   9.232  0.00  0.00    +0.000 A 
ATOM     22  C   UNL     1      45.834   4.273   8.236  0.00  0.00    +0.000 A 
ATOM     23  C   UNL     1      46.567   3.748   7.169  0.00  0.00    +0.000 A 
ATOM     24  C   UNL     1      46.769   2.376   7.071  0.00  0.00    +0.000 A 
ATOM     25  C   UNL     1      46.211   1.529   8.024  0.00  0.00    +0.000 A 
ATOM     26  C   UNL     1      45.467   2.057   9.084  0.00  0.00    +0.000 A 
ENDBRANCH  19  21
ENDBRANCH  14  15
ENDBRANCH   1  14
TORSDOF 6
ENDMDL
