MODEL 1
REMARK VINA RESULT:    -8.385      0.000      0.000
REMARK INTER + INTRA:         -14.034
REMARK INTER:                 -13.042
REMARK INTRA:                  -0.992
REMARK UNBOUND:                -0.992
REMARK  Name = 
REMARK  10 active torsions:
REMARK  status: ('A' for Active; 'I' for Inactive)
REMARK    1  A    between atoms: C_2  and  C_23
REMARK    2  A    between atoms: N_3  and  C_4
REMARK    3  A    between atoms: C_4  and  C_5
REMARK    4  A    between atoms: C_8  and  C_9
REMARK    5  A    between atoms: C_9  and  N_10
REMARK    6  A    between atoms: N_10  and  C_11
REMARK    7  A    between atoms: N_10  and  C_14
REMARK    8  A    between atoms: C_11  and  C_12
REMARK    9  A    between atoms: C_12  and  O_13
REMARK   10  A    between atoms: C_14  and  C_15
REMARK                            x       y       z     vdW  Elec       q    Type
REMARK                         _______ _______ _______ _____ _____    ______ ____
ROOT
ATOM      1  C   UNL     1      48.046   6.467  13.917  0.00  0.00    +0.000 A 
ATOM      2  C   UNL     1      47.113   5.437  14.095  0.00  0.00    +0.000 A 
ATOM      3  C   UNL     1      46.161   5.169  13.110  0.00  0.00    +0.000 A 
ATOM      4  C   UNL     1      46.123   5.927  11.933  0.00  0.00    +0.000 A 
ATOM      5  C   UNL     1      47.127   6.880  11.707  0.00  0.00    +0.000 A 
ATOM      6  C   UNL     1      48.083   7.144  12.689  0.00  0.00    +0.000 A 
ENDROOT
BRANCH   1   7
ATOM      7  C   UNL     1      48.978   6.849  15.033  0.00  0.00    +0.000 C 
BRANCH   7  10
ATOM      8  O   UNL     1      50.762   5.471  16.634  0.00  0.00    +0.000 OA
ATOM      9  C   UNL     1      49.589   5.527  16.989  0.00  0.00    +0.000 C 
ATOM     10  N   UNL     1      48.633   6.195  16.259  0.00  0.00    +0.000 N 
ATOM     11  H   UNL     1      47.690   6.282  16.606  0.00  0.00    +0.000 HD
BRANCH   9  12
ATOM     12  C   UNL     1      49.105   4.885  18.209  0.00  0.00    +0.000 A 
ATOM     13  C   UNL     1      48.770   3.546  18.382  0.00  0.00    +0.000 A 
ATOM     14  N   UNL     1      48.385   3.359  19.684  0.00  0.00    +0.000 N 
ATOM     15  C   UNL     1      48.462   4.538  20.365  0.00  0.00    +0.000 A 
ATOM     16  N   UNL     1      48.157   4.675  21.667  0.00  0.00    +0.000 NA
ATOM     17  C   UNL     1      48.317   5.940  22.114  0.00  0.00    +0.000 A 
ATOM     18  C   UNL     1      48.738   7.021  21.350  0.00  0.00    +0.000 A 
ATOM     19  C   UNL     1      49.039   6.819  20.002  0.00  0.00    +0.000 A 
ATOM     20  C   UNL     1      48.900   5.518  19.484  0.00  0.00    +0.000 A 
ATOM     21  H   UNL     1      48.093   2.491  20.107  0.00  0.00    +0.000 HD
ENDBRANCH   9  12
ENDBRANCH   7  10
ENDBRANCH   1   7
BRANCH   4  22
ATOM     22  C   UNL     1      44.965   5.775  10.962  0.00  0.00    +0.000 C 
BRANCH  22  23
ATOM     23  N   UNL     1      44.559   4.359  10.756  0.00  0.00    +0.000 NA
BRANCH  23  24
ATOM     24  C   UNL     1      43.323   4.057  11.526  0.00  0.00    +0.000 C 
BRANCH  24  25
ATOM     25  C   UNL     1      42.523   5.285  12.004  0.00  0.00    +0.000 C 
BRANCH  25  26
ATOM     26  O   UNL     1      42.582   5.398  13.426  0.00  0.00    +0.000 OA
ATOM     27  H   UNL     1      42.589   4.494  13.786  0.00  0.00    +0.000 HD
ENDBRANCH  25  26
ENDBRANCH  24  25
ENDBRANCH  23  24
BRANCH  23  28
ATOM     28  C   UNL     1      44.323   4.105   9.321  0.00  0.00    +0.000 C 
BRANCH  28  29
ATOM     29  C   UNL     1      45.393   3.308   8.604  0.00  0.00    +0.000 A 
ATOM     30  C   UNL     1      45.526   1.927   8.806  0.00  0.00    +0.000 A 
ATOM     31  C   UNL     1      46.430   1.185   8.043  0.00  0.00    +0.000 A 
ATOM     32  C   UNL     1      47.213   1.817   7.076  0.00  0.00    +0.000 A 
ATOM     33  C   UNL     1      47.107   3.192   6.885  0.00  0.00    +0.000 A 
ATOM     34  C   UNL     1      46.202   3.935   7.645  0.00  0.00    +0.000 A 
ENDBRANCH  28  29
ENDBRANCH  23  28
ENDBRANCH  22  23
ENDBRANCH   4  22
TORSDOF 10
ENDMDL
MODEL 2
REMARK VINA RESULT:    -7.996      1.969      2.809
REMARK INTER + INTRA:         -13.429
REMARK INTER:                 -12.244
REMARK INTRA:                  -1.184
REMARK UNBOUND:                -0.992
REMARK  Name = 
REMARK  10 active torsions:
REMARK  status: ('A' for Active; 'I' for Inactive)
REMARK    1  A    between atoms: C_2  and  C_23
REMARK    2  A    between atoms: N_3  and  C_4
REMARK    3  A    between atoms: C_4  and  C_5
REMARK    4  A    between atoms: C_8  and  C_9
REMARK    5  A    between atoms: C_9  and  N_10
REMARK    6  A    between atoms: N_10  and  C_11
REMARK    7  A    between atoms: N_10  and  C_14
REMARK    8  A    between atoms: C_11  and  C_12
REMARK    9  A    between atoms: C_12  and  O_13
REMARK   10  A    between atoms: C_14  and  C_15
REMARK                            x       y       z     vdW  Elec       q    Type
REMARK                         _______ _______ _______ _____ _____    ______ ____
ROOT
ATOM      1  C   UNL     1      46.962   8.056  13.023  0.00  0.00    +0.000 A 
ATOM      2  C   UNL     1      47.549   7.084  12.202  0.00  0.00    +0.000 A 
ATOM      3  C   UNL     1      46.763   6.317  11.342  0.00  0.00    +0.000 A 
ATOM      4  C   UNL     1      45.376   6.504  11.291  0.00  0.00    +0.000 A 
ATOM      5  C   UNL     1      44.804   7.552  12.028  0.00  0.00    +0.000 A 
ATOM      6  C   UNL     1      45.592   8.324  12.883  0.00  0.00    +0.000 A 
ENDROOT
BRANCH   1   7
ATOM      7  C   UNL     1      47.786   8.783  14.049  0.00  0.00    +0.000 C 
BRANCH   7  10
ATOM      8  O   UNL     1      50.207   7.525  14.501  0.00  0.00    +0.000 OA
ATOM      9  C   UNL     1      49.308   7.365  15.321  0.00  0.00    +0.000 C 
ATOM     10  N   UNL     1      48.073   7.955  15.182  0.00  0.00    +0.000 N 
ATOM     11  H   UNL     1      47.374   7.860  15.902  0.00  0.00    +0.000 HD
BRANCH   9  12
ATOM     12  C   UNL     1      49.467   6.529  16.509  0.00  0.00    +0.000 A 
ATOM     13  C   UNL     1      50.287   6.771  17.606  0.00  0.00    +0.000 A 
ATOM     14  N   UNL     1      50.120   5.751  18.508  0.00  0.00    +0.000 N 
ATOM     15  C   UNL     1      49.213   4.854  18.029  0.00  0.00    +0.000 A 
ATOM     16  N   UNL     1      48.830   3.747  18.690  0.00  0.00    +0.000 NA
ATOM     17  C   UNL     1      47.917   3.019  18.010  0.00  0.00    +0.000 A 
ATOM     18  C   UNL     1      47.404   3.329  16.758  0.00  0.00    +0.000 A 
ATOM     19  C   UNL     1      47.840   4.491  16.118  0.00  0.00    +0.000 A 
ATOM     20  C   UNL     1      48.784   5.294  16.783  0.00  0.00    +0.000 A 
ATOM     21  H   UNL     1      50.577   5.657  19.402  0.00  0.00    +0.000 HD
ENDBRANCH   9  12
ENDBRANCH   7  10
ENDBRANCH   1   7
BRANCH   4  22
ATOM     22  C   UNL     1      44.501   5.534  10.517  0.00  0.00    +0.000 C 
BRANCH  22  23
ATOM     23  N   UNL     1      45.121   4.191  10.354  0.00  0.00    +0.000 NA
BRANCH  23  24
ATOM     24  C   UNL     1      44.849   3.346  11.547  0.00  0.00    +0.000 C 
BRANCH  24  25
ATOM     25  C   UNL     1      43.359   3.137  11.886  0.00  0.00    +0.000 C 
BRANCH  25  26
ATOM     26  O   UNL     1      42.983   1.777  11.673  0.00  0.00    +0.000 OA
ATOM     27  H   UNL     1      42.252   1.778  11.031  0.00  0.00    +0.000 HD
ENDBRANCH  25  26
ENDBRANCH  24  25
ENDBRANCH  23  24
BRANCH  23  28
ATOM     28  C   UNL     1      44.588   3.531   9.146  0.00  0.00    +0.000 C 
BRANCH  28  29
ATOM     29  C   UNL     1      45.610   2.871   8.245  0.00  0.00    +0.000 A 
ATOM     30  C   UNL     1      46.395   3.628   7.363  0.00  0.00    +0.000 A 
ATOM     31  C   UNL     1      47.420   3.022   6.633  0.00  0.00    +0.000 A 
ATOM     32  C   UNL     1      47.665   1.656   6.772  0.00  0.00    +0.000 A 
ATOM     33  C   UNL     1      46.875   0.890   7.625  0.00  0.00    +0.000 A 
ATOM     34  C   UNL     1      45.851   1.493   8.357  0.00  0.00    +0.000 A 
ENDBRANCH  28  29
ENDBRANCH  23  28
ENDBRANCH  22  23
ENDBRANCH   4  22
TORSDOF 10
ENDMDL
MODEL 3
REMARK VINA RESULT:    -7.088      5.110      6.916
REMARK INTER + INTRA:         -12.016
REMARK INTER:                 -10.931
REMARK INTRA:                  -1.085
REMARK UNBOUND:                -0.992
REMARK  Name = 
REMARK  10 active torsions:
REMARK  status: ('A' for Active; 'I' for Inactive)
REMARK    1  A    between atoms: C_2  and  C_23
REMARK    2  A    between atoms: N_3  and  C_4
REMARK    3  A    between atoms: C_4  and  C_5
REMARK    4  A    between atoms: C_8  and  C_9
REMARK    5  A    between atoms: C_9  and  N_10
REMARK    6  A    between atoms: N_10  and  C_11
REMARK    7  A    between atoms: N_10  and  C_14
REMARK    8  A    between atoms: C_11  and  C_12
REMARK    9  A    between atoms: C_12  and  O_13
REMARK   10  A    between atoms: C_14  and  C_15
REMARK                            x       y       z     vdW  Elec       q    Type
REMARK                         _______ _______ _______ _____ _____    ______ ____
ROOT
ATOM      1  C   UNL     1      47.315   8.479  12.708  0.00  0.00    +0.000 A 
ATOM      2  C   UNL     1      45.956   8.518  13.046  0.00  0.00    +0.000 A 
ATOM      3  C   UNL     1      45.070   7.577  12.520  0.00  0.00    +0.000 A 
ATOM      4  C   UNL     1      45.527   6.583  11.644  0.00  0.00    +0.000 A 
ATOM      5  C   UNL     1      46.903   6.476  11.397  0.00  0.00    +0.000 A 
ATOM      6  C   UNL     1      47.790   7.414  11.929  0.00  0.00    +0.000 A 
ENDROOT
BRANCH   1   7
ATOM      7  C   UNL     1      48.241   9.573  13.160  0.00  0.00    +0.000 C 
BRANCH   7  10
ATOM      8  O   UNL     1      50.878   8.878  13.621  0.00  0.00    +0.000 OA
ATOM      9  C   UNL     1      50.597   9.405  12.549  0.00  0.00    +0.000 C 
ATOM     10  N   UNL     1      49.312   9.779  12.231  0.00  0.00    +0.000 N 
ATOM     11  H   UNL     1      49.096  10.150  11.318  0.00  0.00    +0.000 HD
BRANCH   9  12
ATOM     12  C   UNL     1      51.599   9.687  11.524  0.00  0.00    +0.000 A 
ATOM     13  C   UNL     1      52.222  10.904  11.266  0.00  0.00    +0.000 A 
ATOM     14  N   UNL     1      53.112  10.728  10.238  0.00  0.00    +0.000 N 
ATOM     15  C   UNL     1      53.088   9.430   9.822  0.00  0.00    +0.000 A 
ATOM     16  N   UNL     1      53.858   8.944   8.833  0.00  0.00    +0.000 NA
ATOM     17  C   UNL     1      53.655   7.626   8.608  0.00  0.00    +0.000 A 
ATOM     18  C   UNL     1      52.754   6.819   9.288  0.00  0.00    +0.000 A 
ATOM     19  C   UNL     1      51.979   7.379  10.306  0.00  0.00    +0.000 A 
ATOM     20  C   UNL     1      52.155   8.746  10.591  0.00  0.00    +0.000 A 
ATOM     21  H   UNL     1      53.714  11.429   9.836  0.00  0.00    +0.000 HD
ENDBRANCH   9  12
ENDBRANCH   7  10
ENDBRANCH   1   7
BRANCH   4  22
ATOM     22  C   UNL     1      44.537   5.695  10.912  0.00  0.00    +0.000 C 
BRANCH  22  23
ATOM     23  N   UNL     1      45.103   4.369  10.544  0.00  0.00    +0.000 NA
BRANCH  23  24
ATOM     24  C   UNL     1      44.762   3.355  11.576  0.00  0.00    +0.000 C 
BRANCH  24  25
ATOM     25  C   UNL     1      43.267   2.996  11.686  0.00  0.00    +0.000 C 
BRANCH  25  26
ATOM     26  O   UNL     1      43.086   1.582  11.608  0.00  0.00    +0.000 OA
ATOM     27  H   UNL     1      43.040   1.350  10.664  0.00  0.00    +0.000 HD
ENDBRANCH  25  26
ENDBRANCH  24  25
ENDBRANCH  23  24
BRANCH  23  28
ATOM     28  C   UNL     1      44.575   3.940   9.234  0.00  0.00    +0.000 C 
BRANCH  28  29
ATOM     29  C   UNL     1      45.512   3.115   8.378  0.00  0.00    +0.000 A 
ATOM     30  C   UNL     1      46.387   3.724   7.466  0.00  0.00    +0.000 A 
ATOM     31  C   UNL     1      47.334   2.962   6.778  0.00  0.00    +0.000 A 
ATOM     32  C   UNL     1      47.411   1.585   6.991  0.00  0.00    +0.000 A 
ATOM     33  C   UNL     1      46.532   0.967   7.875  0.00  0.00    +0.000 A 
ATOM     34  C   UNL     1      45.586   1.726   8.564  0.00  0.00    +0.000 A 
ENDBRANCH  28  29
ENDBRANCH  23  28
ENDBRANCH  22  23
ENDBRANCH   4  22
TORSDOF 10
ENDMDL
MODEL 4
REMARK VINA RESULT:    -7.082      2.219      3.019
REMARK INTER + INTRA:         -12.006
REMARK INTER:                 -10.855
REMARK INTRA:                  -1.152
REMARK UNBOUND:                -0.992
REMARK  Name = 
REMARK  10 active torsions:
REMARK  status: ('A' for Active; 'I' for Inactive)
REMARK    1  A    between atoms: C_2  and  C_23
REMARK    2  A    between atoms: N_3  and  C_4
REMARK    3  A    between atoms: C_4  and  C_5
REMARK    4  A    between atoms: C_8  and  C_9
REMARK    5  A    between atoms: C_9  and  N_10
REMARK    6  A    between atoms: N_10  and  C_11
REMARK    7  A    between atoms: N_10  and  C_14
REMARK    8  A    between atoms: C_11  and  C_12
REMARK    9  A    between atoms: C_12  and  O_13
REMARK   10  A    between atoms: C_14  and  C_15
REMARK                            x       y       z     vdW  Elec       q    Type
REMARK                         _______ _______ _______ _____ _____    ______ ____
ROOT
ATOM      1  C   UNL     1      48.649   7.841  13.586  0.00  0.00    +0.000 A 
ATOM      2  C   UNL     1      48.832   7.210  12.349  0.00  0.00    +0.000 A 
ATOM      3  C   UNL     1      47.732   6.854  11.569  0.00  0.00    +0.000 A 
ATOM      4  C   UNL     1      46.430   7.118  12.013  0.00  0.00    +0.000 A 
ATOM      5  C   UNL     1      46.252   7.850  13.196  0.00  0.00    +0.000 A 
ATOM      6  C   UNL     1      47.353   8.212  13.974  0.00  0.00    +0.000 A 
ENDROOT
BRANCH   1   7
ATOM      7  C   UNL     1      49.823   8.097  14.490  0.00  0.00    +0.000 C 
BRANCH   7  10
ATOM      8  O   UNL     1      48.962   7.452  17.037  0.00  0.00    +0.000 OA
ATOM      9  C   UNL     1      49.733   6.682  16.474  0.00  0.00    +0.000 C 
ATOM     10  N   UNL     1      50.209   6.918  15.205  0.00  0.00    +0.000 N 
ATOM     11  H   UNL     1      50.789   6.237  14.739  0.00  0.00    +0.000 HD
BRANCH   9  12
ATOM     12  C   UNL     1      50.217   5.454  17.102  0.00  0.00    +0.000 A 
ATOM     13  C   UNL     1      49.458   4.372  17.534  0.00  0.00    +0.000 A 
ATOM     14  N   UNL     1      50.305   3.421  18.042  0.00  0.00    +0.000 N 
ATOM     15  C   UNL     1      51.595   3.854  17.951  0.00  0.00    +0.000 A 
ATOM     16  N   UNL     1      52.658   3.138  18.359  0.00  0.00    +0.000 NA
ATOM     17  C   UNL     1      53.830   3.780  18.159  0.00  0.00    +0.000 A 
ATOM     18  C   UNL     1      53.977   5.045  17.607  0.00  0.00    +0.000 A 
ATOM     19  C   UNL     1      52.837   5.741  17.202  0.00  0.00    +0.000 A 
ATOM     20  C   UNL     1      51.587   5.118  17.377  0.00  0.00    +0.000 A 
ATOM     21  H   UNL     1      50.045   2.524  18.424  0.00  0.00    +0.000 HD
ENDBRANCH   9  12
ENDBRANCH   7  10
ENDBRANCH   1   7
BRANCH   4  22
ATOM     22  C   UNL     1      45.236   6.546  11.269  0.00  0.00    +0.000 C 
BRANCH  22  23
ATOM     23  N   UNL     1      45.232   5.059  11.227  0.00  0.00    +0.000 NA
BRANCH  23  24
ATOM     24  C   UNL     1      44.664   4.507  12.485  0.00  0.00    +0.000 C 
BRANCH  24  25
ATOM     25  C   UNL     1      43.398   3.643  12.318  0.00  0.00    +0.000 C 
BRANCH  25  26
ATOM     26  O   UNL     1      43.700   2.265  12.535  0.00  0.00    +0.000 OA
ATOM     27  H   UNL     1      43.327   2.023  13.401  0.00  0.00    +0.000 HD
ENDBRANCH  25  26
ENDBRANCH  24  25
ENDBRANCH  23  24
BRANCH  23  28
ATOM     28  C   UNL     1      44.438   4.588  10.075  0.00  0.00    +0.000 C 
BRANCH  28  29
ATOM     29  C   UNL     1      45.169   3.714   9.078  0.00  0.00    +0.000 A 
ATOM     30  C   UNL     1      45.931   4.277   8.043  0.00  0.00    +0.000 A 
ATOM     31  C   UNL     1      46.702   3.463   7.210  0.00  0.00    +0.000 A 
ATOM     32  C   UNL     1      46.714   2.081   7.401  0.00  0.00    +0.000 A 
ATOM     33  C   UNL     1      45.943   1.509   8.409  0.00  0.00    +0.000 A 
ATOM     34  C   UNL     1      45.173   2.321   9.243  0.00  0.00    +0.000 A 
ENDBRANCH  28  29
ENDBRANCH  23  28
ENDBRANCH  22  23
ENDBRANCH   4  22
TORSDOF 10
ENDMDL
MODEL 5
REMARK VINA RESULT:    -7.052      2.718      9.318
REMARK INTER + INTRA:         -11.961
REMARK INTER:                 -10.327
REMARK INTRA:                  -1.634
REMARK UNBOUND:                -0.992
REMARK  Name = 
REMARK  10 active torsions:
REMARK  status: ('A' for Active; 'I' for Inactive)
REMARK    1  A    between atoms: C_2  and  C_23
REMARK    2  A    between atoms: N_3  and  C_4
REMARK    3  A    between atoms: C_4  and  C_5
REMARK    4  A    between atoms: C_8  and  C_9
REMARK    5  A    between atoms: C_9  and  N_10
REMARK    6  A    between atoms: N_10  and  C_11
REMARK    7  A    between atoms: N_10  and  C_14
REMARK    8  A    between atoms: C_11  and  C_12
REMARK    9  A    between atoms: C_12  and  O_13
REMARK   10  A    between atoms: C_14  and  C_15
REMARK                            x       y       z     vdW  Elec       q    Type
REMARK                         _______ _______ _______ _____ _____    ______ ____
ROOT
ATOM      1  C   UNL     1      47.063   7.922  13.018  0.00  0.00    +0.000 A 
ATOM      2  C   UNL     1      47.192   8.930  13.983  0.00  0.00    +0.000 A 
ATOM      3  C   UNL     1      48.364   9.044  14.730  0.00  0.00    +0.000 A 
ATOM      4  C   UNL     1      49.425   8.152  14.530  0.00  0.00    +0.000 A 
ATOM      5  C   UNL     1      49.339   7.217  13.488  0.00  0.00    +0.000 A 
ATOM      6  C   UNL     1      48.168   7.107  12.735  0.00  0.00    +0.000 A 
ENDROOT
BRANCH   1   7
ATOM      7  C   UNL     1      45.752   7.709  12.313  0.00  0.00    +0.000 C 
BRANCH   7  10
ATOM      8  O   UNL     1      43.400   6.600  11.369  0.00  0.00    +0.000 OA
ATOM      9  C   UNL     1      44.408   5.900  11.382  0.00  0.00    +0.000 C 
ATOM     10  N   UNL     1      45.621   6.367  11.829  0.00  0.00    +0.000 N 
ATOM     11  H   UNL     1      46.448   5.793  11.768  0.00  0.00    +0.000 HD
BRANCH   9  12
ATOM     12  C   UNL     1      44.404   4.509  10.933  0.00  0.00    +0.000 A 
ATOM     13  C   UNL     1      43.799   3.423  11.557  0.00  0.00    +0.000 A 
ATOM     14  N   UNL     1      44.016   2.305  10.793  0.00  0.00    +0.000 N 
ATOM     15  C   UNL     1      44.744   2.634   9.688  0.00  0.00    +0.000 A 
ATOM     16  N   UNL     1      45.111   1.753   8.741  0.00  0.00    +0.000 NA
ATOM     17  C   UNL     1      45.823   2.322   7.743  0.00  0.00    +0.000 A 
ATOM     18  C   UNL     1      46.175   3.662   7.661  0.00  0.00    +0.000 A 
ATOM     19  C   UNL     1      45.767   4.530   8.676  0.00  0.00    +0.000 A 
ATOM     20  C   UNL     1      45.014   3.996   9.737  0.00  0.00    +0.000 A 
ATOM     21  H   UNL     1      43.692   1.370  10.987  0.00  0.00    +0.000 HD
ENDBRANCH   9  12
ENDBRANCH   7  10
ENDBRANCH   1   7
BRANCH   4  22
ATOM     22  C   UNL     1      50.609   8.144  15.481  0.00  0.00    +0.000 C 
BRANCH  22  23
ATOM     23  N   UNL     1      51.023   6.774  15.887  0.00  0.00    +0.000 NA
BRANCH  23  24
ATOM     24  C   UNL     1      52.497   6.710  16.065  0.00  0.00    +0.000 C 
BRANCH  24  25
ATOM     25  C   UNL     1      53.319   7.633  15.143  0.00  0.00    +0.000 C 
BRANCH  25  26
ATOM     26  O   UNL     1      54.101   6.862  14.232  0.00  0.00    +0.000 OA
ATOM     27  H   UNL     1      53.985   5.927  14.473  0.00  0.00    +0.000 HD
ENDBRANCH  25  26
ENDBRANCH  24  25
ENDBRANCH  23  24
BRANCH  23  28
ATOM     28  C   UNL     1      50.354   6.397  17.148  0.00  0.00    +0.000 C 
BRANCH  28  29
ATOM     29  C   UNL     1      49.458   5.178  17.085  0.00  0.00    +0.000 A 
ATOM     30  C   UNL     1      48.218   5.222  16.432  0.00  0.00    +0.000 A 
ATOM     31  C   UNL     1      47.462   4.059  16.271  0.00  0.00    +0.000 A 
ATOM     32  C   UNL     1      47.936   2.844  16.766  0.00  0.00    +0.000 A 
ATOM     33  C   UNL     1      49.154   2.793  17.438  0.00  0.00    +0.000 A 
ATOM     34  C   UNL     1      49.911   3.953  17.599  0.00  0.00    +0.000 A 
ENDBRANCH  28  29
ENDBRANCH  23  28
ENDBRANCH  22  23
ENDBRANCH   4  22
TORSDOF 10
ENDMDL
MODEL 6
REMARK VINA RESULT:    -6.749      1.824      2.422
REMARK INTER + INTRA:         -11.489
REMARK INTER:                 -10.931
REMARK INTRA:                  -0.558
REMARK UNBOUND:                -0.992
REMARK  Name = 
REMARK  10 active torsions:
REMARK  status: ('A' for Active; 'I' for Inactive)
REMARK    1  A    between atoms: C_2  and  C_23
REMARK    2  A    between atoms: N_3  and  C_4
REMARK    3  A    between atoms: C_4  and  C_5
REMARK    4  A    between atoms: C_8  and  C_9
REMARK    5  A    between atoms: C_9  and  N_10
REMARK    6  A    between atoms: N_10  and  C_11
REMARK    7  A    between atoms: N_10  and  C_14
REMARK    8  A    between atoms: C_11  and  C_12
REMARK    9  A    between atoms: C_12  and  O_13
REMARK   10  A    between atoms: C_14  and  C_15
REMARK                            x       y       z     vdW  Elec       q    Type
REMARK                         _______ _______ _______ _____ _____    ______ ____
ROOT
ATOM      1  C   UNL     1      48.509   7.341  14.067  0.00  0.00    +0.000 A 
ATOM      2  C   UNL     1      47.962   8.257  13.158  0.00  0.00    +0.000 A 
ATOM      3  C   UNL     1      47.097   7.823  12.153  0.00  0.00    +0.000 A 
ATOM      4  C   UNL     1      46.766   6.467  12.037  0.00  0.00    +0.000 A 
ATOM      5  C   UNL     1      47.223   5.571  13.014  0.00  0.00    +0.000 A 
ATOM      6  C   UNL     1      48.084   6.006  14.023  0.00  0.00    +0.000 A 
ENDROOT
BRANCH   1   7
ATOM      7  C   UNL     1      49.550   7.784  15.058  0.00  0.00    +0.000 C 
BRANCH   7  10
ATOM      8  O   UNL     1      48.054   9.227  16.882  0.00  0.00    +0.000 OA
ATOM      9  C   UNL     1      48.490   8.134  17.226  0.00  0.00    +0.000 C 
ATOM     10  N   UNL     1      49.239   7.344  16.385  0.00  0.00    +0.000 N 
ATOM     11  H   UNL     1      49.530   6.422  16.669  0.00  0.00    +0.000 HD
BRANCH   9  12
ATOM     12  C   UNL     1      48.261   7.580  18.559  0.00  0.00    +0.000 A 
ATOM     13  C   UNL     1      48.564   6.297  19.002  0.00  0.00    +0.000 A 
ATOM     14  N   UNL     1      48.208   6.197  20.323  0.00  0.00    +0.000 N 
ATOM     15  C   UNL     1      47.684   7.380  20.751  0.00  0.00    +0.000 A 
ATOM     16  N   UNL     1      47.251   7.599  22.005  0.00  0.00    +0.000 NA
ATOM     17  C   UNL     1      46.778   8.852  22.187  0.00  0.00    +0.000 A 
ATOM     18  C   UNL     1      46.715   9.842  21.215  0.00  0.00    +0.000 A 
ATOM     19  C   UNL     1      47.179   9.556  19.930  0.00  0.00    +0.000 A 
ATOM     20  C   UNL     1      47.692   8.269  19.684  0.00  0.00    +0.000 A 
ATOM     21  H   UNL     1      48.314   5.388  20.916  0.00  0.00    +0.000 HD
ENDBRANCH   9  12
ENDBRANCH   7  10
ENDBRANCH   1   7
BRANCH   4  22
ATOM     22  C   UNL     1      45.998   5.968  10.826  0.00  0.00    +0.000 C 
BRANCH  22  23
ATOM     23  N   UNL     1      44.910   5.016  11.177  0.00  0.00    +0.000 NA
BRANCH  23  24
ATOM     24  C   UNL     1      43.938   5.657  12.101  0.00  0.00    +0.000 C 
BRANCH  24  25
ATOM     25  C   UNL     1      42.453   5.370  11.806  0.00  0.00    +0.000 C 
BRANCH  25  26
ATOM     26  O   UNL     1      41.707   6.586  11.760  0.00  0.00    +0.000 OA
ATOM     27  H   UNL     1      40.795   6.355  11.514  0.00  0.00    +0.000 HD
ENDBRANCH  25  26
ENDBRANCH  24  25
ENDBRANCH  23  24
BRANCH  23  28
ATOM     28  C   UNL     1      44.212   4.572   9.953  0.00  0.00    +0.000 C 
BRANCH  28  29
ATOM     29  C   UNL     1      45.016   3.704   9.008  0.00  0.00    +0.000 A 
ATOM     30  C   UNL     1      45.798   4.271   7.991  0.00  0.00    +0.000 A 
ATOM     31  C   UNL     1      46.633   3.467   7.211  0.00  0.00    +0.000 A 
ATOM     32  C   UNL     1      46.688   2.091   7.437  0.00  0.00    +0.000 A 
ATOM     33  C   UNL     1      45.897   1.515   8.427  0.00  0.00    +0.000 A 
ATOM     34  C   UNL     1      45.064   2.316   9.208  0.00  0.00    +0.000 A 
ENDBRANCH  28  29
ENDBRANCH  23  28
ENDBRANCH  22  23
ENDBRANCH   4  22
TORSDOF 10
ENDMDL
MODEL 7
REMARK VINA RESULT:    -6.743      3.198      8.865
REMARK INTER + INTRA:         -11.480
REMARK INTER:                  -9.339
REMARK INTRA:                  -2.141
REMARK UNBOUND:                -0.992
REMARK  Name = 
REMARK  10 active torsions:
REMARK  status: ('A' for Active; 'I' for Inactive)
REMARK    1  A    between atoms: C_2  and  C_23
REMARK    2  A    between atoms: N_3  and  C_4
REMARK    3  A    between atoms: C_4  and  C_5
REMARK    4  A    between atoms: C_8  and  C_9
REMARK    5  A    between atoms: C_9  and  N_10
REMARK    6  A    between atoms: N_10  and  C_11
REMARK    7  A    between atoms: N_10  and  C_14
REMARK    8  A    between atoms: C_11  and  C_12
REMARK    9  A    between atoms: C_12  and  O_13
REMARK   10  A    between atoms: C_14  and  C_15
REMARK                            x       y       z     vdW  Elec       q    Type
REMARK                         _______ _______ _______ _____ _____    ______ ____
ROOT
ATOM      1  C   UNL     1      49.135   7.969  15.718  0.00  0.00    +0.000 A 
ATOM      2  C   UNL     1      48.965   8.578  16.968  0.00  0.00    +0.000 A 
ATOM      3  C   UNL     1      49.780   8.223  18.043  0.00  0.00    +0.000 A 
ATOM      4  C   UNL     1      50.776   7.251  17.888  0.00  0.00    +0.000 A 
ATOM      5  C   UNL     1      51.021   6.726  16.611  0.00  0.00    +0.000 A 
ATOM      6  C   UNL     1      50.209   7.086  15.534  0.00  0.00    +0.000 A 
ENDROOT
BRANCH   1   7
ATOM      7  C   UNL     1      48.169   8.246  14.600  0.00  0.00    +0.000 C 
BRANCH   7  10
ATOM      8  O   UNL     1      48.390   6.677  12.333  0.00  0.00    +0.000 OA
ATOM      9  C   UNL     1      47.527   6.388  13.156  0.00  0.00    +0.000 C 
ATOM     10  N   UNL     1      47.347   7.108  14.314  0.00  0.00    +0.000 N 
ATOM     11  H   UNL     1      46.675   6.811  15.005  0.00  0.00    +0.000 HD
BRANCH   9  12
ATOM     12  C   UNL     1      46.612   5.263  12.975  0.00  0.00    +0.000 A 
ATOM     13  C   UNL     1      46.823   3.938  13.341  0.00  0.00    +0.000 A 
ATOM     14  N   UNL     1      45.706   3.213  13.013  0.00  0.00    +0.000 N 
ATOM     15  C   UNL     1      44.774   4.030  12.446  0.00  0.00    +0.000 A 
ATOM     16  N   UNL     1      43.566   3.614  12.026  0.00  0.00    +0.000 NA
ATOM     17  C   UNL     1      42.819   4.612  11.503  0.00  0.00    +0.000 A 
ATOM     18  C   UNL     1      43.212   5.938  11.380  0.00  0.00    +0.000 A 
ATOM     19  C   UNL     1      44.478   6.312  11.833  0.00  0.00    +0.000 A 
ATOM     20  C   UNL     1      45.298   5.315  12.396  0.00  0.00    +0.000 A 
ATOM     21  H   UNL     1      45.562   2.227  13.165  0.00  0.00    +0.000 HD
ENDBRANCH   9  12
ENDBRANCH   7  10
ENDBRANCH   1   7
BRANCH   4  22
ATOM     22  C   UNL     1      51.519   6.716  19.101  0.00  0.00    +0.000 C 
BRANCH  22  23
ATOM     23  N   UNL     1      51.461   5.234  19.214  0.00  0.00    +0.000 NA
BRANCH  23  24
ATOM     24  C   UNL     1      52.411   4.755  20.252  0.00  0.00    +0.000 C 
BRANCH  24  25
ATOM     25  C   UNL     1      53.485   3.764  19.763  0.00  0.00    +0.000 C 
BRANCH  25  26
ATOM     26  O   UNL     1      52.875   2.610  19.184  0.00  0.00    +0.000 OA
ATOM     27  H   UNL     1      53.247   1.833  19.635  0.00  0.00    +0.000 HD
ENDBRANCH  25  26
ENDBRANCH  24  25
ENDBRANCH  23  24
BRANCH  23  28
ATOM     28  C   UNL     1      50.091   4.806  19.561  0.00  0.00    +0.000 C 
BRANCH  28  29
ATOM     29  C   UNL     1      49.267   4.234  18.427  0.00  0.00    +0.000 A 
ATOM     30  C   UNL     1      49.669   3.073  17.752  0.00  0.00    +0.000 A 
ATOM     31  C   UNL     1      48.836   2.486  16.797  0.00  0.00    +0.000 A 
ATOM     32  C   UNL     1      47.598   3.057  16.504  0.00  0.00    +0.000 A 
ATOM     33  C   UNL     1      47.199   4.224  17.149  0.00  0.00    +0.000 A 
ATOM     34  C   UNL     1      48.029   4.812  18.105  0.00  0.00    +0.000 A 
ENDBRANCH  28  29
ENDBRANCH  23  28
ENDBRANCH  22  23
ENDBRANCH   4  22
TORSDOF 10
ENDMDL
MODEL 8
REMARK VINA RESULT:    -6.733      3.931      9.502
REMARK INTER + INTRA:         -11.464
REMARK INTER:                  -9.244
REMARK INTRA:                  -2.220
REMARK UNBOUND:                -0.992
REMARK  Name = 
REMARK  10 active torsions:
REMARK  status: ('A' for Active; 'I' for Inactive)
REMARK    1  A    between atoms: C_2  and  C_23
REMARK    2  A    between atoms: N_3  and  C_4
REMARK    3  A    between atoms: C_4  and  C_5
REMARK    4  A    between atoms: C_8  and  C_9
REMARK    5  A    between atoms: C_9  and  N_10
REMARK    6  A    between atoms: N_10  and  C_11
REMARK    7  A    between atoms: N_10  and  C_14
REMARK    8  A    between atoms: C_11  and  C_12
REMARK    9  A    between atoms: C_12  and  O_13
REMARK   10  A    between atoms: C_14  and  C_15
REMARK                            x       y       z     vdW  Elec       q    Type
REMARK                         _______ _______ _______ _____ _____    ______ ____
ROOT
ATOM      1  C   UNL     1      46.857   8.281  12.161  0.00  0.00    +0.000 A 
ATOM      2  C   UNL     1      47.086   9.663  12.179  0.00  0.00    +0.000 A 
ATOM      3  C   UNL     1      48.356  10.171  11.906  0.00  0.00    +0.000 A 
ATOM      4  C   UNL     1      49.419   9.307  11.614  0.00  0.00    +0.000 A 
ATOM      5  C   UNL     1      49.164   7.935  11.485  0.00  0.00    +0.000 A 
ATOM      6  C   UNL     1      47.891   7.427  11.752  0.00  0.00    +0.000 A 
ENDROOT
BRANCH   1   7
ATOM      7  C   UNL     1      45.528   7.726  12.593  0.00  0.00    +0.000 C 
BRANCH   7  10
ATOM      8  O   UNL     1      43.242   6.772  11.363  0.00  0.00    +0.000 OA
ATOM      9  C   UNL     1      44.170   5.991  11.549  0.00  0.00    +0.000 C 
ATOM     10  N   UNL     1      45.346   6.377  12.148  0.00  0.00    +0.000 N 
ATOM     11  H   UNL     1      46.117   5.733  12.229  0.00  0.00    +0.000 HD
BRANCH   9  12
ATOM     12  C   UNL     1      44.103   4.584  11.158  0.00  0.00    +0.000 A 
ATOM     13  C   UNL     1      43.450   3.554  11.826  0.00  0.00    +0.000 A 
ATOM     14  N   UNL     1      43.616   2.396  11.110  0.00  0.00    +0.000 N 
ATOM     15  C   UNL     1      44.358   2.646   9.993  0.00  0.00    +0.000 A 
ATOM     16  N   UNL     1      44.684   1.710   9.084  0.00  0.00    +0.000 NA
ATOM     17  C   UNL     1      45.421   2.204   8.064  0.00  0.00    +0.000 A 
ATOM     18  C   UNL     1      45.833   3.522   7.927  0.00  0.00    +0.000 A 
ATOM     19  C   UNL     1      45.465   4.450   8.904  0.00  0.00    +0.000 A 
ATOM     20  C   UNL     1      44.688   3.994   9.986  0.00  0.00    +0.000 A 
ATOM     21  H   UNL     1      43.250   1.486  11.342  0.00  0.00    +0.000 HD
ENDBRANCH   9  12
ENDBRANCH   7  10
ENDBRANCH   1   7
BRANCH   4  22
ATOM     22  C   UNL     1      50.838   9.843  11.524  0.00  0.00    +0.000 C 
BRANCH  22  23
ATOM     23  N   UNL     1      51.836   8.965  12.192  0.00  0.00    +0.000 NA
BRANCH  23  24
ATOM     24  C   UNL     1      53.143   9.035  11.486  0.00  0.00    +0.000 C 
BRANCH  24  25
ATOM     25  C   UNL     1      53.746   7.679  11.070  0.00  0.00    +0.000 C 
BRANCH  25  26
ATOM     26  O   UNL     1      54.113   6.919  12.221  0.00  0.00    +0.000 OA
ATOM     27  H   UNL     1      54.474   7.544  12.874  0.00  0.00    +0.000 HD
ENDBRANCH  25  26
ENDBRANCH  24  25
ENDBRANCH  23  24
BRANCH  23  28
ATOM     28  C   UNL     1      52.010   9.378  13.599  0.00  0.00    +0.000 C 
BRANCH  28  29
ATOM     29  C   UNL     1      50.869   9.042  14.535  0.00  0.00    +0.000 A 
ATOM     30  C   UNL     1      50.092  10.050  15.124  0.00  0.00    +0.000 A 
ATOM     31  C   UNL     1      48.965   9.723  15.881  0.00  0.00    +0.000 A 
ATOM     32  C   UNL     1      48.609   8.387  16.062  0.00  0.00    +0.000 A 
ATOM     33  C   UNL     1      49.387   7.376  15.503  0.00  0.00    +0.000 A 
ATOM     34  C   UNL     1      50.512   7.701  14.745  0.00  0.00    +0.000 A 
ENDBRANCH  28  29
ENDBRANCH  23  28
ENDBRANCH  22  23
ENDBRANCH   4  22
TORSDOF 10
ENDMDL
MODEL 9
REMARK VINA RESULT:    -6.666      2.257      8.792
REMARK INTER + INTRA:         -11.360
REMARK INTER:                  -9.774
REMARK INTRA:                  -1.587
REMARK UNBOUND:                -0.992
REMARK  Name = 
REMARK  10 active torsions:
REMARK  status: ('A' for Active; 'I' for Inactive)
REMARK    1  A    between atoms: C_2  and  C_23
REMARK    2  A    between atoms: N_3  and  C_4
REMARK    3  A    between atoms: C_4  and  C_5
REMARK    4  A    between atoms: C_8  and  C_9
REMARK    5  A    between atoms: C_9  and  N_10
REMARK    6  A    between atoms: N_10  and  C_11
REMARK    7  A    between atoms: N_10  and  C_14
REMARK    8  A    between atoms: C_11  and  C_12
REMARK    9  A    between atoms: C_12  and  O_13
REMARK   10  A    between atoms: C_14  and  C_15
REMARK                            x       y       z     vdW  Elec       q    Type
REMARK                         _______ _______ _______ _____ _____    ______ ____
ROOT
ATOM      1  C   UNL     1      48.922   7.970  14.536  0.00  0.00    +0.000 A 
ATOM      2  C   UNL     1      48.111   8.761  15.360  0.00  0.00    +0.000 A 
ATOM      3  C   UNL     1      48.343   8.816  16.735  0.00  0.00    +0.000 A 
ATOM      4  C   UNL     1      49.386   8.079  17.309  0.00  0.00    +0.000 A 
ATOM      5  C   UNL     1      50.265   7.378  16.471  0.00  0.00    +0.000 A 
ATOM      6  C   UNL     1      50.036   7.328  15.095  0.00  0.00    +0.000 A 
ENDROOT
BRANCH   1   7
ATOM      7  C   UNL     1      48.587   7.798  13.080  0.00  0.00    +0.000 C 
BRANCH   7  10
ATOM      8  O   UNL     1      45.901   7.772  12.420  0.00  0.00    +0.000 OA
ATOM      9  C   UNL     1      46.481   6.697  12.530  0.00  0.00    +0.000 C 
ATOM     10  N   UNL     1      47.817   6.613  12.849  0.00  0.00    +0.000 N 
ATOM     11  H   UNL     1      48.286   5.720  12.868  0.00  0.00    +0.000 HD
BRANCH   9  12
ATOM     12  C   UNL     1      45.806   5.415  12.339  0.00  0.00    +0.000 A 
ATOM     13  C   UNL     1      45.370   4.536  13.325  0.00  0.00    +0.000 A 
ATOM     14  N   UNL     1      44.767   3.465  12.718  0.00  0.00    +0.000 N 
ATOM     15  C   UNL     1      44.796   3.623  11.364  0.00  0.00    +0.000 A 
ATOM     16  N   UNL     1      44.273   2.742  10.493  0.00  0.00    +0.000 NA
ATOM     17  C   UNL     1      44.423   3.124   9.206  0.00  0.00    +0.000 A 
ATOM     18  C   UNL     1      45.049   4.285   8.774  0.00  0.00    +0.000 A 
ATOM     19  C   UNL     1      45.574   5.163   9.724  0.00  0.00    +0.000 A 
ATOM     20  C   UNL     1      45.439   4.821  11.082  0.00  0.00    +0.000 A 
ATOM     21  H   UNL     1      44.347   2.670  13.176  0.00  0.00    +0.000 HD
ENDBRANCH   9  12
ENDBRANCH   7  10
ENDBRANCH   1   7
BRANCH   4  22
ATOM     22  C   UNL     1      49.506   7.973  18.820  0.00  0.00    +0.000 C 
BRANCH  22  23
ATOM     23  N   UNL     1      49.172   6.620  19.339  0.00  0.00    +0.000 NA
BRANCH  23  24
ATOM     24  C   UNL     1      48.805   6.692  20.778  0.00  0.00    +0.000 C 
BRANCH  24  25
ATOM     25  C   UNL     1      49.125   5.434  21.609  0.00  0.00    +0.000 C 
BRANCH  25  26
ATOM     26  O   UNL     1      48.060   4.488  21.515  0.00  0.00    +0.000 OA
ATOM     27  H   UNL     1      47.710   4.539  20.608  0.00  0.00    +0.000 HD
ENDBRANCH  25  26
ENDBRANCH  24  25
ENDBRANCH  23  24
BRANCH  23  28
ATOM     28  C   UNL     1      48.051   6.046  18.570  0.00  0.00    +0.000 C 
BRANCH  28  29
ATOM     29  C   UNL     1      48.356   4.783  17.792  0.00  0.00    +0.000 A 
ATOM     30  C   UNL     1      49.388   3.919  18.188  0.00  0.00    +0.000 A 
ATOM     31  C   UNL     1      49.574   2.697  17.539  0.00  0.00    +0.000 A 
ATOM     32  C   UNL     1      48.736   2.330  16.485  0.00  0.00    +0.000 A 
ATOM     33  C   UNL     1      47.725   3.191  16.067  0.00  0.00    +0.000 A 
ATOM     34  C   UNL     1      47.537   4.413  16.716  0.00  0.00    +0.000 A 
ENDBRANCH  28  29
ENDBRANCH  23  28
ENDBRANCH  22  23
ENDBRANCH   4  22
TORSDOF 10
ENDMDL
