MODEL 1
REMARK VINA RESULT:    -8.242      0.000      0.000
REMARK INTER + INTRA:         -12.464
REMARK INTER:                 -11.614
REMARK INTRA:                  -0.850
REMARK UNBOUND:                -0.850
REMARK  Name = 
REMARK  7 active torsions:
REMARK  status: ('A' for Active; 'I' for Inactive)
REMARK    1  A    between atoms: C_2  and  C_20
REMARK    2  A    between atoms: N_3  and  C_4
REMARK    3  A    between atoms: C_4  and  C_5
REMARK    4  A    between atoms: C_8  and  C_9
REMARK    5  A    between atoms: C_9  and  N_10
REMARK    6  A    between atoms: N_10  and  C_11
REMARK    7  A    between atoms: C_11  and  C_12
REMARK                            x       y       z     vdW  Elec       q    Type
REMARK                         _______ _______ _______ _____ _____    ______ ____
ROOT
ATOM      1  C   UNL     1      46.834   5.926  13.205  0.00  0.00    +0.000 A 
ATOM      2  C   UNL     1      45.909   4.967  13.635  0.00  0.00    +0.000 A 
ATOM      3  C   UNL     1      44.844   4.583  12.815  0.00  0.00    +0.000 A 
ATOM      4  C   UNL     1      44.675   5.146  11.542  0.00  0.00    +0.000 A 
ATOM      5  C   UNL     1      45.628   6.071  11.092  0.00  0.00    +0.000 A 
ATOM      6  C   UNL     1      46.700   6.453  11.912  0.00  0.00    +0.000 A 
ENDROOT
BRANCH   1   7
ATOM      7  C   UNL     1      47.967   6.346  14.112  0.00  0.00    +0.000 C 
BRANCH   7  10
ATOM      8  O   UNL     1      49.983   6.139  16.069  0.00  0.00    +0.000 OA
ATOM      9  C   UNL     1      48.887   5.645  16.292  0.00  0.00    +0.000 C 
ATOM     10  N   UNL     1      47.836   5.732  15.408  0.00  0.00    +0.000 N 
ATOM     11  H   UNL     1      46.929   5.385  15.671  0.00  0.00    +0.000 HD
BRANCH   9  12
ATOM     12  C   UNL     1      48.598   4.863  17.498  0.00  0.00    +0.000 A 
ATOM     13  C   UNL     1      48.517   3.476  17.597  0.00  0.00    +0.000 A 
ATOM     14  N   UNL     1      48.394   3.139  18.919  0.00  0.00    +0.000 N 
ATOM     15  C   UNL     1      48.387   4.268  19.684  0.00  0.00    +0.000 A 
ATOM     16  N   UNL     1      48.363   4.267  21.029  0.00  0.00    +0.000 NA
ATOM     17  C   UNL     1      48.355   5.513  21.552  0.00  0.00    +0.000 A 
ATOM     18  C   UNL     1      48.306   6.695  20.826  0.00  0.00    +0.000 A 
ATOM     19  C   UNL     1      48.330   6.636  19.431  0.00  0.00    +0.000 A 
ATOM     20  C   UNL     1      48.416   5.367  18.831  0.00  0.00    +0.000 A 
ATOM     21  H   UNL     1      48.354   2.206  19.305  0.00  0.00    +0.000 HD
ENDBRANCH   9  12
ENDBRANCH   7  10
ENDBRANCH   1   7
BRANCH   4  22
ATOM     22  C   UNL     1      43.491   4.755  10.679  0.00  0.00    +0.000 C 
BRANCH  22  23
ATOM     23  N   UNL     1      43.936   4.230   9.387  0.00  0.00    +0.000 NA
ATOM     24  H   UNL     1      44.709   4.806   9.051  0.00  0.00    +0.000 HD
BRANCH  23  25
ATOM     25  C   UNL     1      44.418   2.846   9.494  0.00  0.00    +0.000 C 
BRANCH  25  26
ATOM     26  C   UNL     1      45.508   2.541   8.476  0.00  0.00    +0.000 A 
ATOM     27  C   UNL     1      45.983   3.544   7.633  0.00  0.00    +0.000 A 
ATOM     28  C   UNL     1      46.988   3.241   6.717  0.00  0.00    +0.000 A 
ATOM     29  C   UNL     1      47.489   1.947   6.660  0.00  0.00    +0.000 A 
ATOM     30  C   UNL     1      46.965   1.008   7.533  0.00  0.00    +0.000 A 
ATOM     31  N   UNL     1      45.993   1.272   8.436  0.00  0.00    +0.000 NA
ENDBRANCH  25  26
ENDBRANCH  23  25
ENDBRANCH  22  23
ENDBRANCH   4  22
TORSDOF 7
ENDMDL
MODEL 2
REMARK VINA RESULT:    -7.932      1.556      2.426
REMARK INTER + INTRA:         -12.028
REMARK INTER:                 -11.033
REMARK INTRA:                  -0.995
REMARK UNBOUND:                -0.850
REMARK  Name = 
REMARK  7 active torsions:
REMARK  status: ('A' for Active; 'I' for Inactive)
REMARK    1  A    between atoms: C_2  and  C_20
REMARK    2  A    between atoms: N_3  and  C_4
REMARK    3  A    between atoms: C_4  and  C_5
REMARK    4  A    between atoms: C_8  and  C_9
REMARK    5  A    between atoms: C_9  and  N_10
REMARK    6  A    between atoms: N_10  and  C_11
REMARK    7  A    between atoms: C_11  and  C_12
REMARK                            x       y       z     vdW  Elec       q    Type
REMARK                         _______ _______ _______ _____ _____    ______ ____
ROOT
ATOM      1  C   UNL     1      45.965   6.809  12.637  0.00  0.00    +0.000 A 
ATOM      2  C   UNL     1      45.356   6.907  11.379  0.00  0.00    +0.000 A 
ATOM      3  C   UNL     1      44.629   5.836  10.852  0.00  0.00    +0.000 A 
ATOM      4  C   UNL     1      44.488   4.637  11.567  0.00  0.00    +0.000 A 
ATOM      5  C   UNL     1      45.058   4.556  12.845  0.00  0.00    +0.000 A 
ATOM      6  C   UNL     1      45.783   5.632  13.378  0.00  0.00    +0.000 A 
ENDROOT
BRANCH   1   7
ATOM      7  C   UNL     1      46.765   7.968  13.183  0.00  0.00    +0.000 C 
BRANCH   7  10
ATOM      8  O   UNL     1      49.229   6.630  13.461  0.00  0.00    +0.000 OA
ATOM      9  C   UNL     1      48.596   6.923  14.466  0.00  0.00    +0.000 C 
ATOM     10  N   UNL     1      47.403   7.608  14.422  0.00  0.00    +0.000 N 
ATOM     11  H   UNL     1      46.962   7.902  15.277  0.00  0.00    +0.000 HD
BRANCH   9  12
ATOM     12  C   UNL     1      49.014   6.525  15.812  0.00  0.00    +0.000 A 
ATOM     13  C   UNL     1      49.827   7.247  16.685  0.00  0.00    +0.000 A 
ATOM     14  N   UNL     1      49.842   6.608  17.897  0.00  0.00    +0.000 N 
ATOM     15  C   UNL     1      49.067   5.488  17.838  0.00  0.00    +0.000 A 
ATOM     16  N   UNL     1      48.810   4.692  18.892  0.00  0.00    +0.000 NA
ATOM     17  C   UNL     1      48.021   3.643  18.574  0.00  0.00    +0.000 A 
ATOM     18  C   UNL     1      47.555   3.336  17.303  0.00  0.00    +0.000 A 
ATOM     19  C   UNL     1      47.854   4.197  16.245  0.00  0.00    +0.000 A 
ATOM     20  C   UNL     1      48.609   5.348  16.531  0.00  0.00    +0.000 A 
ATOM     21  H   UNL     1      50.311   6.916  18.737  0.00  0.00    +0.000 HD
ENDBRANCH   9  12
ENDBRANCH   7  10
ENDBRANCH   1   7
BRANCH   4  22
ATOM     22  C   UNL     1      43.735   3.467  10.965  0.00  0.00    +0.000 C 
BRANCH  22  23
ATOM     23  N   UNL     1      44.649   2.374  10.631  0.00  0.00    +0.000 NA
ATOM     24  H   UNL     1      44.495   1.608  11.289  0.00  0.00    +0.000 HD
BRANCH  23  25
ATOM     25  C   UNL     1      44.414   1.857   9.275  0.00  0.00    +0.000 C 
BRANCH  25  26
ATOM     26  C   UNL     1      45.605   2.097   8.358  0.00  0.00    +0.000 A 
ATOM     27  C   UNL     1      45.855   3.369   7.848  0.00  0.00    +0.000 A 
ATOM     28  C   UNL     1      46.957   3.563   7.018  0.00  0.00    +0.000 A 
ATOM     29  C   UNL     1      47.778   2.485   6.714  0.00  0.00    +0.000 A 
ATOM     30  C   UNL     1      47.462   1.253   7.262  0.00  0.00    +0.000 A 
ATOM     31  N   UNL     1      46.402   1.034   8.074  0.00  0.00    +0.000 NA
ENDBRANCH  25  26
ENDBRANCH  23  25
ENDBRANCH  22  23
ENDBRANCH   4  22
TORSDOF 7
ENDMDL
MODEL 3
REMARK VINA RESULT:    -7.087      1.705      2.296
REMARK INTER + INTRA:         -10.837
REMARK INTER:                  -9.944
REMARK INTRA:                  -0.893
REMARK UNBOUND:                -0.850
REMARK  Name = 
REMARK  7 active torsions:
REMARK  status: ('A' for Active; 'I' for Inactive)
REMARK    1  A    between atoms: C_2  and  C_20
REMARK    2  A    between atoms: N_3  and  C_4
REMARK    3  A    between atoms: C_4  and  C_5
REMARK    4  A    between atoms: C_8  and  C_9
REMARK    5  A    between atoms: C_9  and  N_10
REMARK    6  A    between atoms: N_10  and  C_11
REMARK    7  A    between atoms: C_11  and  C_12
REMARK                            x       y       z     vdW  Elec       q    Type
REMARK                         _______ _______ _______ _____ _____    ______ ____
ROOT
ATOM      1  C   UNL     1      46.842   6.670  12.652  0.00  0.00    +0.000 A 
ATOM      2  C   UNL     1      46.731   5.317  12.996  0.00  0.00    +0.000 A 
ATOM      3  C   UNL     1      45.649   4.553  12.550  0.00  0.00    +0.000 A 
ATOM      4  C   UNL     1      44.647   5.120  11.747  0.00  0.00    +0.000 A 
ATOM      5  C   UNL     1      44.783   6.462  11.365  0.00  0.00    +0.000 A 
ATOM      6  C   UNL     1      45.872   7.227  11.806  0.00  0.00    +0.000 A 
ENDROOT
BRANCH   1   7
ATOM      7  C   UNL     1      48.007   7.486  13.160  0.00  0.00    +0.000 C 
BRANCH   7  10
ATOM      8  O   UNL     1      50.067   8.164  14.960  0.00  0.00    +0.000 OA
ATOM      9  C   UNL     1      48.921   8.070  15.377  0.00  0.00    +0.000 C 
ATOM     10  N   UNL     1      47.851   7.780  14.561  0.00  0.00    +0.000 N 
ATOM     11  H   UNL     1      46.917   7.799  14.933  0.00  0.00    +0.000 HD
BRANCH   9  12
ATOM     12  C   UNL     1      48.579   8.202  16.796  0.00  0.00    +0.000 A 
ATOM     13  C   UNL     1      48.195   9.365  17.460  0.00  0.00    +0.000 A 
ATOM     14  N   UNL     1      47.805   9.034  18.732  0.00  0.00    +0.000 N 
ATOM     15  C   UNL     1      47.930   7.688  18.916  0.00  0.00    +0.000 A 
ATOM     16  N   UNL     1      47.547   7.042  20.032  0.00  0.00    +0.000 NA
ATOM     17  C   UNL     1      47.781   5.713  19.972  0.00  0.00    +0.000 A 
ATOM     18  C   UNL     1      48.406   5.047  18.926  0.00  0.00    +0.000 A 
ATOM     19  C   UNL     1      48.785   5.770  17.793  0.00  0.00    +0.000 A 
ATOM     20  C   UNL     1      48.497   7.146  17.767  0.00  0.00    +0.000 A 
ATOM     21  H   UNL     1      47.438   9.660  19.434  0.00  0.00    +0.000 HD
ENDBRANCH   9  12
ENDBRANCH   7  10
ENDBRANCH   1   7
BRANCH   4  22
ATOM     22  C   UNL     1      43.455   4.293  11.308  0.00  0.00    +0.000 C 
BRANCH  22  23
ATOM     23  N   UNL     1      43.607   3.854   9.919  0.00  0.00    +0.000 NA
ATOM     24  H   UNL     1      44.173   4.542   9.420  0.00  0.00    +0.000 HD
BRANCH  23  25
ATOM     25  C   UNL     1      44.291   2.556   9.827  0.00  0.00    +0.000 C 
BRANCH  25  26
ATOM     26  C   UNL     1      45.367   2.553   8.750  0.00  0.00    +0.000 A 
ATOM     27  C   UNL     1      45.677   3.725   8.062  0.00  0.00    +0.000 A 
ATOM     28  C   UNL     1      46.671   3.697   7.088  0.00  0.00    +0.000 A 
ATOM     29  C   UNL     1      47.328   2.503   6.820  0.00  0.00    +0.000 A 
ATOM     30  C   UNL     1      46.964   1.383   7.548  0.00  0.00    +0.000 A 
ATOM     31  N   UNL     1      46.005   1.379   8.503  0.00  0.00    +0.000 NA
ENDBRANCH  25  26
ENDBRANCH  23  25
ENDBRANCH  22  23
ENDBRANCH   4  22
TORSDOF 7
ENDMDL
MODEL 4
REMARK VINA RESULT:    -6.834      3.261      5.073
REMARK INTER + INTRA:         -10.480
REMARK INTER:                  -9.503
REMARK INTRA:                  -0.976
REMARK UNBOUND:                -0.850
REMARK  Name = 
REMARK  7 active torsions:
REMARK  status: ('A' for Active; 'I' for Inactive)
REMARK    1  A    between atoms: C_2  and  C_20
REMARK    2  A    between atoms: N_3  and  C_4
REMARK    3  A    between atoms: C_4  and  C_5
REMARK    4  A    between atoms: C_8  and  C_9
REMARK    5  A    between atoms: C_9  and  N_10
REMARK    6  A    between atoms: N_10  and  C_11
REMARK    7  A    between atoms: C_11  and  C_12
REMARK                            x       y       z     vdW  Elec       q    Type
REMARK                         _______ _______ _______ _____ _____    ______ ____
ROOT
ATOM      1  C   UNL     1      47.758   4.245  16.250  0.00  0.00    +0.000 A 
ATOM      2  C   UNL     1      47.058   3.847  15.104  0.00  0.00    +0.000 A 
ATOM      3  C   UNL     1      46.941   4.702  14.005  0.00  0.00    +0.000 A 
ATOM      4  C   UNL     1      47.521   5.979  14.019  0.00  0.00    +0.000 A 
ATOM      5  C   UNL     1      48.262   6.359  15.148  0.00  0.00    +0.000 A 
ATOM      6  C   UNL     1      48.385   5.500  16.249  0.00  0.00    +0.000 A 
ENDROOT
BRANCH   1   7
ATOM      7  C   UNL     1      47.857   3.316  17.437  0.00  0.00    +0.000 C 
BRANCH   7  10
ATOM      8  O   UNL     1      49.622   1.669  15.984  0.00  0.00    +0.000 OA
ATOM      9  C   UNL     1      50.017   2.200  17.013  0.00  0.00    +0.000 C 
ATOM     10  N   UNL     1      49.233   3.048  17.762  0.00  0.00    +0.000 N 
ATOM     11  H   UNL     1      49.628   3.529  18.552  0.00  0.00    +0.000 HD
BRANCH   9  12
ATOM     12  C   UNL     1      51.344   1.945  17.580  0.00  0.00    +0.000 A 
ATOM     13  C   UNL     1      51.910   0.704  17.861  0.00  0.00    +0.000 A 
ATOM     14  N   UNL     1      53.218   0.892  18.224  0.00  0.00    +0.000 N 
ATOM     15  C   UNL     1      53.518   2.222  18.193  0.00  0.00    +0.000 A 
ATOM     16  N   UNL     1      54.746   2.723  18.416  0.00  0.00    +0.000 NA
ATOM     17  C   UNL     1      54.783   4.071  18.335  0.00  0.00    +0.000 A 
ATOM     18  C   UNL     1      53.691   4.899  18.115  0.00  0.00    +0.000 A 
ATOM     19  C   UNL     1      52.438   4.324  17.892  0.00  0.00    +0.000 A 
ATOM     20  C   UNL     1      52.353   2.920  17.889  0.00  0.00    +0.000 A 
ATOM     21  H   UNL     1      53.893   0.175  18.446  0.00  0.00    +0.000 HD
ENDBRANCH   9  12
ENDBRANCH   7  10
ENDBRANCH   1   7
BRANCH   4  22
ATOM     22  C   UNL     1      47.349   6.915  12.839  0.00  0.00    +0.000 C 
BRANCH  22  23
ATOM     23  N   UNL     1      46.029   7.547  12.861  0.00  0.00    +0.000 NA
ATOM     24  H   UNL     1      46.153   8.557  12.944  0.00  0.00    +0.000 HD
BRANCH  23  25
ATOM     25  C   UNL     1      45.275   7.285  11.627  0.00  0.00    +0.000 C 
BRANCH  25  26
ATOM     26  C   UNL     1      44.562   5.941  11.668  0.00  0.00    +0.000 A 
ATOM     27  C   UNL     1      44.681   5.049  10.605  0.00  0.00    +0.000 A 
ATOM     28  C   UNL     1      44.025   3.822  10.672  0.00  0.00    +0.000 A 
ATOM     29  C   UNL     1      43.265   3.517  11.793  0.00  0.00    +0.000 A 
ATOM     30  C   UNL     1      43.197   4.456  12.808  0.00  0.00    +0.000 A 
ATOM     31  N   UNL     1      43.826   5.655  12.774  0.00  0.00    +0.000 NA
ENDBRANCH  25  26
ENDBRANCH  23  25
ENDBRANCH  22  23
ENDBRANCH   4  22
TORSDOF 7
ENDMDL
MODEL 5
REMARK VINA RESULT:    -6.804      2.281      8.768
REMARK INTER + INTRA:         -10.437
REMARK INTER:                  -8.991
REMARK INTRA:                  -1.447
REMARK UNBOUND:                -0.850
REMARK  Name = 
REMARK  7 active torsions:
REMARK  status: ('A' for Active; 'I' for Inactive)
REMARK    1  A    between atoms: C_2  and  C_20
REMARK    2  A    between atoms: N_3  and  C_4
REMARK    3  A    between atoms: C_4  and  C_5
REMARK    4  A    between atoms: C_8  and  C_9
REMARK    5  A    between atoms: C_9  and  N_10
REMARK    6  A    between atoms: N_10  and  C_11
REMARK    7  A    between atoms: C_11  and  C_12
REMARK                            x       y       z     vdW  Elec       q    Type
REMARK                         _______ _______ _______ _____ _____    ______ ____
ROOT
ATOM      1  C   UNL     1      48.563   8.043  14.058  0.00  0.00    +0.000 A 
ATOM      2  C   UNL     1      47.984   8.839  15.055  0.00  0.00    +0.000 A 
ATOM      3  C   UNL     1      48.462   8.799  16.368  0.00  0.00    +0.000 A 
ATOM      4  C   UNL     1      49.532   7.964  16.721  0.00  0.00    +0.000 A 
ATOM      5  C   UNL     1      50.141   7.203  15.714  0.00  0.00    +0.000 A 
ATOM      6  C   UNL     1      49.667   7.247  14.395  0.00  0.00    +0.000 A 
ENDROOT
BRANCH   1   7
ATOM      7  C   UNL     1      48.020   8.083  12.649  0.00  0.00    +0.000 C 
BRANCH   7  10
ATOM      8  O   UNL     1      45.279   7.464  12.864  0.00  0.00    +0.000 OA
ATOM      9  C   UNL     1      46.054   6.600  12.475  0.00  0.00    +0.000 C 
ATOM     10  N   UNL     1      47.401   6.829  12.306  0.00  0.00    +0.000 N 
ATOM     11  H   UNL     1      47.984   6.115  11.903  0.00  0.00    +0.000 HD
BRANCH   9  12
ATOM     12  C   UNL     1      45.637   5.222  12.204  0.00  0.00    +0.000 A 
ATOM     13  C   UNL     1      45.327   4.240  13.143  0.00  0.00    +0.000 A 
ATOM     14  N   UNL     1      44.827   3.148  12.484  0.00  0.00    +0.000 N 
ATOM     15  C   UNL     1      44.806   3.389  11.141  0.00  0.00    +0.000 A 
ATOM     16  N   UNL     1      44.291   2.542  10.232  0.00  0.00    +0.000 NA
ATOM     17  C   UNL     1      44.397   3.007   8.967  0.00  0.00    +0.000 A 
ATOM     18  C   UNL     1      45.019   4.189   8.589  0.00  0.00    +0.000 A 
ATOM     19  C   UNL     1      45.539   5.027   9.576  0.00  0.00    +0.000 A 
ATOM     20  C   UNL     1      45.390   4.632  10.917  0.00  0.00    +0.000 A 
ATOM     21  H   UNL     1      44.479   2.297  12.901  0.00  0.00    +0.000 HD
ENDBRANCH   9  12
ENDBRANCH   7  10
ENDBRANCH   1   7
BRANCH   4  22
ATOM     22  C   UNL     1      50.012   7.896  18.158  0.00  0.00    +0.000 C 
BRANCH  22  23
ATOM     23  N   UNL     1      49.038   7.202  19.002  0.00  0.00    +0.000 NA
ATOM     24  H   UNL     1      48.163   7.113  18.484  0.00  0.00    +0.000 HD
BRANCH  23  25
ATOM     25  C   UNL     1      49.489   5.850  19.361  0.00  0.00    +0.000 C 
BRANCH  25  26
ATOM     26  C   UNL     1      48.942   4.795  18.410  0.00  0.00    +0.000 A 
ATOM     27  C   UNL     1      47.676   4.943  17.847  0.00  0.00    +0.000 A 
ATOM     28  C   UNL     1      47.203   3.968  16.973  0.00  0.00    +0.000 A 
ATOM     29  C   UNL     1      48.000   2.867  16.687  0.00  0.00    +0.000 A 
ATOM     30  C   UNL     1      49.246   2.792  17.286  0.00  0.00    +0.000 A 
ATOM     31  N   UNL     1      49.735   3.726  18.135  0.00  0.00    +0.000 NA
ENDBRANCH  25  26
ENDBRANCH  23  25
ENDBRANCH  22  23
ENDBRANCH   4  22
TORSDOF 7
ENDMDL
MODEL 6
REMARK VINA RESULT:    -6.662      2.955      8.458
REMARK INTER + INTRA:         -10.237
REMARK INTER:                  -8.621
REMARK INTRA:                  -1.617
REMARK UNBOUND:                -0.850
REMARK  Name = 
REMARK  7 active torsions:
REMARK  status: ('A' for Active; 'I' for Inactive)
REMARK    1  A    between atoms: C_2  and  C_20
REMARK    2  A    between atoms: N_3  and  C_4
REMARK    3  A    between atoms: C_4  and  C_5
REMARK    4  A    between atoms: C_8  and  C_9
REMARK    5  A    between atoms: C_9  and  N_10
REMARK    6  A    between atoms: N_10  and  C_11
REMARK    7  A    between atoms: C_11  and  C_12
REMARK                            x       y       z     vdW  Elec       q    Type
REMARK                         _______ _______ _______ _____ _____    ______ ____
ROOT
ATOM      1  C   UNL     1      49.385   7.718  15.970  0.00  0.00    +0.000 A 
ATOM      2  C   UNL     1      50.329   6.699  16.150  0.00  0.00    +0.000 A 
ATOM      3  C   UNL     1      50.600   6.192  17.424  0.00  0.00    +0.000 A 
ATOM      4  C   UNL     1      49.935   6.689  18.554  0.00  0.00    +0.000 A 
ATOM      5  C   UNL     1      48.957   7.676  18.369  0.00  0.00    +0.000 A 
ATOM      6  C   UNL     1      48.679   8.181  17.090  0.00  0.00    +0.000 A 
ENDROOT
BRANCH   1   7
ATOM      7  C   UNL     1      49.120   8.269  14.589  0.00  0.00    +0.000 C 
BRANCH   7  10
ATOM      8  O   UNL     1      48.426   6.027  13.029  0.00  0.00    +0.000 OA
ATOM      9  C   UNL     1      47.551   6.817  13.354  0.00  0.00    +0.000 C 
ATOM     10  N   UNL     1      47.796   7.917  14.145  0.00  0.00    +0.000 N 
ATOM     11  H   UNL     1      47.031   8.490  14.458  0.00  0.00    +0.000 HD
BRANCH   9  12
ATOM     12  C   UNL     1      46.166   6.705  12.890  0.00  0.00    +0.000 A 
ATOM     13  C   UNL     1      45.319   7.747  12.521  0.00  0.00    +0.000 A 
ATOM     14  N   UNL     1      44.172   7.213  11.994  0.00  0.00    +0.000 N 
ATOM     15  C   UNL     1      44.247   5.851  12.013  0.00  0.00    +0.000 A 
ATOM     16  N   UNL     1      43.314   5.038  11.486  0.00  0.00    +0.000 NA
ATOM     17  C   UNL     1      43.615   3.730  11.639  0.00  0.00    +0.000 A 
ATOM     18  C   UNL     1      44.719   3.227  12.316  0.00  0.00    +0.000 A 
ATOM     19  C   UNL     1      45.653   4.118  12.845  0.00  0.00    +0.000 A 
ATOM     20  C   UNL     1      45.431   5.493  12.650  0.00  0.00    +0.000 A 
ATOM     21  H   UNL     1      43.392   7.722  11.603  0.00  0.00    +0.000 HD
ENDBRANCH   9  12
ENDBRANCH   7  10
ENDBRANCH   1   7
BRANCH   4  22
ATOM     22  C   UNL     1      50.270   6.163  19.936  0.00  0.00    +0.000 C 
BRANCH  22  23
ATOM     23  N   UNL     1      50.116   4.708  19.994  0.00  0.00    +0.000 NA
ATOM     24  H   UNL     1      50.448   4.382  20.902  0.00  0.00    +0.000 HD
BRANCH  23  25
ATOM     25  C   UNL     1      48.711   4.300  19.854  0.00  0.00    +0.000 C 
BRANCH  25  26
ATOM     26  C   UNL     1      48.380   3.874  18.430  0.00  0.00    +0.000 A 
ATOM     27  C   UNL     1      47.364   4.515  17.723  0.00  0.00    +0.000 A 
ATOM     28  C   UNL     1      47.087   4.112  16.419  0.00  0.00    +0.000 A 
ATOM     29  C   UNL     1      47.824   3.078  15.855  0.00  0.00    +0.000 A 
ATOM     30  C   UNL     1      48.817   2.494  16.623  0.00  0.00    +0.000 A 
ATOM     31  N   UNL     1      49.113   2.866  17.890  0.00  0.00    +0.000 NA
ENDBRANCH  25  26
ENDBRANCH  23  25
ENDBRANCH  22  23
ENDBRANCH   4  22
TORSDOF 7
ENDMDL
MODEL 7
REMARK VINA RESULT:    -6.624      3.361      4.757
REMARK INTER + INTRA:         -10.184
REMARK INTER:                  -9.505
REMARK INTRA:                  -0.679
REMARK UNBOUND:                -0.850
REMARK  Name = 
REMARK  7 active torsions:
REMARK  status: ('A' for Active; 'I' for Inactive)
REMARK    1  A    between atoms: C_2  and  C_20
REMARK    2  A    between atoms: N_3  and  C_4
REMARK    3  A    between atoms: C_4  and  C_5
REMARK    4  A    between atoms: C_8  and  C_9
REMARK    5  A    between atoms: C_9  and  N_10
REMARK    6  A    between atoms: N_10  and  C_11
REMARK    7  A    between atoms: C_11  and  C_12
REMARK                            x       y       z     vdW  Elec       q    Type
REMARK                         _______ _______ _______ _____ _____    ______ ____
ROOT
ATOM      1  C   UNL     1      47.715   4.360  15.889  0.00  0.00    +0.000 A 
ATOM      2  C   UNL     1      46.904   3.984  14.811  0.00  0.00    +0.000 A 
ATOM      3  C   UNL     1      46.676   4.862  13.748  0.00  0.00    +0.000 A 
ATOM      4  C   UNL     1      47.253   6.141  13.731  0.00  0.00    +0.000 A 
ATOM      5  C   UNL     1      48.102   6.500  14.787  0.00  0.00    +0.000 A 
ATOM      6  C   UNL     1      48.337   5.617  15.852  0.00  0.00    +0.000 A 
ENDROOT
BRANCH   1   7
ATOM      7  C   UNL     1      47.934   3.407  17.040  0.00  0.00    +0.000 C 
BRANCH   7  10
ATOM      8  O   UNL     1      50.115   1.806  16.252  0.00  0.00    +0.000 OA
ATOM      9  C   UNL     1      50.283   2.655  17.117  0.00  0.00    +0.000 C 
ATOM     10  N   UNL     1      49.283   3.504  17.533  0.00  0.00    +0.000 N 
ATOM     11  H   UNL     1      49.490   4.243  18.184  0.00  0.00    +0.000 HD
BRANCH   9  12
ATOM     12  C   UNL     1      51.551   2.819  17.834  0.00  0.00    +0.000 A 
ATOM     13  C   UNL     1      51.940   3.909  18.608  0.00  0.00    +0.000 A 
ATOM     14  N   UNL     1      53.118   3.600  19.237  0.00  0.00    +0.000 N 
ATOM     15  C   UNL     1      53.510   2.341  18.889  0.00  0.00    +0.000 A 
ATOM     16  N   UNL     1      54.583   1.716  19.406  0.00  0.00    +0.000 NA
ATOM     17  C   UNL     1      54.763   0.478  18.895  0.00  0.00    +0.000 A 
ATOM     18  C   UNL     1      53.994  -0.105  17.896  0.00  0.00    +0.000 A 
ATOM     19  C   UNL     1      52.893   0.592  17.395  0.00  0.00    +0.000 A 
ATOM     20  C   UNL     1      52.611   1.856  17.944  0.00  0.00    +0.000 A 
ATOM     21  H   UNL     1      53.623   4.178  19.894  0.00  0.00    +0.000 HD
ENDBRANCH   9  12
ENDBRANCH   7  10
ENDBRANCH   1   7
BRANCH   4  22
ATOM     22  C   UNL     1      46.961   7.101  12.594  0.00  0.00    +0.000 C 
BRANCH  22  23
ATOM     23  N   UNL     1      46.909   6.394  11.313  0.00  0.00    +0.000 NA
ATOM     24  H   UNL     1      47.249   5.441  11.454  0.00  0.00    +0.000 HD
BRANCH  23  25
ATOM     25  C   UNL     1      45.539   6.311  10.789  0.00  0.00    +0.000 C 
BRANCH  25  26
ATOM     26  C   UNL     1      45.296   5.014  10.029  0.00  0.00    +0.000 A 
ATOM     27  C   UNL     1      44.675   3.936  10.658  0.00  0.00    +0.000 A 
ATOM     28  C   UNL     1      44.457   2.764   9.938  0.00  0.00    +0.000 A 
ATOM     29  C   UNL     1      44.866   2.694   8.613  0.00  0.00    +0.000 A 
ATOM     30  C   UNL     1      45.475   3.808   8.060  0.00  0.00    +0.000 A 
ATOM     31  N   UNL     1      45.697   4.961   8.732  0.00  0.00    +0.000 NA
ENDBRANCH  25  26
ENDBRANCH  23  25
ENDBRANCH  22  23
ENDBRANCH   4  22
TORSDOF 7
ENDMDL
MODEL 8
REMARK VINA RESULT:    -6.541      2.919      3.707
REMARK INTER + INTRA:         -10.067
REMARK INTER:                  -8.993
REMARK INTRA:                  -1.074
REMARK UNBOUND:                -0.850
REMARK  Name = 
REMARK  7 active torsions:
REMARK  status: ('A' for Active; 'I' for Inactive)
REMARK    1  A    between atoms: C_2  and  C_20
REMARK    2  A    between atoms: N_3  and  C_4
REMARK    3  A    between atoms: C_4  and  C_5
REMARK    4  A    between atoms: C_8  and  C_9
REMARK    5  A    between atoms: C_9  and  N_10
REMARK    6  A    between atoms: N_10  and  C_11
REMARK    7  A    between atoms: C_11  and  C_12
REMARK                            x       y       z     vdW  Elec       q    Type
REMARK                         _______ _______ _______ _____ _____    ______ ____
ROOT
ATOM      1  C   UNL     1      47.092   6.858  12.543  0.00  0.00    +0.000 A 
ATOM      2  C   UNL     1      47.027   5.560  13.067  0.00  0.00    +0.000 A 
ATOM      3  C   UNL     1      45.859   4.802  12.953  0.00  0.00    +0.000 A 
ATOM      4  C   UNL     1      44.722   5.318  12.313  0.00  0.00    +0.000 A 
ATOM      5  C   UNL     1      44.803   6.598  11.747  0.00  0.00    +0.000 A 
ATOM      6  C   UNL     1      45.977   7.358  11.855  0.00  0.00    +0.000 A 
ENDROOT
BRANCH   1   7
ATOM      7  C   UNL     1      48.356   7.672  12.694  0.00  0.00    +0.000 C 
BRANCH   7  10
ATOM      8  O   UNL     1      50.462   8.751  14.223  0.00  0.00    +0.000 OA
ATOM      9  C   UNL     1      49.311   9.068  14.490  0.00  0.00    +0.000 C 
ATOM     10  N   UNL     1      48.227   8.618  13.771  0.00  0.00    +0.000 N 
ATOM     11  H   UNL     1      47.308   8.973  13.974  0.00  0.00    +0.000 HD
BRANCH   9  12
ATOM     12  C   UNL     1      48.966   9.915  15.635  0.00  0.00    +0.000 A 
ATOM     13  C   UNL     1      48.952  11.308  15.672  0.00  0.00    +0.000 A 
ATOM     14  N   UNL     1      48.418  11.708  16.869  0.00  0.00    +0.000 N 
ATOM     15  C   UNL     1      48.089  10.615  17.615  0.00  0.00    +0.000 A 
ATOM     16  N   UNL     1      47.465  10.675  18.806  0.00  0.00    +0.000 NA
ATOM     17  C   UNL     1      47.256   9.455  19.348  0.00  0.00    +0.000 A 
ATOM     18  C   UNL     1      47.679   8.247  18.809  0.00  0.00    +0.000 A 
ATOM     19  C   UNL     1      48.324   8.245  17.572  0.00  0.00    +0.000 A 
ATOM     20  C   UNL     1      48.501   9.480  16.923  0.00  0.00    +0.000 A 
ATOM     21  H   UNL     1      48.243  12.657  17.166  0.00  0.00    +0.000 HD
ENDBRANCH   9  12
ENDBRANCH   7  10
ENDBRANCH   1   7
BRANCH   4  22
ATOM     22  C   UNL     1      43.446   4.503  12.235  0.00  0.00    +0.000 C 
BRANCH  22  23
ATOM     23  N   UNL     1      43.215   4.022  10.872  0.00  0.00    +0.000 NA
ATOM     24  H   UNL     1      43.594   4.707  10.217  0.00  0.00    +0.000 HD
BRANCH  23  25
ATOM     25  C   UNL     1      43.887   2.739  10.622  0.00  0.00    +0.000 C 
BRANCH  25  26
ATOM     26  C   UNL     1      44.858   2.822   9.452  0.00  0.00    +0.000 A 
ATOM     27  C   UNL     1      45.167   4.055   8.880  0.00  0.00    +0.000 A 
ATOM     28  C   UNL     1      46.065   4.104   7.817  0.00  0.00    +0.000 A 
ATOM     29  C   UNL     1      46.629   2.925   7.348  0.00  0.00    +0.000 A 
ATOM     30  C   UNL     1      46.272   1.740   7.970  0.00  0.00    +0.000 A 
ATOM     31  N   UNL     1      45.406   1.661   9.007  0.00  0.00    +0.000 NA
ENDBRANCH  25  26
ENDBRANCH  23  25
ENDBRANCH  22  23
ENDBRANCH   4  22
TORSDOF 7
ENDMDL
MODEL 9
REMARK VINA RESULT:    -6.414      3.527     10.077
REMARK INTER + INTRA:          -9.889
REMARK INTER:                  -8.719
REMARK INTRA:                  -1.170
REMARK UNBOUND:                -0.850
REMARK  Name = 
REMARK  7 active torsions:
REMARK  status: ('A' for Active; 'I' for Inactive)
REMARK    1  A    between atoms: C_2  and  C_20
REMARK    2  A    between atoms: N_3  and  C_4
REMARK    3  A    between atoms: C_4  and  C_5
REMARK    4  A    between atoms: C_8  and  C_9
REMARK    5  A    between atoms: C_9  and  N_10
REMARK    6  A    between atoms: N_10  and  C_11
REMARK    7  A    between atoms: C_11  and  C_12
REMARK                            x       y       z     vdW  Elec       q    Type
REMARK                         _______ _______ _______ _____ _____    ______ ____
ROOT
ATOM      1  C   UNL     1      48.781   3.837  17.119  0.00  0.00    +0.000 A 
ATOM      2  C   UNL     1      49.240   5.159  17.051  0.00  0.00    +0.000 A 
ATOM      3  C   UNL     1      50.585   5.460  17.277  0.00  0.00    +0.000 A 
ATOM      4  C   UNL     1      51.511   4.450  17.578  0.00  0.00    +0.000 A 
ATOM      5  C   UNL     1      51.060   3.122  17.600  0.00  0.00    +0.000 A 
ATOM      6  C   UNL     1      49.711   2.818  17.367  0.00  0.00    +0.000 A 
ENDROOT
BRANCH   1   7
ATOM      7  C   UNL     1      47.319   3.532  16.893  0.00  0.00    +0.000 C 
BRANCH   7  10
ATOM      8  O   UNL     1      47.339   3.117  14.106  0.00  0.00    +0.000 OA
ATOM      9  C   UNL     1      46.847   4.145  14.549  0.00  0.00    +0.000 C 
ATOM     10  N   UNL     1      46.762   4.410  15.897  0.00  0.00    +0.000 N 
ATOM     11  H   UNL     1      46.272   5.228  16.217  0.00  0.00    +0.000 HD
BRANCH   9  12
ATOM     12  C   UNL     1      46.349   5.222  13.690  0.00  0.00    +0.000 A 
ATOM     13  C   UNL     1      47.060   6.334  13.242  0.00  0.00    +0.000 A 
ATOM     14  N   UNL     1      46.288   7.008  12.332  0.00  0.00    +0.000 N 
ATOM     15  C   UNL     1      45.093   6.371  12.178  0.00  0.00    +0.000 A 
ATOM     16  N   UNL     1      44.151   6.739  11.292  0.00  0.00    +0.000 NA
ATOM     17  C   UNL     1      43.054   5.951  11.337  0.00  0.00    +0.000 A 
ATOM     18  C   UNL     1      42.844   4.906  12.228  0.00  0.00    +0.000 A 
ATOM     19  C   UNL     1      43.856   4.570  13.128  0.00  0.00    +0.000 A 
ATOM     20  C   UNL     1      45.053   5.307  13.075  0.00  0.00    +0.000 A 
ATOM     21  H   UNL     1      46.551   7.831  11.808  0.00  0.00    +0.000 HD
ENDBRANCH   9  12
ENDBRANCH   7  10
ENDBRANCH   1   7
BRANCH   4  22
ATOM     22  C   UNL     1      52.959   4.794  17.866  0.00  0.00    +0.000 C 
BRANCH  22  23
ATOM     23  N   UNL     1      53.386   4.228  19.147  0.00  0.00    +0.000 NA
ATOM     24  H   UNL     1      54.327   3.846  19.036  0.00  0.00    +0.000 HD
BRANCH  23  25
ATOM     25  C   UNL     1      53.434   5.244  20.207  0.00  0.00    +0.000 C 
BRANCH  25  26
ATOM     26  C   UNL     1      52.042   5.703  20.621  0.00  0.00    +0.000 A 
ATOM     27  C   UNL     1      51.664   7.035  20.460  0.00  0.00    +0.000 A 
ATOM     28  C   UNL     1      50.382   7.426  20.838  0.00  0.00    +0.000 A 
ATOM     29  C   UNL     1      49.512   6.484  21.371  0.00  0.00    +0.000 A 
ATOM     30  C   UNL     1      49.963   5.181  21.498  0.00  0.00    +0.000 A 
ATOM     31  N   UNL     1      51.201   4.769  21.136  0.00  0.00    +0.000 NA
ENDBRANCH  25  26
ENDBRANCH  23  25
ENDBRANCH  22  23
ENDBRANCH   4  22
TORSDOF 7
ENDMDL
