MODEL 1
REMARK VINA RESULT:    -7.978      0.000      0.000
REMARK INTER + INTRA:         -12.028
REMARK INTER:                 -11.242
REMARK INTRA:                  -0.786
REMARK UNBOUND:                -0.786
REMARK  Name = 
REMARK  7 active torsions:
REMARK  status: ('A' for Active; 'I' for Inactive)
REMARK    1  A    between atoms: C_2  and  C_20
REMARK    2  A    between atoms: N_3  and  C_4
REMARK    3  A    between atoms: C_4  and  C_5
REMARK    4  A    between atoms: C_8  and  C_9
REMARK    5  A    between atoms: C_9  and  N_10
REMARK    6  A    between atoms: N_10  and  C_11
REMARK    7  A    between atoms: C_11  and  C_12
REMARK                            x       y       z     vdW  Elec       q    Type
REMARK                         _______ _______ _______ _____ _____    ______ ____
ROOT
ATOM      1  C   UNL     1      46.830   5.879  13.114  0.00  0.00    +0.000 A 
ATOM      2  C   UNL     1      45.832   5.006  13.566  0.00  0.00    +0.000 A 
ATOM      3  C   UNL     1      44.760   4.670  12.736  0.00  0.00    +0.000 A 
ATOM      4  C   UNL     1      44.661   5.198  11.441  0.00  0.00    +0.000 A 
ATOM      5  C   UNL     1      45.672   6.055  10.986  0.00  0.00    +0.000 A 
ATOM      6  C   UNL     1      46.748   6.387  11.813  0.00  0.00    +0.000 A 
ENDROOT
BRANCH   1   7
ATOM      7  C   UNL     1      47.970   6.263  14.014  0.00  0.00    +0.000 C 
BRANCH   7  10
ATOM      8  O   UNL     1      49.916   6.184  15.973  0.00  0.00    +0.000 OA
ATOM      9  C   UNL     1      48.760   5.911  16.293  0.00  0.00    +0.000 C 
ATOM     10  N   UNL     1      47.726   5.910  15.386  0.00  0.00    +0.000 N 
ATOM     11  H   UNL     1      46.796   5.692  15.728  0.00  0.00    +0.000 HD
BRANCH   9  12
ATOM     12  C   UNL     1      48.379   5.570  17.668  0.00  0.00    +0.000 A 
ATOM     13  N   UNL     1      48.273   4.295  18.107  0.00  0.00    +0.000 NA
ATOM     14  N   UNL     1      47.922   4.437  19.406  0.00  0.00    +0.000 N 
ATOM     15  C   UNL     1      47.782   5.732  19.806  0.00  0.00    +0.000 A 
ATOM     16  N   UNL     1      47.431   6.161  21.035  0.00  0.00    +0.000 NA
ATOM     17  C   UNL     1      47.368   7.513  21.114  0.00  0.00    +0.000 A 
ATOM     18  C   UNL     1      47.630   8.404  20.079  0.00  0.00    +0.000 A 
ATOM     19  C   UNL     1      47.998   7.900  18.831  0.00  0.00    +0.000 A 
ATOM     20  C   UNL     1      48.072   6.505  18.696  0.00  0.00    +0.000 A 
ATOM     21  H   UNL     1      47.786   3.613  19.978  0.00  0.00    +0.000 HD
ENDBRANCH   9  12
ENDBRANCH   7  10
ENDBRANCH   1   7
BRANCH   4  22
ATOM     22  C   UNL     1      43.487   4.846  10.551  0.00  0.00    +0.000 C 
BRANCH  22  23
ATOM     23  N   UNL     1      43.950   4.289   9.287  0.00  0.00    +0.000 NA
ATOM     24  H   UNL     1      44.741   4.834   8.938  0.00  0.00    +0.000 HD
BRANCH  23  25
ATOM     25  C   UNL     1      44.396   2.892   9.420  0.00  0.00    +0.000 C 
BRANCH  25  26
ATOM     26  C   UNL     1      45.575   2.582   8.505  0.00  0.00    +0.000 A 
ATOM     27  N   UNL     1      46.112   3.616   7.815  0.00  0.00    +0.000 NA
ATOM     28  C   UNL     1      47.101   3.311   6.955  0.00  0.00    +0.000 A 
ATOM     29  C   UNL     1      47.579   2.036   6.768  0.00  0.00    +0.000 A 
ATOM     30  C   UNL     1      46.983   1.061   7.531  0.00  0.00    +0.000 A 
ATOM     31  N   UNL     1      45.988   1.301   8.406  0.00  0.00    +0.000 NA
ENDBRANCH  25  26
ENDBRANCH  23  25
ENDBRANCH  22  23
ENDBRANCH   4  22
TORSDOF 7
ENDMDL
MODEL 2
REMARK VINA RESULT:    -7.682      1.747      2.448
REMARK INTER + INTRA:         -11.612
REMARK INTER:                 -10.696
REMARK INTRA:                  -0.916
REMARK UNBOUND:                -0.786
REMARK  Name = 
REMARK  7 active torsions:
REMARK  status: ('A' for Active; 'I' for Inactive)
REMARK    1  A    between atoms: C_2  and  C_20
REMARK    2  A    between atoms: N_3  and  C_4
REMARK    3  A    between atoms: C_4  and  C_5
REMARK    4  A    between atoms: C_8  and  C_9
REMARK    5  A    between atoms: C_9  and  N_10
REMARK    6  A    between atoms: N_10  and  C_11
REMARK    7  A    between atoms: C_11  and  C_12
REMARK                            x       y       z     vdW  Elec       q    Type
REMARK                         _______ _______ _______ _____ _____    ______ ____
ROOT
ATOM      1  C   UNL     1      46.313   6.657  12.639  0.00  0.00    +0.000 A 
ATOM      2  C   UNL     1      46.194   6.645  11.244  0.00  0.00    +0.000 A 
ATOM      3  C   UNL     1      45.410   5.678  10.610  0.00  0.00    +0.000 A 
ATOM      4  C   UNL     1      44.729   4.705  11.355  0.00  0.00    +0.000 A 
ATOM      5  C   UNL     1      44.833   4.734  12.752  0.00  0.00    +0.000 A 
ATOM      6  C   UNL     1      45.613   5.703  13.388  0.00  0.00    +0.000 A 
ENDROOT
BRANCH   1   7
ATOM      7  C   UNL     1      47.178   7.679  13.321  0.00  0.00    +0.000 C 
BRANCH   7  10
ATOM      8  O   UNL     1      49.765   6.929  13.933  0.00  0.00    +0.000 OA
ATOM      9  C   UNL     1      48.927   6.905  14.833  0.00  0.00    +0.000 C 
ATOM     10  N   UNL     1      47.612   7.248  14.622  0.00  0.00    +0.000 N 
ATOM     11  H   UNL     1      46.982   7.221  15.417  0.00  0.00    +0.000 HD
BRANCH   9  12
ATOM     12  C   UNL     1      49.254   6.518  16.209  0.00  0.00    +0.000 A 
ATOM     13  N   UNL     1      50.087   7.237  16.997  0.00  0.00    +0.000 NA
ATOM     14  N   UNL     1      50.094   6.544  18.160  0.00  0.00    +0.000 N 
ATOM     15  C   UNL     1      49.327   5.419  18.143  0.00  0.00    +0.000 A 
ATOM     16  N   UNL     1      49.162   4.543  19.154  0.00  0.00    +0.000 NA
ATOM     17  C   UNL     1      48.341   3.516  18.822  0.00  0.00    +0.000 A 
ATOM     18  C   UNL     1      47.711   3.340  17.595  0.00  0.00    +0.000 A 
ATOM     19  C   UNL     1      47.913   4.285  16.590  0.00  0.00    +0.000 A 
ATOM     20  C   UNL     1      48.760   5.366  16.882  0.00  0.00    +0.000 A 
ATOM     21  H   UNL     1      50.646   6.885  18.938  0.00  0.00    +0.000 HD
ENDBRANCH   9  12
ENDBRANCH   7  10
ENDBRANCH   1   7
BRANCH   4  22
ATOM     22  C   UNL     1      43.894   3.648  10.664  0.00  0.00    +0.000 C 
BRANCH  22  23
ATOM     23  N   UNL     1      44.667   2.428  10.471  0.00  0.00    +0.000 NA
ATOM     24  H   UNL     1      44.369   1.719  11.144  0.00  0.00    +0.000 HD
BRANCH  23  25
ATOM     25  C   UNL     1      44.494   1.861   9.123  0.00  0.00    +0.000 C 
BRANCH  25  26
ATOM     26  C   UNL     1      45.737   2.052   8.262  0.00  0.00    +0.000 A 
ATOM     27  N   UNL     1      45.978   3.298   7.790  0.00  0.00    +0.000 NA
ATOM     28  C   UNL     1      47.036   3.431   6.969  0.00  0.00    +0.000 A 
ATOM     29  C   UNL     1      47.861   2.390   6.617  0.00  0.00    +0.000 A 
ATOM     30  C   UNL     1      47.545   1.170   7.167  0.00  0.00    +0.000 A 
ATOM     31  N   UNL     1      46.499   0.971   7.991  0.00  0.00    +0.000 NA
ENDBRANCH  25  26
ENDBRANCH  23  25
ENDBRANCH  22  23
ENDBRANCH   4  22
TORSDOF 7
ENDMDL
MODEL 3
REMARK VINA RESULT:    -7.179      1.349      2.155
REMARK INTER + INTRA:         -10.902
REMARK INTER:                 -10.348
REMARK INTRA:                  -0.554
REMARK UNBOUND:                -0.786
REMARK  Name = 
REMARK  7 active torsions:
REMARK  status: ('A' for Active; 'I' for Inactive)
REMARK    1  A    between atoms: C_2  and  C_20
REMARK    2  A    between atoms: N_3  and  C_4
REMARK    3  A    between atoms: C_4  and  C_5
REMARK    4  A    between atoms: C_8  and  C_9
REMARK    5  A    between atoms: C_9  and  N_10
REMARK    6  A    between atoms: N_10  and  C_11
REMARK    7  A    between atoms: C_11  and  C_12
REMARK                            x       y       z     vdW  Elec       q    Type
REMARK                         _______ _______ _______ _____ _____    ______ ____
ROOT
ATOM      1  C   UNL     1      47.410   6.117  13.468  0.00  0.00    +0.000 A 
ATOM      2  C   UNL     1      46.894   6.525  12.231  0.00  0.00    +0.000 A 
ATOM      3  C   UNL     1      45.885   5.787  11.609  0.00  0.00    +0.000 A 
ATOM      4  C   UNL     1      45.369   4.628  12.208  0.00  0.00    +0.000 A 
ATOM      5  C   UNL     1      45.872   4.236  13.455  0.00  0.00    +0.000 A 
ATOM      6  C   UNL     1      46.879   4.976  14.081  0.00  0.00    +0.000 A 
ENDROOT
BRANCH   1   7
ATOM      7  C   UNL     1      48.514   6.894  14.126  0.00  0.00    +0.000 C 
BRANCH   7  10
ATOM      8  O   UNL     1      49.686   5.642  16.292  0.00  0.00    +0.000 OA
ATOM      9  C   UNL     1      48.867   6.534  16.511  0.00  0.00    +0.000 C 
ATOM     10  N   UNL     1      48.222   7.205  15.498  0.00  0.00    +0.000 N 
ATOM     11  H   UNL     1      47.572   7.940  15.756  0.00  0.00    +0.000 HD
BRANCH   9  12
ATOM     12  C   UNL     1      48.511   6.966  17.866  0.00  0.00    +0.000 A 
ATOM     13  N   UNL     1      48.093   8.221  18.152  0.00  0.00    +0.000 NA
ATOM     14  N   UNL     1      47.865   8.180  19.486  0.00  0.00    +0.000 N 
ATOM     15  C   UNL     1      48.134   6.974  20.060  0.00  0.00    +0.000 A 
ATOM     16  N   UNL     1      48.008   6.659  21.365  0.00  0.00    +0.000 NA
ATOM     17  C   UNL     1      48.365   5.377  21.625  0.00  0.00    +0.000 A 
ATOM     18  C   UNL     1      48.812   4.450  20.691  0.00  0.00    +0.000 A 
ATOM     19  C   UNL     1      48.913   4.832  19.354  0.00  0.00    +0.000 A 
ATOM     20  C   UNL     1      48.560   6.152  19.033  0.00  0.00    +0.000 A 
ATOM     21  H   UNL     1      47.526   9.009  19.958  0.00  0.00    +0.000 HD
ENDBRANCH   9  12
ENDBRANCH   7  10
ENDBRANCH   1   7
BRANCH   4  22
ATOM     22  C   UNL     1      44.288   3.821  11.522  0.00  0.00    +0.000 C 
BRANCH  22  23
ATOM     23  N   UNL     1      44.866   2.691  10.806  0.00  0.00    +0.000 NA
ATOM     24  H   UNL     1      44.607   1.818  11.271  0.00  0.00    +0.000 HD
BRANCH  23  25
ATOM     25  C   UNL     1      44.395   2.609   9.413  0.00  0.00    +0.000 C 
BRANCH  25  26
ATOM     26  C   UNL     1      45.542   2.375   8.438  0.00  0.00    +0.000 A 
ATOM     27  N   UNL     1      46.042   1.118   8.360  0.00  0.00    +0.000 NA
ATOM     28  C   UNL     1      47.104   0.947   7.552  0.00  0.00    +0.000 A 
ATOM     29  C   UNL     1      47.671   1.960   6.817  0.00  0.00    +0.000 A 
ATOM     30  C   UNL     1      47.077   3.193   6.948  0.00  0.00    +0.000 A 
ATOM     31  N   UNL     1      46.016   3.429   7.742  0.00  0.00    +0.000 NA
ENDBRANCH  25  26
ENDBRANCH  23  25
ENDBRANCH  22  23
ENDBRANCH   4  22
TORSDOF 7
ENDMDL
MODEL 4
REMARK VINA RESULT:    -6.847      4.957      9.666
REMARK INTER + INTRA:         -10.435
REMARK INTER:                  -9.767
REMARK INTRA:                  -0.668
REMARK UNBOUND:                -0.786
REMARK  Name = 
REMARK  7 active torsions:
REMARK  status: ('A' for Active; 'I' for Inactive)
REMARK    1  A    between atoms: C_2  and  C_20
REMARK    2  A    between atoms: N_3  and  C_4
REMARK    3  A    between atoms: C_4  and  C_5
REMARK    4  A    between atoms: C_8  and  C_9
REMARK    5  A    between atoms: C_9  and  N_10
REMARK    6  A    between atoms: N_10  and  C_11
REMARK    7  A    between atoms: C_11  and  C_12
REMARK                            x       y       z     vdW  Elec       q    Type
REMARK                         _______ _______ _______ _____ _____    ______ ____
ROOT
ATOM      1  C   UNL     1      48.631   3.408  17.174  0.00  0.00    +0.000 A 
ATOM      2  C   UNL     1      49.263   4.585  17.596  0.00  0.00    +0.000 A 
ATOM      3  C   UNL     1      50.633   4.592  17.869  0.00  0.00    +0.000 A 
ATOM      4  C   UNL     1      51.399   3.426  17.726  0.00  0.00    +0.000 A 
ATOM      5  C   UNL     1      50.767   2.257  17.282  0.00  0.00    +0.000 A 
ATOM      6  C   UNL     1      49.398   2.250  17.004  0.00  0.00    +0.000 A 
ENDROOT
BRANCH   1   7
ATOM      7  C   UNL     1      47.153   3.392  16.906  0.00  0.00    +0.000 C 
BRANCH   7  10
ATOM      8  O   UNL     1      47.318   3.030  14.173  0.00  0.00    +0.000 OA
ATOM      9  C   UNL     1      46.871   4.098  14.590  0.00  0.00    +0.000 C 
ATOM     10  N   UNL     1      46.763   4.375  15.932  0.00  0.00    +0.000 N 
ATOM     11  H   UNL     1      46.368   5.270  16.201  0.00  0.00    +0.000 HD
BRANCH   9  12
ATOM     12  C   UNL     1      46.407   5.165  13.697  0.00  0.00    +0.000 A 
ATOM     13  N   UNL     1      47.147   6.262  13.416  0.00  0.00    +0.000 NA
ATOM     14  N   UNL     1      46.362   6.960  12.562  0.00  0.00    +0.000 N 
ATOM     15  C   UNL     1      45.160   6.373  12.304  0.00  0.00    +0.000 A 
ATOM     16  N   UNL     1      44.187   6.852  11.504  0.00  0.00    +0.000 NA
ATOM     17  C   UNL     1      43.103   6.037  11.461  0.00  0.00    +0.000 A 
ATOM     18  C   UNL     1      42.961   4.833  12.141  0.00  0.00    +0.000 A 
ATOM     19  C   UNL     1      44.008   4.384  12.947  0.00  0.00    +0.000 A 
ATOM     20  C   UNL     1      45.150   5.195  13.029  0.00  0.00    +0.000 A 
ATOM     21  H   UNL     1      46.696   7.838  12.184  0.00  0.00    +0.000 HD
ENDBRANCH   9  12
ENDBRANCH   7  10
ENDBRANCH   1   7
BRANCH   4  22
ATOM     22  C   UNL     1      52.881   3.432  18.040  0.00  0.00    +0.000 C 
BRANCH  22  23
ATOM     23  N   UNL     1      53.171   2.555  19.167  0.00  0.00    +0.000 NA
ATOM     24  H   UNL     1      52.550   1.744  19.142  0.00  0.00    +0.000 HD
BRANCH  23  25
ATOM     25  C   UNL     1      54.556   2.057  19.147  0.00  0.00    +0.000 C 
BRANCH  25  26
ATOM     26  C   UNL     1      54.656   0.681  18.501  0.00  0.00    +0.000 A 
ATOM     27  N   UNL     1      54.393  -0.392  19.284  0.00  0.00    +0.000 NA
ATOM     28  C   UNL     1      54.560  -1.601  18.718  0.00  0.00    +0.000 A 
ATOM     29  C   UNL     1      54.961  -1.781  17.415  0.00  0.00    +0.000 A 
ATOM     30  C   UNL     1      55.182  -0.630  16.697  0.00  0.00    +0.000 A 
ATOM     31  N   UNL     1      55.035   0.607  17.207  0.00  0.00    +0.000 NA
ENDBRANCH  25  26
ENDBRANCH  23  25
ENDBRANCH  22  23
ENDBRANCH   4  22
TORSDOF 7
ENDMDL
MODEL 5
REMARK VINA RESULT:    -6.783      2.328      8.938
REMARK INTER + INTRA:         -10.344
REMARK INTER:                  -9.275
REMARK INTRA:                  -1.069
REMARK UNBOUND:                -0.786
REMARK  Name = 
REMARK  7 active torsions:
REMARK  status: ('A' for Active; 'I' for Inactive)
REMARK    1  A    between atoms: C_2  and  C_20
REMARK    2  A    between atoms: N_3  and  C_4
REMARK    3  A    between atoms: C_4  and  C_5
REMARK    4  A    between atoms: C_8  and  C_9
REMARK    5  A    between atoms: C_9  and  N_10
REMARK    6  A    between atoms: N_10  and  C_11
REMARK    7  A    between atoms: C_11  and  C_12
REMARK                            x       y       z     vdW  Elec       q    Type
REMARK                         _______ _______ _______ _____ _____    ______ ____
ROOT
ATOM      1  C   UNL     1      47.903   7.748  13.683  0.00  0.00    +0.000 A 
ATOM      2  C   UNL     1      48.592   6.654  14.221  0.00  0.00    +0.000 A 
ATOM      3  C   UNL     1      49.116   6.715  15.514  0.00  0.00    +0.000 A 
ATOM      4  C   UNL     1      48.961   7.869  16.297  0.00  0.00    +0.000 A 
ATOM      5  C   UNL     1      48.253   8.953  15.763  0.00  0.00    +0.000 A 
ATOM      6  C   UNL     1      47.724   8.891  14.471  0.00  0.00    +0.000 A 
ENDROOT
BRANCH   1   7
ATOM      7  C   UNL     1      47.363   7.693  12.282  0.00  0.00    +0.000 C 
BRANCH   7  10
ATOM      8  O   UNL     1      44.804   6.850  12.892  0.00  0.00    +0.000 OA
ATOM      9  C   UNL     1      45.541   6.074  12.285  0.00  0.00    +0.000 C 
ATOM     10  N   UNL     1      46.834   6.399  11.949  0.00  0.00    +0.000 N 
ATOM     11  H   UNL     1      47.376   5.713  11.434  0.00  0.00    +0.000 HD
BRANCH   9  12
ATOM     12  C   UNL     1      45.106   4.739  11.860  0.00  0.00    +0.000 A 
ATOM     13  N   UNL     1      44.673   3.796  12.727  0.00  0.00    +0.000 NA
ATOM     14  N   UNL     1      44.368   2.749  11.925  0.00  0.00    +0.000 N 
ATOM     15  C   UNL     1      44.603   2.973  10.602  0.00  0.00    +0.000 A 
ATOM     16  N   UNL     1      44.401   2.105   9.591  0.00  0.00    +0.000 NA
ATOM     17  C   UNL     1      44.742   2.624   8.386  0.00  0.00    +0.000 A 
ATOM     18  C   UNL     1      45.243   3.901   8.161  0.00  0.00    +0.000 A 
ATOM     19  C   UNL     1      45.421   4.758   9.247  0.00  0.00    +0.000 A 
ATOM     20  C   UNL     1      45.088   4.265  10.518  0.00  0.00    +0.000 A 
ATOM     21  H   UNL     1      44.002   1.898  12.336  0.00  0.00    +0.000 HD
ENDBRANCH   9  12
ENDBRANCH   7  10
ENDBRANCH   1   7
BRANCH   4  22
ATOM     22  C   UNL     1      49.546   7.939  17.692  0.00  0.00    +0.000 C 
BRANCH  22  23
ATOM     23  N   UNL     1      48.521   7.672  18.692  0.00  0.00    +0.000 NA
ATOM     24  H   UNL     1      47.616   7.544  18.235  0.00  0.00    +0.000 HD
BRANCH  23  25
ATOM     25  C   UNL     1      48.802   6.454  19.471  0.00  0.00    +0.000 C 
BRANCH  25  26
ATOM     26  C   UNL     1      48.538   5.189  18.663  0.00  0.00    +0.000 A 
ATOM     27  N   UNL     1      49.582   4.347  18.472  0.00  0.00    +0.000 NA
ATOM     28  C   UNL     1      49.350   3.276  17.692  0.00  0.00    +0.000 A 
ATOM     29  C   UNL     1      48.132   3.006  17.114  0.00  0.00    +0.000 A 
ATOM     30  C   UNL     1      47.132   3.908  17.386  0.00  0.00    +0.000 A 
ATOM     31  N   UNL     1      47.302   5.000  18.156  0.00  0.00    +0.000 NA
ENDBRANCH  25  26
ENDBRANCH  23  25
ENDBRANCH  22  23
ENDBRANCH   4  22
TORSDOF 7
ENDMDL
MODEL 6
REMARK VINA RESULT:    -6.586      4.074      6.553
REMARK INTER + INTRA:         -10.067
REMARK INTER:                  -9.356
REMARK INTRA:                  -0.711
REMARK UNBOUND:                -0.786
REMARK  Name = 
REMARK  7 active torsions:
REMARK  status: ('A' for Active; 'I' for Inactive)
REMARK    1  A    between atoms: C_2  and  C_20
REMARK    2  A    between atoms: N_3  and  C_4
REMARK    3  A    between atoms: C_4  and  C_5
REMARK    4  A    between atoms: C_8  and  C_9
REMARK    5  A    between atoms: C_9  and  N_10
REMARK    6  A    between atoms: N_10  and  C_11
REMARK    7  A    between atoms: C_11  and  C_12
REMARK                            x       y       z     vdW  Elec       q    Type
REMARK                         _______ _______ _______ _____ _____    ______ ____
ROOT
ATOM      1  C   UNL     1      47.184   6.569  12.995  0.00  0.00    +0.000 A 
ATOM      2  C   UNL     1      46.485   6.900  11.828  0.00  0.00    +0.000 A 
ATOM      3  C   UNL     1      45.560   6.007  11.281  0.00  0.00    +0.000 A 
ATOM      4  C   UNL     1      45.314   4.767  11.889  0.00  0.00    +0.000 A 
ATOM      5  C   UNL     1      46.000   4.449  13.068  0.00  0.00    +0.000 A 
ATOM      6  C   UNL     1      46.921   5.344  13.619  0.00  0.00    +0.000 A 
ENDROOT
BRANCH   1   7
ATOM      7  C   UNL     1      48.198   7.517  13.570  0.00  0.00    +0.000 C 
BRANCH   7  10
ATOM      8  O   UNL     1      50.424   9.073  14.076  0.00  0.00    +0.000 OA
ATOM      9  C   UNL     1      50.096   8.894  12.904  0.00  0.00    +0.000 C 
ATOM     10  N   UNL     1      48.996   8.146  12.553  0.00  0.00    +0.000 N 
ATOM     11  H   UNL     1      48.798   8.029  11.565  0.00  0.00    +0.000 HD
BRANCH   9  12
ATOM     12  C   UNL     1      50.849   9.454  11.777  0.00  0.00    +0.000 A 
ATOM     13  N   UNL     1      50.941  10.783  11.542  0.00  0.00    +0.000 NA
ATOM     14  N   UNL     1      51.722  10.854  10.438  0.00  0.00    +0.000 N 
ATOM     15  C   UNL     1      52.112   9.641   9.953  0.00  0.00    +0.000 A 
ATOM     16  N   UNL     1      52.878   9.419   8.867  0.00  0.00    +0.000 NA
ATOM     17  C   UNL     1      53.082   8.098   8.638  0.00  0.00    +0.000 A 
ATOM     18  C   UNL     1      52.585   7.051   9.407  0.00  0.00    +0.000 A 
ATOM     19  C   UNL     1      51.805   7.345  10.525  0.00  0.00    +0.000 A 
ATOM     20  C   UNL     1      51.560   8.699  10.802  0.00  0.00    +0.000 A 
ATOM     21  H   UNL     1      51.957  11.760  10.052  0.00  0.00    +0.000 HD
ENDBRANCH   9  12
ENDBRANCH   7  10
ENDBRANCH   1   7
BRANCH   4  22
ATOM     22  C   UNL     1      44.325   3.794  11.283  0.00  0.00    +0.000 C 
BRANCH  22  23
ATOM     23  N   UNL     1      45.015   2.629  10.743  0.00  0.00    +0.000 NA
ATOM     24  H   UNL     1      44.859   1.823  11.352  0.00  0.00    +0.000 HD
BRANCH  23  25
ATOM     25  C   UNL     1      44.537   2.269   9.397  0.00  0.00    +0.000 C 
BRANCH  25  26
ATOM     26  C   UNL     1      45.674   2.227   8.384  0.00  0.00    +0.000 A 
ATOM     27  N   UNL     1      46.281   1.033   8.183  0.00  0.00    +0.000 NA
ATOM     28  C   UNL     1      47.332   1.030   7.343  0.00  0.00    +0.000 A 
ATOM     29  C   UNL     1      47.788   2.152   6.692  0.00  0.00    +0.000 A 
ATOM     30  C   UNL     1      47.091   3.309   6.946  0.00  0.00    +0.000 A 
ATOM     31  N   UNL     1      46.035   3.378   7.778  0.00  0.00    +0.000 NA
ENDBRANCH  25  26
ENDBRANCH  23  25
ENDBRANCH  22  23
ENDBRANCH   4  22
TORSDOF 7
ENDMDL
MODEL 7
REMARK VINA RESULT:    -6.460      5.084      8.708
REMARK INTER + INTRA:          -9.890
REMARK INTER:                  -9.156
REMARK INTRA:                  -0.734
REMARK UNBOUND:                -0.786
REMARK  Name = 
REMARK  7 active torsions:
REMARK  status: ('A' for Active; 'I' for Inactive)
REMARK    1  A    between atoms: C_2  and  C_20
REMARK    2  A    between atoms: N_3  and  C_4
REMARK    3  A    between atoms: C_4  and  C_5
REMARK    4  A    between atoms: C_8  and  C_9
REMARK    5  A    between atoms: C_9  and  N_10
REMARK    6  A    between atoms: N_10  and  C_11
REMARK    7  A    between atoms: C_11  and  C_12
REMARK                            x       y       z     vdW  Elec       q    Type
REMARK                         _______ _______ _______ _____ _____    ______ ____
ROOT
ATOM      1  C   UNL     1      46.500   8.095  12.095  0.00  0.00    +0.000 A 
ATOM      2  C   UNL     1      47.655   7.335  11.872  0.00  0.00    +0.000 A 
ATOM      3  C   UNL     1      48.907   7.952  11.821  0.00  0.00    +0.000 A 
ATOM      4  C   UNL     1      49.032   9.339  11.993  0.00  0.00    +0.000 A 
ATOM      5  C   UNL     1      47.876  10.092  12.237  0.00  0.00    +0.000 A 
ATOM      6  C   UNL     1      46.623   9.475  12.293  0.00  0.00    +0.000 A 
ENDROOT
BRANCH   1   7
ATOM      7  C   UNL     1      45.150   7.436  12.123  0.00  0.00    +0.000 C 
BRANCH   7  10
ATOM      8  O   UNL     1      42.973   6.109  11.061  0.00  0.00    +0.000 OA
ATOM      9  C   UNL     1      44.051   5.517  11.097  0.00  0.00    +0.000 C 
ATOM     10  N   UNL     1      45.187   6.091  11.619  0.00  0.00    +0.000 N 
ATOM     11  H   UNL     1      46.043   5.548  11.599  0.00  0.00    +0.000 HD
BRANCH   9  12
ATOM     12  C   UNL     1      44.224   4.155  10.583  0.00  0.00    +0.000 A 
ATOM     13  N   UNL     1      43.635   3.076  11.146  0.00  0.00    +0.000 NA
ATOM     14  N   UNL     1      44.043   2.050  10.363  0.00  0.00    +0.000 N 
ATOM     15  C   UNL     1      44.873   2.420   9.348  0.00  0.00    +0.000 A 
ATOM     16  N   UNL     1      45.434   1.607   8.431  0.00  0.00    +0.000 NA
ATOM     17  C   UNL     1      46.222   2.280   7.555  0.00  0.00    +0.000 A 
ATOM     18  C   UNL     1      46.454   3.650   7.554  0.00  0.00    +0.000 A 
ATOM     19  C   UNL     1      45.838   4.441   8.523  0.00  0.00    +0.000 A 
ATOM     20  C   UNL     1      45.017   3.792   9.458  0.00  0.00    +0.000 A 
ATOM     21  H   UNL     1      43.727   1.110  10.569  0.00  0.00    +0.000 HD
ENDBRANCH   9  12
ENDBRANCH   7  10
ENDBRANCH   1   7
BRANCH   4  22
ATOM     22  C   UNL     1      50.388  10.007  11.919  0.00  0.00    +0.000 C 
BRANCH  22  23
ATOM     23  N   UNL     1      51.114   9.567  10.734  0.00  0.00    +0.000 NA
ATOM     24  H   UNL     1      51.304  10.367  10.128  0.00  0.00    +0.000 HD
BRANCH  23  25
ATOM     25  C   UNL     1      52.406   8.944  11.068  0.00  0.00    +0.000 C 
BRANCH  25  26
ATOM     26  C   UNL     1      52.859   7.964   9.993  0.00  0.00    +0.000 A 
ATOM     27  N   UNL     1      52.790   8.379   8.706  0.00  0.00    +0.000 NA
ATOM     28  C   UNL     1      53.121   7.475   7.767  0.00  0.00    +0.000 A 
ATOM     29  C   UNL     1      53.526   6.193   8.056  0.00  0.00    +0.000 A 
ATOM     30  C   UNL     1      53.584   5.876   9.392  0.00  0.00    +0.000 A 
ATOM     31  N   UNL     1      53.263   6.735  10.377  0.00  0.00    +0.000 NA
ENDBRANCH  25  26
ENDBRANCH  23  25
ENDBRANCH  22  23
ENDBRANCH   4  22
TORSDOF 7
ENDMDL
MODEL 8
REMARK VINA RESULT:    -6.430      4.442      6.522
REMARK INTER + INTRA:          -9.847
REMARK INTER:                  -9.214
REMARK INTRA:                  -0.634
REMARK UNBOUND:                -0.786
REMARK  Name = 
REMARK  7 active torsions:
REMARK  status: ('A' for Active; 'I' for Inactive)
REMARK    1  A    between atoms: C_2  and  C_20
REMARK    2  A    between atoms: N_3  and  C_4
REMARK    3  A    between atoms: C_4  and  C_5
REMARK    4  A    between atoms: C_8  and  C_9
REMARK    5  A    between atoms: C_9  and  N_10
REMARK    6  A    between atoms: N_10  and  C_11
REMARK    7  A    between atoms: C_11  and  C_12
REMARK                            x       y       z     vdW  Elec       q    Type
REMARK                         _______ _______ _______ _____ _____    ______ ____
ROOT
ATOM      1  C   UNL     1      45.512   5.712  12.686  0.00  0.00    +0.000 A 
ATOM      2  C   UNL     1      46.173   6.933  12.870  0.00  0.00    +0.000 A 
ATOM      3  C   UNL     1      45.691   8.096  12.266  0.00  0.00    +0.000 A 
ATOM      4  C   UNL     1      44.539   8.064  11.466  0.00  0.00    +0.000 A 
ATOM      5  C   UNL     1      43.868   6.845  11.302  0.00  0.00    +0.000 A 
ATOM      6  C   UNL     1      44.348   5.682  11.910  0.00  0.00    +0.000 A 
ENDROOT
BRANCH   1   7
ATOM      7  C   UNL     1      46.046   4.455  13.313  0.00  0.00    +0.000 C 
BRANCH   7  10
ATOM      8  O   UNL     1      47.766   2.811  14.715  0.00  0.00    +0.000 OA
ATOM      9  C   UNL     1      47.277   3.774  15.303  0.00  0.00    +0.000 C 
ATOM     10  N   UNL     1      46.401   4.640  14.693  0.00  0.00    +0.000 N 
ATOM     11  H   UNL     1      46.052   5.422  15.238  0.00  0.00    +0.000 HD
BRANCH   9  12
ATOM     12  C   UNL     1      47.589   4.089  16.701  0.00  0.00    +0.000 A 
ATOM     13  N   UNL     1      47.099   3.377  17.742  0.00  0.00    +0.000 NA
ATOM     14  N   UNL     1      47.639   3.989  18.823  0.00  0.00    +0.000 N 
ATOM     15  C   UNL     1      48.427   5.059  18.521  0.00  0.00    +0.000 A 
ATOM     16  N   UNL     1      49.075   5.852  19.397  0.00  0.00    +0.000 NA
ATOM     17  C   UNL     1      49.771   6.842  18.784  0.00  0.00    +0.000 A 
ATOM     18  C   UNL     1      49.846   7.057  17.412  0.00  0.00    +0.000 A 
ATOM     19  C   UNL     1      49.160   6.196  16.555  0.00  0.00    +0.000 A 
ATOM     20  C   UNL     1      48.419   5.158  17.141  0.00  0.00    +0.000 A 
ATOM     21  H   UNL     1      47.433   3.635  19.749  0.00  0.00    +0.000 HD
ENDBRANCH   9  12
ENDBRANCH   7  10
ENDBRANCH   1   7
BRANCH   4  22
ATOM     22  C   UNL     1      44.029   9.323  10.798  0.00  0.00    +0.000 C 
BRANCH  22  23
ATOM     23  N   UNL     1      42.623   9.540  11.116  0.00  0.00    +0.000 NA
ATOM     24  H   UNL     1      42.430   9.220  12.066  0.00  0.00    +0.000 HD
BRANCH  23  25
ATOM     25  C   UNL     1      42.245  10.962  11.040  0.00  0.00    +0.000 C 
BRANCH  25  26
ATOM     26  C   UNL     1      40.941  11.243  11.776  0.00  0.00    +0.000 A 
ATOM     27  N   UNL     1      41.001  12.060  12.854  0.00  0.00    +0.000 NA
ATOM     28  C   UNL     1      39.855  12.235  13.537  0.00  0.00    +0.000 A 
ATOM     29  C   UNL     1      38.664  11.648  13.184  0.00  0.00    +0.000 A 
ATOM     30  C   UNL     1      38.701  10.854  12.063  0.00  0.00    +0.000 A 
ATOM     31  N   UNL     1      39.816  10.637  11.339  0.00  0.00    +0.000 NA
ENDBRANCH  25  26
ENDBRANCH  23  25
ENDBRANCH  22  23
ENDBRANCH   4  22
TORSDOF 7
ENDMDL
MODEL 9
REMARK VINA RESULT:    -6.165      3.502      9.971
REMARK INTER + INTRA:          -9.474
REMARK INTER:                  -8.550
REMARK INTRA:                  -0.924
REMARK UNBOUND:                -0.786
REMARK  Name = 
REMARK  7 active torsions:
REMARK  status: ('A' for Active; 'I' for Inactive)
REMARK    1  A    between atoms: C_2  and  C_20
REMARK    2  A    between atoms: N_3  and  C_4
REMARK    3  A    between atoms: C_4  and  C_5
REMARK    4  A    between atoms: C_8  and  C_9
REMARK    5  A    between atoms: C_9  and  N_10
REMARK    6  A    between atoms: N_10  and  C_11
REMARK    7  A    between atoms: C_11  and  C_12
REMARK                            x       y       z     vdW  Elec       q    Type
REMARK                         _______ _______ _______ _____ _____    ______ ____
ROOT
ATOM      1  C   UNL     1      48.893   4.060  17.091  0.00  0.00    +0.000 A 
ATOM      2  C   UNL     1      49.318   5.392  17.024  0.00  0.00    +0.000 A 
ATOM      3  C   UNL     1      50.598   5.748  17.456  0.00  0.00    +0.000 A 
ATOM      4  C   UNL     1      51.478   4.781  17.963  0.00  0.00    +0.000 A 
ATOM      5  C   UNL     1      51.057   3.446  18.008  0.00  0.00    +0.000 A 
ATOM      6  C   UNL     1      49.778   3.088  17.571  0.00  0.00    +0.000 A 
ENDROOT
BRANCH   1   7
ATOM      7  C   UNL     1      47.507   3.680  16.652  0.00  0.00    +0.000 C 
BRANCH   7  10
ATOM      8  O   UNL     1      47.266   3.205  13.941  0.00  0.00    +0.000 OA
ATOM      9  C   UNL     1      46.866   4.283  14.378  0.00  0.00    +0.000 C 
ATOM     10  N   UNL     1      46.956   4.615  15.710  0.00  0.00    +0.000 N 
ATOM     11  H   UNL     1      46.589   5.516  15.999  0.00  0.00    +0.000 HD
BRANCH   9  12
ATOM     12  C   UNL     1      46.253   5.305  13.524  0.00  0.00    +0.000 A 
ATOM     13  N   UNL     1      46.832   6.503  13.279  0.00  0.00    +0.000 NA
ATOM     14  N   UNL     1      45.952   7.114  12.452  0.00  0.00    +0.000 N 
ATOM     15  C   UNL     1      44.841   6.375  12.176  0.00  0.00    +0.000 A 
ATOM     16  N   UNL     1      43.805   6.741  11.396  0.00  0.00    +0.000 NA
ATOM     17  C   UNL     1      42.844   5.786  11.327  0.00  0.00    +0.000 A 
ATOM     18  C   UNL     1      42.875   4.551  11.965  0.00  0.00    +0.000 A 
ATOM     19  C   UNL     1      43.979   4.225  12.753  0.00  0.00    +0.000 A 
ATOM     20  C   UNL     1      44.999   5.183  12.860  0.00  0.00    +0.000 A 
ATOM     21  H   UNL     1      46.158   8.042  12.104  0.00  0.00    +0.000 HD
ENDBRANCH   9  12
ENDBRANCH   7  10
ENDBRANCH   1   7
BRANCH   4  22
ATOM     22  C   UNL     1      52.858   5.173  18.448  0.00  0.00    +0.000 C 
BRANCH  22  23
ATOM     23  N   UNL     1      52.784   6.335  19.324  0.00  0.00    +0.000 NA
ATOM     24  H   UNL     1      52.082   6.988  18.973  0.00  0.00    +0.000 HD
BRANCH  23  25
ATOM     25  C   UNL     1      52.407   5.974  20.702  0.00  0.00    +0.000 C 
BRANCH  25  26
ATOM     26  C   UNL     1      50.898   6.018  20.907  0.00  0.00    +0.000 A 
ATOM     27  N   UNL     1      50.283   4.856  21.234  0.00  0.00    +0.000 NA
ATOM     28  C   UNL     1      48.942   4.897  21.336  0.00  0.00    +0.000 A 
ATOM     29  C   UNL     1      48.200   6.037  21.142  0.00  0.00    +0.000 A 
ATOM     30  C   UNL     1      48.919   7.169  20.837  0.00  0.00    +0.000 A 
ATOM     31  N   UNL     1      50.259   7.192  20.717  0.00  0.00    +0.000 NA
ENDBRANCH  25  26
ENDBRANCH  23  25
ENDBRANCH  22  23
ENDBRANCH   4  22
TORSDOF 7
ENDMDL
