MODEL 1
REMARK VINA RESULT:    -6.981      0.000      0.000
REMARK INTER + INTRA:         -10.057
REMARK INTER:                  -9.430
REMARK INTRA:                  -0.627
REMARK UNBOUND:                -0.627
REMARK  Name = 
REMARK  6 active torsions:
REMARK  status: ('A' for Active; 'I' for Inactive)
REMARK    1  A    between atoms: C_2  and  C_4
REMARK    2  A    between atoms: C_7  and  C_8
REMARK    3  A    between atoms: C_9  and  C_10
REMARK    4  A    between atoms: C_10  and  C_11
REMARK    5  A    between atoms: C_15  and  O_16
REMARK    6  A    between atoms: O_16  and  C_17
REMARK                            x       y       z     vdW  Elec       q    Type
REMARK                         _______ _______ _______ _____ _____    ______ ____
ROOT
ATOM      1  C   UNL     1      46.821   5.684  13.217  0.00  0.00    +0.000 C 
ATOM      2  C   UNL     1      46.380   5.889  12.119  0.00  0.00    +0.000 C 
ENDROOT
BRANCH   1   6
ATOM      3  C   UNL     1      48.473   4.861  17.015  0.00  0.00    +0.000 A 
ATOM      4  C   UNL     1      48.846   6.012  16.313  0.00  0.00    +0.000 A 
ATOM      5  C   UNL     1      48.291   6.278  15.060  0.00  0.00    +0.000 A 
ATOM      6  C   UNL     1      47.367   5.391  14.503  0.00  0.00    +0.000 A 
ATOM      7  C   UNL     1      47.003   4.231  15.191  0.00  0.00    +0.000 A 
ATOM      8  C   UNL     1      47.562   3.963  16.445  0.00  0.00    +0.000 A 
BRANCH   3  10
ATOM      9  N   UNL     1      48.476   3.507  19.031  0.00  0.00    +0.000 N 
ATOM     10  C   UNL     1      49.033   4.560  18.355  0.00  0.00    +0.000 C 
ATOM     11  O   UNL     1      49.970   5.190  18.823  0.00  0.00    +0.000 OA
ATOM     12  H   UNL     1      48.935   3.234  19.890  0.00  0.00    +0.000 HD
ATOM     13  H   UNL     1      47.898   2.820  18.571  0.00  0.00    +0.000 HD
ENDBRANCH   3  10
ENDBRANCH   1   6
BRANCH   2  14
ATOM     14  C   UNL     1      45.822   6.137  10.782  0.00  0.00    +0.000 C 
BRANCH  14  15
ATOM     15  C   UNL     1      45.442   4.842  10.110  0.00  0.00    +0.000 A 
ATOM     16  C   UNL     1      44.645   3.903  10.775  0.00  0.00    +0.000 A 
ATOM     17  C   UNL     1      44.208   2.756  10.112  0.00  0.00    +0.000 A 
ATOM     18  C   UNL     1      44.566   2.530   8.780  0.00  0.00    +0.000 A 
ATOM     19  C   UNL     1      45.379   3.447   8.117  0.00  0.00    +0.000 A 
ATOM     20  C   UNL     1      45.804   4.601   8.777  0.00  0.00    +0.000 A 
BRANCH  19  21
ATOM     21  O   UNL     1      45.778   3.349   6.808  0.00  0.00    +0.000 OA
BRANCH  21  22
ATOM     22  C   UNL     1      47.159   3.037   6.517  0.00  0.00    +0.000 C 
ATOM     23  C   UNL     1      47.489   2.409   5.157  0.00  0.00    +0.000 C 
ATOM     24  O   UNL     1      48.090   1.247   5.776  0.00  0.00    +0.000 OA
ATOM     25  C   UNL     1      47.652   1.695   7.079  0.00  0.00    +0.000 C 
ENDBRANCH  21  22
ENDBRANCH  19  21
ENDBRANCH  14  15
ENDBRANCH   2  14
TORSDOF 6
ENDMDL
MODEL 2
REMARK VINA RESULT:    -6.506      3.807      8.734
REMARK INTER + INTRA:          -9.415
REMARK INTER:                  -8.977
REMARK INTRA:                  -0.439
REMARK UNBOUND:                -0.627
REMARK  Name = 
REMARK  6 active torsions:
REMARK  status: ('A' for Active; 'I' for Inactive)
REMARK    1  A    between atoms: C_2  and  C_4
REMARK    2  A    between atoms: C_7  and  C_8
REMARK    3  A    between atoms: C_9  and  C_10
REMARK    4  A    between atoms: C_10  and  C_11
REMARK    5  A    between atoms: C_15  and  O_16
REMARK    6  A    between atoms: O_16  and  C_17
REMARK                            x       y       z     vdW  Elec       q    Type
REMARK                         _______ _______ _______ _____ _____    ______ ____
ROOT
ATOM      1  C   UNL     1      48.027   6.590  13.573  0.00  0.00    +0.000 C 
ATOM      2  C   UNL     1      48.844   7.108  14.285  0.00  0.00    +0.000 C 
ENDROOT
BRANCH   1   6
ATOM      3  C   UNL     1      45.075   4.760  11.172  0.00  0.00    +0.000 A 
ATOM      4  C   UNL     1      45.700   5.939  10.752  0.00  0.00    +0.000 A 
ATOM      5  C   UNL     1      46.678   6.534  11.551  0.00  0.00    +0.000 A 
ATOM      6  C   UNL     1      47.029   5.956  12.773  0.00  0.00    +0.000 A 
ATOM      7  C   UNL     1      46.396   4.788  13.206  0.00  0.00    +0.000 A 
ATOM      8  C   UNL     1      45.413   4.194  12.408  0.00  0.00    +0.000 A 
BRANCH   3  10
ATOM      9  N   UNL     1      44.009   4.441   9.014  0.00  0.00    +0.000 N 
ATOM     10  C   UNL     1      44.044   4.095  10.338  0.00  0.00    +0.000 C 
ATOM     11  O   UNL     1      43.286   3.251  10.794  0.00  0.00    +0.000 OA
ATOM     12  H   UNL     1      43.384   3.903   8.428  0.00  0.00    +0.000 HD
ATOM     13  H   UNL     1      44.774   4.922   8.564  0.00  0.00    +0.000 HD
ENDBRANCH   3  10
ENDBRANCH   1   6
BRANCH   2  14
ATOM     14  C   UNL     1      49.857   7.728  15.151  0.00  0.00    +0.000 C 
BRANCH  14  15
ATOM     15  C   UNL     1      50.484   6.704  16.063  0.00  0.00    +0.000 A 
ATOM     16  C   UNL     1      51.868   6.691  16.272  0.00  0.00    +0.000 A 
ATOM     17  C   UNL     1      52.431   5.811  17.198  0.00  0.00    +0.000 A 
ATOM     18  C   UNL     1      51.620   4.932  17.921  0.00  0.00    +0.000 A 
ATOM     19  C   UNL     1      50.245   4.922  17.703  0.00  0.00    +0.000 A 
ATOM     20  C   UNL     1      49.680   5.811  16.786  0.00  0.00    +0.000 A 
BRANCH  19  21
ATOM     21  O   UNL     1      49.345   4.125  18.364  0.00  0.00    +0.000 OA
BRANCH  21  22
ATOM     22  C   UNL     1      49.137   2.770  17.905  0.00  0.00    +0.000 C 
ATOM     23  C   UNL     1      50.259   2.094  17.106  0.00  0.00    +0.000 C 
ATOM     24  O   UNL     1      49.390   1.864  15.973  0.00  0.00    +0.000 OA
ATOM     25  C   UNL     1      48.343   2.644  16.596  0.00  0.00    +0.000 C 
ENDBRANCH  21  22
ENDBRANCH  19  21
ENDBRANCH  14  15
ENDBRANCH   2  14
TORSDOF 6
ENDMDL
MODEL 3
REMARK VINA RESULT:    -6.474      5.006      7.585
REMARK INTER + INTRA:          -9.372
REMARK INTER:                  -8.799
REMARK INTRA:                  -0.574
REMARK UNBOUND:                -0.627
REMARK  Name = 
REMARK  6 active torsions:
REMARK  status: ('A' for Active; 'I' for Inactive)
REMARK    1  A    between atoms: C_2  and  C_4
REMARK    2  A    between atoms: C_7  and  C_8
REMARK    3  A    between atoms: C_9  and  C_10
REMARK    4  A    between atoms: C_10  and  C_11
REMARK    5  A    between atoms: C_15  and  O_16
REMARK    6  A    between atoms: O_16  and  C_17
REMARK                            x       y       z     vdW  Elec       q    Type
REMARK                         _______ _______ _______ _____ _____    ______ ____
ROOT
ATOM      1  C   UNL     1      46.371   2.550   6.905  0.00  0.00    +0.000 C 
ATOM      2  C   UNL     1      46.942   2.270   5.886  0.00  0.00    +0.000 C 
ENDROOT
BRANCH   1   6
ATOM      3  C   UNL     1      44.271   3.673  10.392  0.00  0.00    +0.000 A 
ATOM      4  C   UNL     1      44.908   4.639   9.605  0.00  0.00    +0.000 A 
ATOM      5  C   UNL     1      45.596   4.258   8.451  0.00  0.00    +0.000 A 
ATOM      6  C   UNL     1      45.655   2.911   8.086  0.00  0.00    +0.000 A 
ATOM      7  C   UNL     1      45.035   1.941   8.877  0.00  0.00    +0.000 A 
ATOM      8  C   UNL     1      44.350   2.322  10.034  0.00  0.00    +0.000 A 
BRANCH   3  10
ATOM      9  N   UNL     1      43.855   3.393  12.768  0.00  0.00    +0.000 N 
ATOM     10  C   UNL     1      43.519   4.049  11.614  0.00  0.00    +0.000 C 
ATOM     11  O   UNL     1      42.667   4.927  11.607  0.00  0.00    +0.000 OA
ATOM     12  H   UNL     1      43.422   3.733  13.617  0.00  0.00    +0.000 HD
ATOM     13  H   UNL     1      44.712   2.870  12.858  0.00  0.00    +0.000 HD
ENDBRANCH   3  10
ENDBRANCH   1   6
BRANCH   2  14
ATOM     14  C   UNL     1      47.655   1.939   4.645  0.00  0.00    +0.000 C 
BRANCH  14  15
ATOM     15  C   UNL     1      46.861   0.964   3.813  0.00  0.00    +0.000 A 
ATOM     16  C   UNL     1      45.709   1.381   3.134  0.00  0.00    +0.000 A 
ATOM     17  C   UNL     1      45.039   0.503   2.282  0.00  0.00    +0.000 A 
ATOM     18  C   UNL     1      45.506  -0.802   2.102  0.00  0.00    +0.000 A 
ATOM     19  C   UNL     1      46.636  -1.233   2.792  0.00  0.00    +0.000 A 
ATOM     20  C   UNL     1      47.315  -0.350   3.634  0.00  0.00    +0.000 A 
BRANCH  19  21
ATOM     21  O   UNL     1      47.203  -2.478   2.683  0.00  0.00    +0.000 OA
BRANCH  21  22
ATOM     22  C   UNL     1      46.596  -3.590   3.378  0.00  0.00    +0.000 C 
ATOM     23  C   UNL     1      46.544  -3.545   4.911  0.00  0.00    +0.000 C 
ATOM     24  O   UNL     1      47.280  -4.785   5.029  0.00  0.00    +0.000 OA
ATOM     25  C   UNL     1      47.520  -4.796   3.603  0.00  0.00    +0.000 C 
ENDBRANCH  21  22
ENDBRANCH  19  21
ENDBRANCH  14  15
ENDBRANCH   2  14
TORSDOF 6
ENDMDL
MODEL 4
REMARK VINA RESULT:    -6.271      3.015      3.522
REMARK INTER + INTRA:          -9.098
REMARK INTER:                  -8.611
REMARK INTRA:                  -0.487
REMARK UNBOUND:                -0.627
REMARK  Name = 
REMARK  6 active torsions:
REMARK  status: ('A' for Active; 'I' for Inactive)
REMARK    1  A    between atoms: C_2  and  C_4
REMARK    2  A    between atoms: C_7  and  C_8
REMARK    3  A    between atoms: C_9  and  C_10
REMARK    4  A    between atoms: C_10  and  C_11
REMARK    5  A    between atoms: C_15  and  O_16
REMARK    6  A    between atoms: O_16  and  C_17
REMARK                            x       y       z     vdW  Elec       q    Type
REMARK                         _______ _______ _______ _____ _____    ______ ____
ROOT
ATOM      1  C   UNL     1      46.915   6.830  11.768  0.00  0.00    +0.000 C 
ATOM      2  C   UNL     1      45.860   6.435  11.350  0.00  0.00    +0.000 C 
ENDROOT
BRANCH   1   6
ATOM      3  C   UNL     1      50.609   8.081  13.386  0.00  0.00    +0.000 A 
ATOM      4  C   UNL     1      49.570   7.667  14.226  0.00  0.00    +0.000 A 
ATOM      5  C   UNL     1      48.354   7.252  13.681  0.00  0.00    +0.000 A 
ATOM      6  C   UNL     1      48.171   7.254  12.297  0.00  0.00    +0.000 A 
ATOM      7  C   UNL     1      49.199   7.682  11.453  0.00  0.00    +0.000 A 
ATOM      8  C   UNL     1      50.416   8.102  11.999  0.00  0.00    +0.000 A 
BRANCH   3  10
ATOM      9  N   UNL     1      53.030   7.898  13.423  0.00  0.00    +0.000 N 
ATOM     10  C   UNL     1      51.918   8.512  13.934  0.00  0.00    +0.000 C 
ATOM     11  O   UNL     1      52.010   9.399  14.771  0.00  0.00    +0.000 OA
ATOM     12  H   UNL     1      53.922   8.275  13.714  0.00  0.00    +0.000 HD
ATOM     13  H   UNL     1      53.004   7.369  12.565  0.00  0.00    +0.000 HD
ENDBRANCH   3  10
ENDBRANCH   1   6
BRANCH   2  14
ATOM     14  C   UNL     1      44.562   5.965  10.849  0.00  0.00    +0.000 C 
BRANCH  14  15
ATOM     15  C   UNL     1      44.693   4.607  10.207  0.00  0.00    +0.000 A 
ATOM     16  C   UNL     1      44.171   3.470  10.836  0.00  0.00    +0.000 A 
ATOM     17  C   UNL     1      44.201   2.233  10.190  0.00  0.00    +0.000 A 
ATOM     18  C   UNL     1      44.756   2.116   8.913  0.00  0.00    +0.000 A 
ATOM     19  C   UNL     1      45.299   3.237   8.290  0.00  0.00    +0.000 A 
ATOM     20  C   UNL     1      45.257   4.477   8.930  0.00  0.00    +0.000 A 
BRANCH  19  21
ATOM     21  O   UNL     1      45.850   3.254   7.033  0.00  0.00    +0.000 OA
BRANCH  21  22
ATOM     22  C   UNL     1      47.228   2.852   6.865  0.00  0.00    +0.000 C 
ATOM     23  C   UNL     1      47.750   2.630   5.439  0.00  0.00    +0.000 C 
ATOM     24  O   UNL     1      48.120   1.261   5.728  0.00  0.00    +0.000 OA
ATOM     25  C   UNL     1      47.488   1.347   7.026  0.00  0.00    +0.000 C 
ENDBRANCH  21  22
ENDBRANCH  19  21
ENDBRANCH  14  15
ENDBRANCH   2  14
TORSDOF 6
ENDMDL
MODEL 5
REMARK VINA RESULT:    -6.105      3.899      9.069
REMARK INTER + INTRA:          -8.874
REMARK INTER:                  -8.178
REMARK INTRA:                  -0.696
REMARK UNBOUND:                -0.627
REMARK  Name = 
REMARK  6 active torsions:
REMARK  status: ('A' for Active; 'I' for Inactive)
REMARK    1  A    between atoms: C_2  and  C_4
REMARK    2  A    between atoms: C_7  and  C_8
REMARK    3  A    between atoms: C_9  and  C_10
REMARK    4  A    between atoms: C_10  and  C_11
REMARK    5  A    between atoms: C_15  and  O_16
REMARK    6  A    between atoms: O_16  and  C_17
REMARK                            x       y       z     vdW  Elec       q    Type
REMARK                         _______ _______ _______ _____ _____    ______ ____
ROOT
ATOM      1  C   UNL     1      47.921   6.311  13.886  0.00  0.00    +0.000 C 
ATOM      2  C   UNL     1      48.774   6.798  14.578  0.00  0.00    +0.000 C 
ENDROOT
BRANCH   1   6
ATOM      3  C   UNL     1      45.012   4.602  11.349  0.00  0.00    +0.000 A 
ATOM      4  C   UNL     1      45.400   3.949  12.524  0.00  0.00    +0.000 A 
ATOM      5  C   UNL     1      46.359   4.525  13.358  0.00  0.00    +0.000 A 
ATOM      6  C   UNL     1      46.937   5.749  13.018  0.00  0.00    +0.000 A 
ATOM      7  C   UNL     1      46.566   6.398  11.837  0.00  0.00    +0.000 A 
ATOM      8  C   UNL     1      45.608   5.819  10.999  0.00  0.00    +0.000 A 
BRANCH   3  10
ATOM      9  N   UNL     1      44.041   4.392   9.133  0.00  0.00    +0.000 N 
ATOM     10  C   UNL     1      43.983   4.023  10.450  0.00  0.00    +0.000 C 
ATOM     11  O   UNL     1      43.146   3.227  10.850  0.00  0.00    +0.000 OA
ATOM     12  H   UNL     1      43.412   3.908   8.505  0.00  0.00    +0.000 HD
ATOM     13  H   UNL     1      44.859   4.826   8.732  0.00  0.00    +0.000 HD
ENDBRANCH   3  10
ENDBRANCH   1   6
BRANCH   2  14
ATOM     14  C   UNL     1      49.804   7.408  15.430  0.00  0.00    +0.000 C 
BRANCH  14  15
ATOM     15  C   UNL     1      49.775   6.815  16.816  0.00  0.00    +0.000 A 
ATOM     16  C   UNL     1      48.882   7.302  17.779  0.00  0.00    +0.000 A 
ATOM     17  C   UNL     1      48.784   6.682  19.025  0.00  0.00    +0.000 A 
ATOM     18  C   UNL     1      49.580   5.573  19.326  0.00  0.00    +0.000 A 
ATOM     19  C   UNL     1      50.488   5.096  18.384  0.00  0.00    +0.000 A 
ATOM     20  C   UNL     1      50.576   5.709  17.133  0.00  0.00    +0.000 A 
BRANCH  19  21
ATOM     21  O   UNL     1      51.305   4.007  18.553  0.00  0.00    +0.000 OA
BRANCH  21  22
ATOM     22  C   UNL     1      51.470   3.077  17.459  0.00  0.00    +0.000 C 
ATOM     23  C   UNL     1      50.356   2.053  17.203  0.00  0.00    +0.000 C 
ATOM     24  O   UNL     1      51.266   0.939  17.362  0.00  0.00    +0.000 OA
ATOM     25  C   UNL     1      52.317   1.838  17.785  0.00  0.00    +0.000 C 
ENDBRANCH  21  22
ENDBRANCH  19  21
ENDBRANCH  14  15
ENDBRANCH   2  14
TORSDOF 6
ENDMDL
MODEL 6
REMARK VINA RESULT:    -5.756      4.619      5.728
REMARK INTER + INTRA:          -8.402
REMARK INTER:                  -7.819
REMARK INTRA:                  -0.583
REMARK UNBOUND:                -0.627
REMARK  Name = 
REMARK  6 active torsions:
REMARK  status: ('A' for Active; 'I' for Inactive)
REMARK    1  A    between atoms: C_2  and  C_4
REMARK    2  A    between atoms: C_7  and  C_8
REMARK    3  A    between atoms: C_9  and  C_10
REMARK    4  A    between atoms: C_10  and  C_11
REMARK    5  A    between atoms: C_15  and  O_16
REMARK    6  A    between atoms: O_16  and  C_17
REMARK                            x       y       z     vdW  Elec       q    Type
REMARK                         _______ _______ _______ _____ _____    ______ ____
ROOT
ATOM      1  C   UNL     1      48.137   7.116  12.529  0.00  0.00    +0.000 C 
ATOM      2  C   UNL     1      47.364   6.313  12.976  0.00  0.00    +0.000 C 
ENDROOT
BRANCH   1   6
ATOM      3  C   UNL     1      50.876   9.860  10.857  0.00  0.00    +0.000 A 
ATOM      4  C   UNL     1      49.606  10.283  11.261  0.00  0.00    +0.000 A 
ATOM      5  C   UNL     1      48.709   9.369  11.817  0.00  0.00    +0.000 A 
ATOM      6  C   UNL     1      49.077   8.030  11.964  0.00  0.00    +0.000 A 
ATOM      7  C   UNL     1      50.338   7.598  11.547  0.00  0.00    +0.000 A 
ATOM      8  C   UNL     1      51.235   8.512  10.987  0.00  0.00    +0.000 A 
BRANCH   3  10
ATOM      9  N   UNL     1      53.096  10.844  10.860  0.00  0.00    +0.000 N 
ATOM     10  C   UNL     1      51.857  10.810  10.278  0.00  0.00    +0.000 C 
ATOM     11  O   UNL     1      51.593  11.503   9.306  0.00  0.00    +0.000 OA
ATOM     12  H   UNL     1      53.794  11.407  10.392  0.00  0.00    +0.000 HD
ATOM     13  H   UNL     1      53.420  10.113  11.475  0.00  0.00    +0.000 HD
ENDBRANCH   3  10
ENDBRANCH   1   6
BRANCH   2  14
ATOM     14  C   UNL     1      46.427   5.330  13.538  0.00  0.00    +0.000 C 
BRANCH  14  15
ATOM     15  C   UNL     1      45.290   5.065  12.584  0.00  0.00    +0.000 A 
ATOM     16  C   UNL     1      43.966   5.057  13.041  0.00  0.00    +0.000 A 
ATOM     17  C   UNL     1      42.911   4.918  12.138  0.00  0.00    +0.000 A 
ATOM     18  C   UNL     1      43.166   4.779  10.770  0.00  0.00    +0.000 A 
ATOM     19  C   UNL     1      44.480   4.762  10.309  0.00  0.00    +0.000 A 
ATOM     20  C   UNL     1      45.534   4.916  11.211  0.00  0.00    +0.000 A 
BRANCH  19  21
ATOM     21  O   UNL     1      44.855   4.656   8.994  0.00  0.00    +0.000 OA
BRANCH  21  22
ATOM     22  C   UNL     1      44.775   3.368   8.343  0.00  0.00    +0.000 C 
ATOM     23  C   UNL     1      44.908   2.108   9.208  0.00  0.00    +0.000 C 
ATOM     24  O   UNL     1      46.044   1.637   8.446  0.00  0.00    +0.000 OA
ATOM     25  C   UNL     1      46.087   2.880   7.709  0.00  0.00    +0.000 C 
ENDBRANCH  21  22
ENDBRANCH  19  21
ENDBRANCH  14  15
ENDBRANCH   2  14
TORSDOF 6
ENDMDL
MODEL 7
REMARK VINA RESULT:    -5.659      3.433      9.888
REMARK INTER + INTRA:          -8.271
REMARK INTER:                  -7.624
REMARK INTRA:                  -0.647
REMARK UNBOUND:                -0.627
REMARK  Name = 
REMARK  6 active torsions:
REMARK  status: ('A' for Active; 'I' for Inactive)
REMARK    1  A    between atoms: C_2  and  C_4
REMARK    2  A    between atoms: C_7  and  C_8
REMARK    3  A    between atoms: C_9  and  C_10
REMARK    4  A    between atoms: C_10  and  C_11
REMARK    5  A    between atoms: C_15  and  O_16
REMARK    6  A    between atoms: O_16  and  C_17
REMARK                            x       y       z     vdW  Elec       q    Type
REMARK                         _______ _______ _______ _____ _____    ______ ____
ROOT
ATOM      1  C   UNL     1      46.890   4.623  14.931  0.00  0.00    +0.000 C 
ATOM      2  C   UNL     1      47.299   4.558  16.058  0.00  0.00    +0.000 C 
ENDROOT
BRANCH   1   6
ATOM      3  C   UNL     1      45.605   4.835  10.914  0.00  0.00    +0.000 A 
ATOM      4  C   UNL     1      46.165   5.954  11.540  0.00  0.00    +0.000 A 
ATOM      5  C   UNL     1      46.591   5.872  12.867  0.00  0.00    +0.000 A 
ATOM      6  C   UNL     1      46.453   4.676  13.573  0.00  0.00    +0.000 A 
ATOM      7  C   UNL     1      45.879   3.560  12.959  0.00  0.00    +0.000 A 
ATOM      8  C   UNL     1      45.449   3.642  11.631  0.00  0.00    +0.000 A 
BRANCH   3  10
ATOM      9  N   UNL     1      43.837   4.617   9.264  0.00  0.00    +0.000 N 
ATOM     10  C   UNL     1      45.159   4.885   9.500  0.00  0.00    +0.000 C 
ATOM     11  O   UNL     1      45.917   5.189   8.591  0.00  0.00    +0.000 OA
ATOM     12  H   UNL     1      43.513   4.765   8.318  0.00  0.00    +0.000 HD
ATOM     13  H   UNL     1      43.148   4.626  10.001  0.00  0.00    +0.000 HD
ENDBRANCH   3  10
ENDBRANCH   1   6
BRANCH   2  14
ATOM     14  C   UNL     1      47.801   4.496  17.438  0.00  0.00    +0.000 C 
BRANCH  14  15
ATOM     15  C   UNL     1      49.147   3.818  17.490  0.00  0.00    +0.000 A 
ATOM     16  C   UNL     1      49.273   2.461  17.165  0.00  0.00    +0.000 A 
ATOM     17  C   UNL     1      50.533   1.865  17.112  0.00  0.00    +0.000 A 
ATOM     18  C   UNL     1      51.681   2.614  17.386  0.00  0.00    +0.000 A 
ATOM     19  C   UNL     1      51.564   3.958  17.733  0.00  0.00    +0.000 A 
ATOM     20  C   UNL     1      50.304   4.557  17.773  0.00  0.00    +0.000 A 
BRANCH  19  21
ATOM     21  O   UNL     1      52.613   4.800  18.002  0.00  0.00    +0.000 OA
BRANCH  21  22
ATOM     22  C   UNL     1      53.506   4.483  19.093  0.00  0.00    +0.000 C 
ATOM     23  C   UNL     1      52.895   4.198  20.471  0.00  0.00    +0.000 C 
ATOM     24  O   UNL     1      53.651   5.265  21.090  0.00  0.00    +0.000 OA
ATOM     25  C   UNL     1      54.127   5.700  19.796  0.00  0.00    +0.000 C 
ENDBRANCH  21  22
ENDBRANCH  19  21
ENDBRANCH  14  15
ENDBRANCH   2  14
TORSDOF 6
ENDMDL
MODEL 8
REMARK VINA RESULT:    -5.375      5.599      7.233
REMARK INTER + INTRA:          -7.887
REMARK INTER:                  -7.261
REMARK INTRA:                  -0.626
REMARK UNBOUND:                -0.627
REMARK  Name = 
REMARK  6 active torsions:
REMARK  status: ('A' for Active; 'I' for Inactive)
REMARK    1  A    between atoms: C_2  and  C_4
REMARK    2  A    between atoms: C_7  and  C_8
REMARK    3  A    between atoms: C_9  and  C_10
REMARK    4  A    between atoms: C_10  and  C_11
REMARK    5  A    between atoms: C_15  and  O_16
REMARK    6  A    between atoms: O_16  and  C_17
REMARK                            x       y       z     vdW  Elec       q    Type
REMARK                         _______ _______ _______ _____ _____    ______ ____
ROOT
ATOM      1  C   UNL     1      47.559   7.548  12.075  0.00  0.00    +0.000 C 
ATOM      2  C   UNL     1      48.273   8.507  12.181  0.00  0.00    +0.000 C 
ENDROOT
BRANCH   1   6
ATOM      3  C   UNL     1      45.040   4.162  11.913  0.00  0.00    +0.000 A 
ATOM      4  C   UNL     1      45.934   4.331  12.976  0.00  0.00    +0.000 A 
ATOM      5  C   UNL     1      46.759   5.456  13.023  0.00  0.00    +0.000 A 
ATOM      6  C   UNL     1      46.698   6.411  12.005  0.00  0.00    +0.000 A 
ATOM      7  C   UNL     1      45.819   6.239  10.933  0.00  0.00    +0.000 A 
ATOM      8  C   UNL     1      44.995   5.111  10.884  0.00  0.00    +0.000 A 
BRANCH   3  10
ATOM      9  N   UNL     1      44.033   2.364  10.628  0.00  0.00    +0.000 N 
ATOM     10  C   UNL     1      44.138   2.986  11.844  0.00  0.00    +0.000 C 
ATOM     11  O   UNL     1      43.547   2.564  12.827  0.00  0.00    +0.000 OA
ATOM     12  H   UNL     1      43.510   1.499  10.614  0.00  0.00    +0.000 HD
ATOM     13  H   UNL     1      44.696   2.523   9.885  0.00  0.00    +0.000 HD
ENDBRANCH   3  10
ENDBRANCH   1   6
BRANCH   2  14
ATOM     14  C   UNL     1      49.162   9.670  12.308  0.00  0.00    +0.000 C 
BRANCH  14  15
ATOM     15  C   UNL     1      50.306   9.581  11.330  0.00  0.00    +0.000 A 
ATOM     16  C   UNL     1      50.807  10.735  10.715  0.00  0.00    +0.000 A 
ATOM     17  C   UNL     1      51.932  10.661   9.893  0.00  0.00    +0.000 A 
ATOM     18  C   UNL     1      52.568   9.436   9.672  0.00  0.00    +0.000 A 
ATOM     19  C   UNL     1      52.063   8.279  10.261  0.00  0.00    +0.000 A 
ATOM     20  C   UNL     1      50.945   8.355  11.094  0.00  0.00    +0.000 A 
BRANCH  19  21
ATOM     21  O   UNL     1      52.608   7.026  10.139  0.00  0.00    +0.000 OA
BRANCH  21  22
ATOM     22  C   UNL     1      53.506   6.755   9.040  0.00  0.00    +0.000 C 
ATOM     23  C   UNL     1      52.913   6.199   7.739  0.00  0.00    +0.000 C 
ATOM     24  O   UNL     1      53.753   5.021   7.794  0.00  0.00    +0.000 OA
ATOM     25  C   UNL     1      54.223   5.398   9.109  0.00  0.00    +0.000 C 
ENDBRANCH  21  22
ENDBRANCH  19  21
ENDBRANCH  14  15
ENDBRANCH   2  14
TORSDOF 6
ENDMDL
MODEL 9
REMARK VINA RESULT:    -5.276      3.315      4.659
REMARK INTER + INTRA:          -7.754
REMARK INTER:                  -7.106
REMARK INTRA:                  -0.647
REMARK UNBOUND:                -0.627
REMARK  Name = 
REMARK  6 active torsions:
REMARK  status: ('A' for Active; 'I' for Inactive)
REMARK    1  A    between atoms: C_2  and  C_4
REMARK    2  A    between atoms: C_7  and  C_8
REMARK    3  A    between atoms: C_9  and  C_10
REMARK    4  A    between atoms: C_10  and  C_11
REMARK    5  A    between atoms: C_15  and  O_16
REMARK    6  A    between atoms: O_16  and  C_17
REMARK                            x       y       z     vdW  Elec       q    Type
REMARK                         _______ _______ _______ _____ _____    ______ ____
ROOT
ATOM      1  C   UNL     1      48.835   6.752  15.580  0.00  0.00    +0.000 C 
ATOM      2  C   UNL     1      48.767   7.121  14.439  0.00  0.00    +0.000 C 
ENDROOT
BRANCH   1   6
ATOM      3  C   UNL     1      48.925   5.455  19.597  0.00  0.00    +0.000 A 
ATOM      4  C   UNL     1      49.280   4.583  18.563  0.00  0.00    +0.000 A 
ATOM      5  C   UNL     1      49.252   5.023  17.238  0.00  0.00    +0.000 A 
ATOM      6  C   UNL     1      48.862   6.331  16.944  0.00  0.00    +0.000 A 
ATOM      7  C   UNL     1      48.489   7.201  17.972  0.00  0.00    +0.000 A 
ATOM      8  C   UNL     1      48.514   6.760  19.298  0.00  0.00    +0.000 A 
BRANCH   3  10
ATOM      9  N   UNL     1      47.755   4.911  21.655  0.00  0.00    +0.000 N 
ATOM     10  C   UNL     1      48.961   5.022  21.016  0.00  0.00    +0.000 C 
ATOM     11  O   UNL     1      50.008   4.739  21.581  0.00  0.00    +0.000 OA
ATOM     12  H   UNL     1      47.776   4.507  22.582  0.00  0.00    +0.000 HD
ATOM     13  H   UNL     1      46.882   4.880  21.151  0.00  0.00    +0.000 HD
ENDBRANCH   3  10
ENDBRANCH   1   6
BRANCH   2  14
ATOM     14  C   UNL     1      48.697   7.586  13.047  0.00  0.00    +0.000 C 
BRANCH  14  15
ATOM     15  C   UNL     1      47.297   7.448  12.505  0.00  0.00    +0.000 A 
ATOM     16  C   UNL     1      46.481   8.574  12.346  0.00  0.00    +0.000 A 
ATOM     17  C   UNL     1      45.227   8.456  11.745  0.00  0.00    +0.000 A 
ATOM     18  C   UNL     1      44.771   7.211  11.301  0.00  0.00    +0.000 A 
ATOM     19  C   UNL     1      45.566   6.080  11.477  0.00  0.00    +0.000 A 
ATOM     20  C   UNL     1      46.826   6.202  12.066  0.00  0.00    +0.000 A 
BRANCH  19  21
ATOM     21  O   UNL     1      45.240   4.813  11.066  0.00  0.00    +0.000 OA
BRANCH  21  22
ATOM     22  C   UNL     1      43.915   4.304  11.339  0.00  0.00    +0.000 C 
ATOM     23  C   UNL     1      43.621   3.764  12.745  0.00  0.00    +0.000 C 
ATOM     24  O   UNL     1      43.249   2.465  12.229  0.00  0.00    +0.000 OA
ATOM     25  C   UNL     1      43.676   2.851  10.902  0.00  0.00    +0.000 C 
ENDBRANCH  21  22
ENDBRANCH  19  21
ENDBRANCH  14  15
ENDBRANCH   2  14
TORSDOF 6
ENDMDL
