MODEL 1
REMARK VINA RESULT:    -8.180      0.000      0.000
REMARK INTER + INTRA:         -12.167
REMARK INTER:                 -11.049
REMARK INTRA:                  -1.118
REMARK UNBOUND:                -1.118
REMARK  Name = 
REMARK  7 active torsions:
REMARK  status: ('A' for Active; 'I' for Inactive)
REMARK    1  A    between atoms: C_1  and  C_2
REMARK    2  A    between atoms: C_2  and  N_3
REMARK    3  A    between atoms: C_2  and  C_16
REMARK    4  A    between atoms: C_4  and  C_6
REMARK    5  A    between atoms: C_19  and  C_20
REMARK    6  A    between atoms: C_20  and  N_21
REMARK    7  A    between atoms: C_22  and  C_24
REMARK                            x       y       z     vdW  Elec       q    Type
REMARK                         _______ _______ _______ _____ _____    ______ ____
ROOT
ATOM      1  C   UNL     1      43.813   2.654  11.116  0.00  0.00    +0.000 C 
ATOM      2  C   UNL     1      44.078   3.732  10.061  0.00  0.00    +0.000 C 
ENDROOT
BRANCH   2   3
ATOM      3  C   UNL     1      45.002   3.197   8.970  0.00  0.00    +0.000 A 
ATOM      4  C   UNL     1      45.542   4.054   8.003  0.00  0.00    +0.000 A 
ATOM      5  C   UNL     1      46.412   3.565   7.017  0.00  0.00    +0.000 A 
ATOM      6  C   UNL     1      46.759   2.208   6.971  0.00  0.00    +0.000 A 
ATOM      7  C   UNL     1      46.233   1.352   7.946  0.00  0.00    +0.000 A 
ATOM      8  C   UNL     1      45.363   1.839   8.928  0.00  0.00    +0.000 A 
BRANCH   6   9
ATOM      9  C   UNL     1      47.669   1.676   5.892  0.00  0.00    +0.000 C 
BRANCH   9  10
ATOM     10  N   UNL     1      47.274   0.372   5.418  0.00  0.00    +0.000 N 
ATOM     11  C   UNL     1      47.108   0.119   4.071  0.00  0.00    +0.000 C 
ATOM     12  O   UNL     1      47.285   0.957   3.194  0.00  0.00    +0.000 OA
ATOM     13  H   UNL     1      47.206  -0.413   6.059  0.00  0.00    +0.000 HD
BRANCH  11  14
ATOM     14  C   UNL     1      46.689  -1.271   3.729  0.00  0.00    +0.000 A 
ATOM     15  C   UNL     1      46.770  -2.278   4.683  0.00  0.00    +0.000 A 
ATOM     16  N   UNL     1      46.421  -3.565   4.416  0.00  0.00    +0.000 NA
ATOM     17  C   UNL     1      45.995  -3.795   3.152  0.00  0.00    +0.000 A 
ATOM     18  C   UNL     1      45.913  -2.791   2.200  0.00  0.00    +0.000 A 
ATOM     19  N   UNL     1      46.252  -1.503   2.456  0.00  0.00    +0.000 NA
ENDBRANCH  11  14
ENDBRANCH   9  10
ENDBRANCH   6   9
ENDBRANCH   2   3
BRANCH   2  20
ATOM     20  N   UNL     1      44.676   4.927  10.630  0.00  0.00    +0.000 N 
ATOM     21  C   UNL     1      43.975   5.918  11.272  0.00  0.00    +0.000 C 
ATOM     22  O   UNL     1      42.768   5.869  11.472  0.00  0.00    +0.000 OA
ATOM     23  H   UNL     1      45.567   5.185  10.220  0.00  0.00    +0.000 HD
BRANCH  21  24
ATOM     24  C   UNL     1      44.793   7.023  11.788  0.00  0.00    +0.000 A 
ATOM     25  C   UNL     1      44.539   8.328  11.389  0.00  0.00    +0.000 A 
ATOM     26  S   UNL     1      45.545   9.478  12.152  0.00  0.00    +0.000 S 
ATOM     27  C   UNL     1      46.389   8.265  12.997  0.00  0.00    +0.000 A 
ATOM     28  N   UNL     1      47.417   8.573  13.833  0.00  0.00    +0.000 NA
ATOM     29  C   UNL     1      47.981   7.550  14.383  0.00  0.00    +0.000 A 
ATOM     30  N   UNL     1      47.609   6.247  14.178  0.00  0.00    +0.000 N 
ATOM     31  C   UNL     1      46.564   5.891  13.363  0.00  0.00    +0.000 A 
ATOM     32  O   UNL     1      46.230   4.718  13.231  0.00  0.00    +0.000 OA
ATOM     33  C   UNL     1      45.899   7.005  12.713  0.00  0.00    +0.000 A 
ATOM     34  H   UNL     1      48.083   5.488  14.644  0.00  0.00    +0.000 HD
ENDBRANCH  21  24
ENDBRANCH   2  20
TORSDOF 6
ENDMDL
MODEL 2
REMARK VINA RESULT:    -7.727      3.888      6.604
REMARK INTER + INTRA:         -11.556
REMARK INTER:                 -10.391
REMARK INTRA:                  -1.164
REMARK UNBOUND:                -1.118
REMARK  Name = 
REMARK  7 active torsions:
REMARK  status: ('A' for Active; 'I' for Inactive)
REMARK    1  A    between atoms: C_1  and  C_2
REMARK    2  A    between atoms: C_2  and  N_3
REMARK    3  A    between atoms: C_2  and  C_16
REMARK    4  A    between atoms: C_4  and  C_6
REMARK    5  A    between atoms: C_19  and  C_20
REMARK    6  A    between atoms: C_20  and  N_21
REMARK    7  A    between atoms: C_22  and  C_24
REMARK                            x       y       z     vdW  Elec       q    Type
REMARK                         _______ _______ _______ _____ _____    ______ ____
ROOT
ATOM      1  C   UNL     1      47.765   8.578  14.006  0.00  0.00    +0.000 C 
ATOM      2  C   UNL     1      48.113   7.093  14.130  0.00  0.00    +0.000 C 
ENDROOT
BRANCH   2   3
ATOM      3  C   UNL     1      47.154   6.247  13.295  0.00  0.00    +0.000 A 
ATOM      4  C   UNL     1      46.618   6.739  12.098  0.00  0.00    +0.000 A 
ATOM      5  C   UNL     1      45.759   5.950  11.319  0.00  0.00    +0.000 A 
ATOM      6  C   UNL     1      45.410   4.653  11.720  0.00  0.00    +0.000 A 
ATOM      7  C   UNL     1      45.958   4.153  12.907  0.00  0.00    +0.000 A 
ATOM      8  C   UNL     1      46.813   4.940  13.686  0.00  0.00    +0.000 A 
BRANCH   6   9
ATOM      9  C   UNL     1      44.461   3.816  10.899  0.00  0.00    +0.000 C 
BRANCH   9  10
ATOM     10  N   UNL     1      45.136   3.004   9.916  0.00  0.00    +0.000 N 
ATOM     11  C   UNL     1      45.410   3.486   8.653  0.00  0.00    +0.000 C 
ATOM     12  O   UNL     1      45.116   4.616   8.276  0.00  0.00    +0.000 OA
ATOM     13  H   UNL     1      45.511   2.093  10.168  0.00  0.00    +0.000 HD
BRANCH  11  14
ATOM     14  C   UNL     1      46.104   2.531   7.740  0.00  0.00    +0.000 A 
ATOM     15  C   UNL     1      46.442   2.922   6.450  0.00  0.00    +0.000 A 
ATOM     16  N   UNL     1      47.056   2.084   5.573  0.00  0.00    +0.000 NA
ATOM     17  C   UNL     1      47.306   0.840   6.044  0.00  0.00    +0.000 A 
ATOM     18  C   UNL     1      46.969   0.450   7.330  0.00  0.00    +0.000 A 
ATOM     19  N   UNL     1      46.364   1.278   8.217  0.00  0.00    +0.000 NA
ENDBRANCH  11  14
ENDBRANCH   9  10
ENDBRANCH   6   9
ENDBRANCH   2   3
BRANCH   2  20
ATOM     20  N   UNL     1      48.065   6.626  15.504  0.00  0.00    +0.000 N 
ATOM     21  C   UNL     1      49.168   6.302  16.255  0.00  0.00    +0.000 C 
ATOM     22  O   UNL     1      50.317   6.421  15.850  0.00  0.00    +0.000 OA
ATOM     23  H   UNL     1      47.185   6.198  15.771  0.00  0.00    +0.000 HD
BRANCH  21  24
ATOM     24  C   UNL     1      48.880   5.877  17.631  0.00  0.00    +0.000 A 
ATOM     25  C   UNL     1      49.104   4.562  18.018  0.00  0.00    +0.000 A 
ATOM     26  S   UNL     1      48.780   4.278  19.670  0.00  0.00    +0.000 S 
ATOM     27  C   UNL     1      48.278   5.887  19.908  0.00  0.00    +0.000 A 
ATOM     28  N   UNL     1      47.843   6.318  21.123  0.00  0.00    +0.000 NA
ATOM     29  C   UNL     1      47.468   7.554  21.147  0.00  0.00    +0.000 A 
ATOM     30  N   UNL     1      47.492   8.400  20.070  0.00  0.00    +0.000 N 
ATOM     31  C   UNL     1      47.945   8.016  18.832  0.00  0.00    +0.000 A 
ATOM     32  O   UNL     1      47.991   8.808  17.897  0.00  0.00    +0.000 OA
ATOM     33  C   UNL     1      48.372   6.632  18.748  0.00  0.00    +0.000 A 
ATOM     34  H   UNL     1      47.194   9.360  20.151  0.00  0.00    +0.000 HD
ENDBRANCH  21  24
ENDBRANCH   2  20
TORSDOF 6
ENDMDL
MODEL 3
REMARK VINA RESULT:    -7.592      3.120      5.868
REMARK INTER + INTRA:         -11.373
REMARK INTER:                 -10.764
REMARK INTRA:                  -0.609
REMARK UNBOUND:                -1.118
REMARK  Name = 
REMARK  7 active torsions:
REMARK  status: ('A' for Active; 'I' for Inactive)
REMARK    1  A    between atoms: C_1  and  C_2
REMARK    2  A    between atoms: C_2  and  N_3
REMARK    3  A    between atoms: C_2  and  C_16
REMARK    4  A    between atoms: C_4  and  C_6
REMARK    5  A    between atoms: C_19  and  C_20
REMARK    6  A    between atoms: C_20  and  N_21
REMARK    7  A    between atoms: C_22  and  C_24
REMARK                            x       y       z     vdW  Elec       q    Type
REMARK                         _______ _______ _______ _____ _____    ______ ____
ROOT
ATOM      1  C   UNL     1      46.132   9.087  13.315  0.00  0.00    +0.000 C 
ATOM      2  C   UNL     1      46.955   7.808  13.145  0.00  0.00    +0.000 C 
ENDROOT
BRANCH   2   3
ATOM      3  C   UNL     1      46.140   6.739  12.420  0.00  0.00    +0.000 A 
ATOM      4  C   UNL     1      46.496   5.387  12.501  0.00  0.00    +0.000 A 
ATOM      5  C   UNL     1      45.730   4.404  11.856  0.00  0.00    +0.000 A 
ATOM      6  C   UNL     1      44.594   4.750  11.111  0.00  0.00    +0.000 A 
ATOM      7  C   UNL     1      44.228   6.099  11.042  0.00  0.00    +0.000 A 
ATOM      8  C   UNL     1      44.993   7.080  11.683  0.00  0.00    +0.000 A 
BRANCH   6   9
ATOM      9  C   UNL     1      43.789   3.697  10.391  0.00  0.00    +0.000 C 
BRANCH   9  10
ATOM     10  N   UNL     1      44.590   2.882   9.511  0.00  0.00    +0.000 N 
ATOM     11  C   UNL     1      45.281   3.435   8.452  0.00  0.00    +0.000 C 
ATOM     12  O   UNL     1      45.273   4.632   8.184  0.00  0.00    +0.000 OA
ATOM     13  H   UNL     1      44.742   1.898   9.714  0.00  0.00    +0.000 HD
BRANCH  11  14
ATOM     14  C   UNL     1      46.059   2.470   7.622  0.00  0.00    +0.000 A 
ATOM     15  C   UNL     1      46.500   2.837   6.356  0.00  0.00    +0.000 A 
ATOM     16  N   UNL     1      47.194   1.988   5.553  0.00  0.00    +0.000 NA
ATOM     17  C   UNL     1      47.419   0.758   6.071  0.00  0.00    +0.000 A 
ATOM     18  C   UNL     1      46.980   0.392   7.334  0.00  0.00    +0.000 A 
ATOM     19  N   UNL     1      46.292   1.231   8.148  0.00  0.00    +0.000 NA
ENDBRANCH  11  14
ENDBRANCH   9  10
ENDBRANCH   6   9
ENDBRANCH   2   3
BRANCH   2  20
ATOM     20  N   UNL     1      47.403   7.266  14.415  0.00  0.00    +0.000 N 
ATOM     21  C   UNL     1      48.690   6.864  14.680  0.00  0.00    +0.000 C 
ATOM     22  O   UNL     1      49.607   6.968  13.876  0.00  0.00    +0.000 OA
ATOM     23  H   UNL     1      46.667   6.852  14.978  0.00  0.00    +0.000 HD
BRANCH  21  24
ATOM     24  C   UNL     1      48.918   6.371  16.044  0.00  0.00    +0.000 A 
ATOM     25  C   UNL     1      49.681   7.111  16.938  0.00  0.00    +0.000 A 
ATOM     26  S   UNL     1      49.771   6.412  18.493  0.00  0.00    +0.000 S 
ATOM     27  C   UNL     1      48.841   5.071  18.008  0.00  0.00    +0.000 A 
ATOM     28  N   UNL     1      48.554   4.060  18.873  0.00  0.00    +0.000 NA
ATOM     29  C   UNL     1      47.865   3.098  18.358  0.00  0.00    +0.000 A 
ATOM     30  N   UNL     1      47.431   3.053  17.059  0.00  0.00    +0.000 N 
ATOM     31  C   UNL     1      47.675   4.060  16.158  0.00  0.00    +0.000 A 
ATOM     32  O   UNL     1      47.240   4.009  15.013  0.00  0.00    +0.000 OA
ATOM     33  C   UNL     1      48.455   5.165  16.684  0.00  0.00    +0.000 A 
ATOM     34  H   UNL     1      46.887   2.277  16.715  0.00  0.00    +0.000 HD
ENDBRANCH  21  24
ENDBRANCH   2  20
TORSDOF 6
ENDMDL
MODEL 4
REMARK VINA RESULT:    -7.214      3.301      5.774
REMARK INTER + INTRA:         -10.862
REMARK INTER:                  -9.662
REMARK INTRA:                  -1.201
REMARK UNBOUND:                -1.118
REMARK  Name = 
REMARK  7 active torsions:
REMARK  status: ('A' for Active; 'I' for Inactive)
REMARK    1  A    between atoms: C_1  and  C_2
REMARK    2  A    between atoms: C_2  and  N_3
REMARK    3  A    between atoms: C_2  and  C_16
REMARK    4  A    between atoms: C_4  and  C_6
REMARK    5  A    between atoms: C_19  and  C_20
REMARK    6  A    between atoms: C_20  and  N_21
REMARK    7  A    between atoms: C_22  and  C_24
REMARK                            x       y       z     vdW  Elec       q    Type
REMARK                         _______ _______ _______ _____ _____    ______ ____
ROOT
ATOM      1  C   UNL     1      47.421   3.865  15.544  0.00  0.00    +0.000 C 
ATOM      2  C   UNL     1      47.083   5.198  14.871  0.00  0.00    +0.000 C 
ENDROOT
BRANCH   2   3
ATOM      3  C   UNL     1      46.303   4.963  13.579  0.00  0.00    +0.000 A 
ATOM      4  C   UNL     1      45.929   3.669  13.192  0.00  0.00    +0.000 A 
ATOM      5  C   UNL     1      45.190   3.459  12.018  0.00  0.00    +0.000 A 
ATOM      6  C   UNL     1      44.811   4.534  11.202  0.00  0.00    +0.000 A 
ATOM      7  C   UNL     1      45.170   5.828  11.597  0.00  0.00    +0.000 A 
ATOM      8  C   UNL     1      45.910   6.039  12.765  0.00  0.00    +0.000 A 
BRANCH   6   9
ATOM      9  C   UNL     1      44.044   4.305   9.924  0.00  0.00    +0.000 C 
BRANCH   9  10
ATOM     10  N   UNL     1      44.731   3.430   9.006  0.00  0.00    +0.000 N 
ATOM     11  C   UNL     1      45.767   3.888   8.218  0.00  0.00    +0.000 C 
ATOM     12  O   UNL     1      46.180   5.043   8.240  0.00  0.00    +0.000 OA
ATOM     13  H   UNL     1      44.530   2.434   8.993  0.00  0.00    +0.000 HD
BRANCH  11  14
ATOM     14  C   UNL     1      46.377   2.874   7.310  0.00  0.00    +0.000 A 
ATOM     15  C   UNL     1      46.645   3.197   5.985  0.00  0.00    +0.000 A 
ATOM     16  N   UNL     1      47.180   2.302   5.112  0.00  0.00    +0.000 NA
ATOM     17  C   UNL     1      47.427   1.074   5.624  0.00  0.00    +0.000 A 
ATOM     18  C   UNL     1      47.161   0.752   6.945  0.00  0.00    +0.000 A 
ATOM     19  N   UNL     1      46.634   1.636   7.828  0.00  0.00    +0.000 NA
ENDBRANCH  11  14
ENDBRANCH   9  10
ENDBRANCH   6   9
ENDBRANCH   2   3
BRANCH   2  20
ATOM     20  N   UNL     1      48.268   5.977  14.561  0.00  0.00    +0.000 N 
ATOM     21  C   UNL     1      48.888   6.833  15.439  0.00  0.00    +0.000 C 
ATOM     22  O   UNL     1      48.526   6.989  16.598  0.00  0.00    +0.000 OA
ATOM     23  H   UNL     1      48.408   6.152  13.572  0.00  0.00    +0.000 HD
BRANCH  21  24
ATOM     24  C   UNL     1      50.088   7.498  14.914  0.00  0.00    +0.000 A 
ATOM     25  C   UNL     1      51.311   7.341  15.553  0.00  0.00    +0.000 A 
ATOM     26  S   UNL     1      52.598   8.128  14.754  0.00  0.00    +0.000 S 
ATOM     27  C   UNL     1      51.555   8.750  13.561  0.00  0.00    +0.000 A 
ATOM     28  N   UNL     1      52.021   9.546  12.561  0.00  0.00    +0.000 NA
ATOM     29  C   UNL     1      51.112   9.966  11.746  0.00  0.00    +0.000 A 
ATOM     30  N   UNL     1      49.779   9.660  11.836  0.00  0.00    +0.000 N 
ATOM     31  C   UNL     1      49.267   8.843  12.813  0.00  0.00    +0.000 A 
ATOM     32  O   UNL     1      48.075   8.557  12.844  0.00  0.00    +0.000 OA
ATOM     33  C   UNL     1      50.248   8.348  13.762  0.00  0.00    +0.000 A 
ATOM     34  H   UNL     1      49.115  10.012  11.164  0.00  0.00    +0.000 HD
ENDBRANCH  21  24
ENDBRANCH   2  20
TORSDOF 6
ENDMDL
MODEL 5
REMARK VINA RESULT:    -7.143      7.476     10.399
REMARK INTER + INTRA:         -10.767
REMARK INTER:                  -9.816
REMARK INTRA:                  -0.951
REMARK UNBOUND:                -1.118
REMARK  Name = 
REMARK  7 active torsions:
REMARK  status: ('A' for Active; 'I' for Inactive)
REMARK    1  A    between atoms: C_1  and  C_2
REMARK    2  A    between atoms: C_2  and  N_3
REMARK    3  A    between atoms: C_2  and  C_16
REMARK    4  A    between atoms: C_4  and  C_6
REMARK    5  A    between atoms: C_19  and  C_20
REMARK    6  A    between atoms: C_20  and  N_21
REMARK    7  A    between atoms: C_22  and  C_24
REMARK                            x       y       z     vdW  Elec       q    Type
REMARK                         _______ _______ _______ _____ _____    ______ ____
ROOT
ATOM      1  C   UNL     1      46.593   3.155  13.264  0.00  0.00    +0.000 C 
ATOM      2  C   UNL     1      46.275   4.273  14.260  0.00  0.00    +0.000 C 
ENDROOT
BRANCH   2   3
ATOM      3  C   UNL     1      45.943   5.568  13.522  0.00  0.00    +0.000 A 
ATOM      4  C   UNL     1      46.854   6.632  13.495  0.00  0.00    +0.000 A 
ATOM      5  C   UNL     1      46.558   7.811  12.794  0.00  0.00    +0.000 A 
ATOM      6  C   UNL     1      45.344   7.957  12.110  0.00  0.00    +0.000 A 
ATOM      7  C   UNL     1      44.439   6.888  12.122  0.00  0.00    +0.000 A 
ATOM      8  C   UNL     1      44.732   5.714  12.823  0.00  0.00    +0.000 A 
BRANCH   6   9
ATOM      9  C   UNL     1      45.012   9.236  11.383  0.00  0.00    +0.000 C 
BRANCH   9  10
ATOM     10  N   UNL     1      43.606   9.556  11.423  0.00  0.00    +0.000 N 
ATOM     11  C   UNL     1      43.170  10.847  11.641  0.00  0.00    +0.000 C 
ATOM     12  O   UNL     1      43.923  11.801  11.805  0.00  0.00    +0.000 OA
ATOM     13  H   UNL     1      42.909   8.853  11.195  0.00  0.00    +0.000 HD
BRANCH  11  14
ATOM     14  C   UNL     1      41.689  11.027  11.666  0.00  0.00    +0.000 A 
ATOM     15  C   UNL     1      40.899  10.433  10.689  0.00  0.00    +0.000 A 
ATOM     16  N   UNL     1      39.548  10.583  10.656  0.00  0.00    +0.000 NA
ATOM     17  C   UNL     1      39.030  11.357  11.638  0.00  0.00    +0.000 A 
ATOM     18  C   UNL     1      39.818  11.949  12.612  0.00  0.00    +0.000 A 
ATOM     19  N   UNL     1      41.165  11.801  12.661  0.00  0.00    +0.000 NA
ENDBRANCH  11  14
ENDBRANCH   9  10
ENDBRANCH   6   9
ENDBRANCH   2   3
BRANCH   2  20
ATOM     20  N   UNL     1      47.374   4.529  15.174  0.00  0.00    +0.000 N 
ATOM     21  C   UNL     1      47.431   4.075  16.469  0.00  0.00    +0.000 C 
ATOM     22  O   UNL     1      46.573   3.361  16.971  0.00  0.00    +0.000 OA
ATOM     23  H   UNL     1      47.921   5.353  14.951  0.00  0.00    +0.000 HD
BRANCH  21  24
ATOM     24  C   UNL     1      48.653   4.436  17.200  0.00  0.00    +0.000 A 
ATOM     25  C   UNL     1      48.754   5.671  17.826  0.00  0.00    +0.000 A 
ATOM     26  S   UNL     1      50.216   5.877  18.685  0.00  0.00    +0.000 S 
ATOM     27  C   UNL     1      50.784   4.347  18.201  0.00  0.00    +0.000 A 
ATOM     28  N   UNL     1      52.010   3.896  18.582  0.00  0.00    +0.000 NA
ATOM     29  C   UNL     1      52.317   2.731  18.117  0.00  0.00    +0.000 A 
ATOM     30  N   UNL     1      51.510   1.972  17.311  0.00  0.00    +0.000 N 
ATOM     31  C   UNL     1      50.257   2.375  16.922  0.00  0.00    +0.000 A 
ATOM     32  O   UNL     1      49.543   1.656  16.231  0.00  0.00    +0.000 OA
ATOM     33  C   UNL     1      49.864   3.683  17.411  0.00  0.00    +0.000 A 
ATOM     34  H   UNL     1      51.801   1.063  16.985  0.00  0.00    +0.000 HD
ENDBRANCH  21  24
ENDBRANCH   2  20
TORSDOF 6
ENDMDL
MODEL 6
REMARK VINA RESULT:    -7.121      6.900     10.893
REMARK INTER + INTRA:         -10.737
REMARK INTER:                  -9.810
REMARK INTRA:                  -0.927
REMARK UNBOUND:                -1.118
REMARK  Name = 
REMARK  7 active torsions:
REMARK  status: ('A' for Active; 'I' for Inactive)
REMARK    1  A    between atoms: C_1  and  C_2
REMARK    2  A    between atoms: C_2  and  N_3
REMARK    3  A    between atoms: C_2  and  C_16
REMARK    4  A    between atoms: C_4  and  C_6
REMARK    5  A    between atoms: C_19  and  C_20
REMARK    6  A    between atoms: C_20  and  N_21
REMARK    7  A    between atoms: C_22  and  C_24
REMARK                            x       y       z     vdW  Elec       q    Type
REMARK                         _______ _______ _______ _____ _____    ______ ____
ROOT
ATOM      1  C   UNL     1      46.999   5.003  18.458  0.00  0.00    +0.000 C 
ATOM      2  C   UNL     1      47.469   4.213  17.234  0.00  0.00    +0.000 C 
ENDROOT
BRANCH   2   3
ATOM      3  C   UNL     1      48.957   3.890  17.344  0.00  0.00    +0.000 A 
ATOM      4  C   UNL     1      49.897   4.903  17.575  0.00  0.00    +0.000 A 
ATOM      5  C   UNL     1      51.260   4.600  17.703  0.00  0.00    +0.000 A 
ATOM      6  C   UNL     1      51.718   3.279  17.598  0.00  0.00    +0.000 A 
ATOM      7  C   UNL     1      50.779   2.264  17.383  0.00  0.00    +0.000 A 
ATOM      8  C   UNL     1      49.419   2.565  17.253  0.00  0.00    +0.000 A 
BRANCH   6   9
ATOM      9  C   UNL     1      53.188   2.957  17.704  0.00  0.00    +0.000 C 
BRANCH   9  10
ATOM     10  N   UNL     1      53.463   1.547  17.581  0.00  0.00    +0.000 N 
ATOM     11  C   UNL     1      54.079   0.845  18.597  0.00  0.00    +0.000 C 
ATOM     12  O   UNL     1      54.426   1.349  19.660  0.00  0.00    +0.000 OA
ATOM     13  H   UNL     1      53.120   1.020  16.782  0.00  0.00    +0.000 HD
BRANCH  11  14
ATOM     14  C   UNL     1      54.308  -0.604  18.326  0.00  0.00    +0.000 A 
ATOM     15  C   UNL     1      54.882  -1.006  17.126  0.00  0.00    +0.000 A 
ATOM     16  N   UNL     1      55.093  -2.314  16.822  0.00  0.00    +0.000 NA
ATOM     17  C   UNL     1      54.698  -3.196  17.769  0.00  0.00    +0.000 A 
ATOM     18  C   UNL     1      54.127  -2.796  18.966  0.00  0.00    +0.000 A 
ATOM     19  N   UNL     1      53.917  -1.495  19.285  0.00  0.00    +0.000 NA
ENDBRANCH  11  14
ENDBRANCH   9  10
ENDBRANCH   6   9
ENDBRANCH   2   3
BRANCH   2  20
ATOM     20  N   UNL     1      47.242   4.931  15.992  0.00  0.00    +0.000 N 
ATOM     21  C   UNL     1      47.209   4.346  14.750  0.00  0.00    +0.000 C 
ATOM     22  O   UNL     1      47.323   3.141  14.569  0.00  0.00    +0.000 OA
ATOM     23  H   UNL     1      47.473   5.918  16.030  0.00  0.00    +0.000 HD
BRANCH  21  24
ATOM     24  C   UNL     1      46.939   5.266  13.637  0.00  0.00    +0.000 A 
ATOM     25  C   UNL     1      47.912   6.164  13.220  0.00  0.00    +0.000 A 
ATOM     26  S   UNL     1      47.439   7.096  11.870  0.00  0.00    +0.000 S 
ATOM     27  C   UNL     1      45.900   6.369  11.833  0.00  0.00    +0.000 A 
ATOM     28  N   UNL     1      44.969   6.733  10.910  0.00  0.00    +0.000 NA
ATOM     29  C   UNL     1      43.839   6.117  11.022  0.00  0.00    +0.000 A 
ATOM     30  N   UNL     1      43.555   5.167  11.967  0.00  0.00    +0.000 N 
ATOM     31  C   UNL     1      44.470   4.751  12.903  0.00  0.00    +0.000 A 
ATOM     32  O   UNL     1      44.199   3.871  13.711  0.00  0.00    +0.000 OA
ATOM     33  C   UNL     1      45.757   5.419  12.826  0.00  0.00    +0.000 A 
ATOM     34  H   UNL     1      42.656   4.713  12.000  0.00  0.00    +0.000 HD
ENDBRANCH  21  24
ENDBRANCH   2  20
TORSDOF 6
ENDMDL
MODEL 7
REMARK VINA RESULT:    -7.025      5.551     10.341
REMARK INTER + INTRA:         -10.607
REMARK INTER:                  -9.447
REMARK INTRA:                  -1.160
REMARK UNBOUND:                -1.118
REMARK  Name = 
REMARK  7 active torsions:
REMARK  status: ('A' for Active; 'I' for Inactive)
REMARK    1  A    between atoms: C_1  and  C_2
REMARK    2  A    between atoms: C_2  and  N_3
REMARK    3  A    between atoms: C_2  and  C_16
REMARK    4  A    between atoms: C_4  and  C_6
REMARK    5  A    between atoms: C_19  and  C_20
REMARK    6  A    between atoms: C_20  and  N_21
REMARK    7  A    between atoms: C_22  and  C_24
REMARK                            x       y       z     vdW  Elec       q    Type
REMARK                         _______ _______ _______ _____ _____    ______ ____
ROOT
ATOM      1  C   UNL     1      49.705   7.943  11.822  0.00  0.00    +0.000 C 
ATOM      2  C   UNL     1      48.429   7.621  12.605  0.00  0.00    +0.000 C 
ENDROOT
BRANCH   2   3
ATOM      3  C   UNL     1      48.773   7.100  13.998  0.00  0.00    +0.000 A 
ATOM      4  C   UNL     1      47.960   6.150  14.630  0.00  0.00    +0.000 A 
ATOM      5  C   UNL     1      48.293   5.653  15.899  0.00  0.00    +0.000 A 
ATOM      6  C   UNL     1      49.441   6.097  16.568  0.00  0.00    +0.000 A 
ATOM      7  C   UNL     1      50.263   7.034  15.932  0.00  0.00    +0.000 A 
ATOM      8  C   UNL     1      49.931   7.533  14.668  0.00  0.00    +0.000 A 
BRANCH   6   9
ATOM      9  C   UNL     1      49.782   5.586  17.946  0.00  0.00    +0.000 C 
BRANCH   9  10
ATOM     10  N   UNL     1      50.913   4.691  17.949  0.00  0.00    +0.000 N 
ATOM     11  C   UNL     1      50.758   3.339  17.718  0.00  0.00    +0.000 C 
ATOM     12  O   UNL     1      49.677   2.806  17.492  0.00  0.00    +0.000 OA
ATOM     13  H   UNL     1      51.859   5.054  18.024  0.00  0.00    +0.000 HD
BRANCH  11  14
ATOM     14  C   UNL     1      52.014   2.535  17.761  0.00  0.00    +0.000 A 
ATOM     15  C   UNL     1      53.209   3.130  18.148  0.00  0.00    +0.000 A 
ATOM     16  N   UNL     1      54.384   2.447  18.183  0.00  0.00    +0.000 NA
ATOM     17  C   UNL     1      54.307   1.149  17.809  0.00  0.00    +0.000 A 
ATOM     18  C   UNL     1      53.116   0.555  17.424  0.00  0.00    +0.000 A 
ATOM     19  N   UNL     1      51.936   1.223  17.391  0.00  0.00    +0.000 NA
ENDBRANCH  11  14
ENDBRANCH   9  10
ENDBRANCH   6   9
ENDBRANCH   2   3
BRANCH   2  20
ATOM     20  N   UNL     1      47.602   6.635  11.932  0.00  0.00    +0.000 N 
ATOM     21  C   UNL     1      46.297   6.839  11.557  0.00  0.00    +0.000 C 
ATOM     22  O   UNL     1      45.710   7.902  11.711  0.00  0.00    +0.000 OA
ATOM     23  H   UNL     1      47.895   5.674  12.077  0.00  0.00    +0.000 HD
BRANCH  21  24
ATOM     24  C   UNL     1      45.665   5.707  10.867  0.00  0.00    +0.000 A 
ATOM     25  C   UNL     1      45.817   5.550   9.496  0.00  0.00    +0.000 A 
ATOM     26  S   UNL     1      45.072   4.138   8.889  0.00  0.00    +0.000 S 
ATOM     27  C   UNL     1      44.477   3.721  10.428  0.00  0.00    +0.000 A 
ATOM     28  N   UNL     1      43.721   2.605  10.613  0.00  0.00    +0.000 NA
ATOM     29  C   UNL     1      43.316   2.431  11.828  0.00  0.00    +0.000 A 
ATOM     30  N   UNL     1      43.602   3.267  12.875  0.00  0.00    +0.000 N 
ATOM     31  C   UNL     1      44.380   4.390  12.740  0.00  0.00    +0.000 A 
ATOM     32  O   UNL     1      44.649   5.097  13.705  0.00  0.00    +0.000 OA
ATOM     33  C   UNL     1      44.855   4.637  11.391  0.00  0.00    +0.000 A 
ATOM     34  H   UNL     1      43.264   3.074  13.806  0.00  0.00    +0.000 HD
ENDBRANCH  21  24
ENDBRANCH   2  20
TORSDOF 6
ENDMDL
MODEL 8
REMARK VINA RESULT:    -6.605      3.875      7.334
REMARK INTER + INTRA:         -10.039
REMARK INTER:                  -9.292
REMARK INTRA:                  -0.747
REMARK UNBOUND:                -1.118
REMARK  Name = 
REMARK  7 active torsions:
REMARK  status: ('A' for Active; 'I' for Inactive)
REMARK    1  A    between atoms: C_1  and  C_2
REMARK    2  A    between atoms: C_2  and  N_3
REMARK    3  A    between atoms: C_2  and  C_16
REMARK    4  A    between atoms: C_4  and  C_6
REMARK    5  A    between atoms: C_19  and  C_20
REMARK    6  A    between atoms: C_20  and  N_21
REMARK    7  A    between atoms: C_22  and  C_24
REMARK                            x       y       z     vdW  Elec       q    Type
REMARK                         _______ _______ _______ _____ _____    ______ ____
ROOT
ATOM      1  C   UNL     1      49.193  10.467  14.576  0.00  0.00    +0.000 C 
ATOM      2  C   UNL     1      49.439   8.976  14.332  0.00  0.00    +0.000 C 
ENDROOT
BRANCH   2   3
ATOM      3  C   UNL     1      48.333   8.386  13.460  0.00  0.00    +0.000 A 
ATOM      4  C   UNL     1      48.453   7.098  12.921  0.00  0.00    +0.000 A 
ATOM      5  C   UNL     1      47.423   6.549  12.143  0.00  0.00    +0.000 A 
ATOM      6  C   UNL     1      46.253   7.274  11.879  0.00  0.00    +0.000 A 
ATOM      7  C   UNL     1      46.125   8.555  12.430  0.00  0.00    +0.000 A 
ATOM      8  C   UNL     1      47.152   9.105  13.204  0.00  0.00    +0.000 A 
BRANCH   6   9
ATOM      9  C   UNL     1      45.160   6.696  11.016  0.00  0.00    +0.000 C 
BRANCH   9  10
ATOM     10  N   UNL     1      45.641   5.689  10.101  0.00  0.00    +0.000 N 
ATOM     11  C   UNL     1      44.853   4.617   9.736  0.00  0.00    +0.000 C 
ATOM     12  O   UNL     1      43.710   4.442  10.144  0.00  0.00    +0.000 OA
ATOM     13  H   UNL     1      46.534   5.803   9.631  0.00  0.00    +0.000 HD
BRANCH  11  14
ATOM     14  C   UNL     1      45.485   3.651   8.791  0.00  0.00    +0.000 A 
ATOM     15  C   UNL     1      45.507   2.295   9.093  0.00  0.00    +0.000 A 
ATOM     16  N   UNL     1      46.089   1.377   8.276  0.00  0.00    +0.000 NA
ATOM     17  C   UNL     1      46.651   1.880   7.152  0.00  0.00    +0.000 A 
ATOM     18  C   UNL     1      46.628   3.232   6.850  0.00  0.00    +0.000 A 
ATOM     19  N   UNL     1      46.045   4.157   7.653  0.00  0.00    +0.000 NA
ENDBRANCH  11  14
ENDBRANCH   9  10
ENDBRANCH   6   9
ENDBRANCH   2   3
BRANCH   2  20
ATOM     20  N   UNL     1      49.508   8.217  15.568  0.00  0.00    +0.000 N 
ATOM     21  C   UNL     1      48.663   8.391  16.636  0.00  0.00    +0.000 C 
ATOM     22  O   UNL     1      47.727   9.180  16.634  0.00  0.00    +0.000 OA
ATOM     23  H   UNL     1      50.419   7.815  15.762  0.00  0.00    +0.000 HD
BRANCH  21  24
ATOM     24  C   UNL     1      48.906   7.492  17.772  0.00  0.00    +0.000 A 
ATOM     25  C   UNL     1      49.323   8.005  18.994  0.00  0.00    +0.000 A 
ATOM     26  S   UNL     1      49.480   6.817  20.209  0.00  0.00    +0.000 S 
ATOM     27  C   UNL     1      49.050   5.572  19.130  0.00  0.00    +0.000 A 
ATOM     28  N   UNL     1      49.007   4.273  19.532  0.00  0.00    +0.000 NA
ATOM     29  C   UNL     1      48.693   3.437  18.599  0.00  0.00    +0.000 A 
ATOM     30  N   UNL     1      48.412   3.780  17.303  0.00  0.00    +0.000 N 
ATOM     31  C   UNL     1      48.420   5.079  16.858  0.00  0.00    +0.000 A 
ATOM     32  O   UNL     1      48.127   5.357  15.701  0.00  0.00    +0.000 OA
ATOM     33  C   UNL     1      48.775   6.060  17.867  0.00  0.00    +0.000 A 
ATOM     34  H   UNL     1      48.164   3.082  16.619  0.00  0.00    +0.000 HD
ENDBRANCH  21  24
ENDBRANCH   2  20
TORSDOF 6
ENDMDL
MODEL 9
REMARK VINA RESULT:    -6.522      4.275      7.903
REMARK INTER + INTRA:          -9.927
REMARK INTER:                  -8.768
REMARK INTRA:                  -1.159
REMARK UNBOUND:                -1.118
REMARK  Name = 
REMARK  7 active torsions:
REMARK  status: ('A' for Active; 'I' for Inactive)
REMARK    1  A    between atoms: C_1  and  C_2
REMARK    2  A    between atoms: C_2  and  N_3
REMARK    3  A    between atoms: C_2  and  C_16
REMARK    4  A    between atoms: C_4  and  C_6
REMARK    5  A    between atoms: C_19  and  C_20
REMARK    6  A    between atoms: C_20  and  N_21
REMARK    7  A    between atoms: C_22  and  C_24
REMARK                            x       y       z     vdW  Elec       q    Type
REMARK                         _______ _______ _______ _____ _____    ______ ____
ROOT
ATOM      1  C   UNL     1      49.246   9.726  15.238  0.00  0.00    +0.000 C 
ATOM      2  C   UNL     1      49.106   8.204  15.156  0.00  0.00    +0.000 C 
ENDROOT
BRANCH   2   3
ATOM      3  C   UNL     1      48.021   7.819  14.153  0.00  0.00    +0.000 A 
ATOM      4  C   UNL     1      47.209   8.797  13.563  0.00  0.00    +0.000 A 
ATOM      5  C   UNL     1      46.231   8.444  12.622  0.00  0.00    +0.000 A 
ATOM      6  C   UNL     1      46.036   7.106  12.252  0.00  0.00    +0.000 A 
ATOM      7  C   UNL     1      46.857   6.129  12.829  0.00  0.00    +0.000 A 
ATOM      8  C   UNL     1      47.831   6.480  13.769  0.00  0.00    +0.000 A 
BRANCH   6   9
ATOM      9  C   UNL     1      44.963   6.723  11.264  0.00  0.00    +0.000 C 
BRANCH   9  10
ATOM     10  N   UNL     1      45.420   5.774  10.279  0.00  0.00    +0.000 N 
ATOM     11  C   UNL     1      44.758   4.581  10.069  0.00  0.00    +0.000 C 
ATOM     12  O   UNL     1      43.751   4.245  10.683  0.00  0.00    +0.000 OA
ATOM     13  H   UNL     1      46.183   6.009   9.650  0.00  0.00    +0.000 HD
BRANCH  11  14
ATOM     14  C   UNL     1      45.350   3.695   9.026  0.00  0.00    +0.000 A 
ATOM     15  C   UNL     1      45.378   2.319   9.215  0.00  0.00    +0.000 A 
ATOM     16  N   UNL     1      45.925   1.470   8.304  0.00  0.00    +0.000 NA
ATOM     17  C   UNL     1      46.446   2.062   7.205  0.00  0.00    +0.000 A 
ATOM     18  C   UNL     1      46.418   3.435   7.016  0.00  0.00    +0.000 A 
ATOM     19  N   UNL     1      45.870   4.292   7.912  0.00  0.00    +0.000 NA
ENDBRANCH  11  14
ENDBRANCH   9  10
ENDBRANCH   6   9
ENDBRANCH   2   3
BRANCH   2  20
ATOM     20  N   UNL     1      48.782   7.608  16.440  0.00  0.00    +0.000 N 
ATOM     21  C   UNL     1      49.661   6.881  17.205  0.00  0.00    +0.000 C 
ATOM     22  O   UNL     1      50.833   6.701  16.897  0.00  0.00    +0.000 OA
ATOM     23  H   UNL     1      47.793   7.432  16.583  0.00  0.00    +0.000 HD
BRANCH  21  24
ATOM     24  C   UNL     1      49.120   6.395  18.481  0.00  0.00    +0.000 A 
ATOM     25  C   UNL     1      49.151   5.041  18.784  0.00  0.00    +0.000 A 
ATOM     26  S   UNL     1      48.545   4.680  20.338  0.00  0.00    +0.000 S 
ATOM     27  C   UNL     1      48.171   6.314  20.635  0.00  0.00    +0.000 A 
ATOM     28  N   UNL     1      47.594   6.706  21.804  0.00  0.00    +0.000 NA
ATOM     29  C   UNL     1      47.343   7.970  21.877  0.00  0.00    +0.000 A 
ATOM     30  N   UNL     1      47.619   8.881  20.892  0.00  0.00    +0.000 N 
ATOM     31  C   UNL     1      48.222   8.537  19.707  0.00  0.00    +0.000 A 
ATOM     32  O   UNL     1      48.491   9.382  18.861  0.00  0.00    +0.000 OA
ATOM     33  C   UNL     1      48.519   7.123  19.570  0.00  0.00    +0.000 A 
ATOM     34  H   UNL     1      47.408   9.860  21.009  0.00  0.00    +0.000 HD
ENDBRANCH  21  24
ENDBRANCH   2  20
TORSDOF 6
ENDMDL
